data_image0
_cell_length_a       20.429
_cell_length_b       22.744
_cell_length_c       21.792
_cell_angle_alpha    90
_cell_angle_beta     108.783
_cell_angle_gamma    90

_symmetry_space_group_name_H-M    "P 1"
_symmetry_int_tables_number       1

loop_
  _symmetry_equiv_pos_as_xyz
  'x, y, z'

loop_
  _atom_site_label
  _atom_site_occupancy
  _atom_site_fract_x
  _atom_site_fract_y
  _atom_site_fract_z
  _atom_site_thermal_displace_type
  _atom_site_B_iso_or_equiv
  _atom_site_type_symbol
  N1       1.0000 0.77220  0.31130  0.93510  Biso   1.000  N
  C1       1.0000 0.74850  0.31290  0.87020  Biso   1.000  C
  H1       1.0000 0.71830  0.28510  0.84270  Biso   1.000  H
  N2       1.0000 0.77490  0.36070  0.85090  Biso   1.000  N
  N3       1.0000 0.81490  0.38860  0.90390  Biso   1.000  N
  C2       1.0000 0.81320  0.35810  0.95590  Biso   1.000  C
  H2       1.0000 0.83700  0.36780  0.99990  Biso   1.000  H
  C3       1.0000 0.76890  0.38460  0.78760  Biso   1.000  C
  H3       1.0000 0.74880  0.42460  0.78350  Biso   1.000  H
  H4       1.0000 0.73740  0.35960  0.75350  Biso   1.000  H
  C4       1.0000 0.83860  0.38720  0.77800  Biso   1.000  C
  C5       1.0000 0.86420  0.33600  0.75960  Biso   1.000  C
  H5       1.0000 0.83820  0.30060  0.75400  Biso   1.000  H
  C6       1.0000 0.92780  0.33650  0.74920  Biso   1.000  C
  H6       1.0000 0.94530  0.30150  0.73660  Biso   1.000  H
  C7       1.0000 0.96570  0.38820  0.75730  Biso   1.000  C
  C8       1.0000 0.94010  0.43940  0.77580  Biso   1.000  C
  H7       1.0000 0.96610  0.47470  0.78130  Biso   1.000  H
  C9       1.0000 0.87660  0.43890  0.78610  Biso   1.000  C
  H8       1.0000 0.85900  0.47390  0.79880  Biso   1.000  H
  N4       1.0000 0.63710  0.25970  0.95460  Biso   1.000  N
  C10      1.0000 0.59560  0.27310  0.99010  Biso   1.000  C
  H9       1.0000 0.61000  0.27830  0.03580  Biso   1.000  H
  N5       1.0000 0.53010  0.27780  0.94910  Biso   1.000  N
  N6       1.0000 0.53100  0.26740  0.88820  Biso   1.000  N
  C11      1.0000 0.59720  0.25620  0.89160  Biso   1.000  C
  H10      1.0000 0.61290  0.24740  0.85610  Biso   1.000  H
  C12      1.0000 0.46870  0.29160  0.96530  Biso   1.000  C
  H11      1.0000 0.43600  0.31290  0.92840  Biso   1.000  H
  H12      1.0000 0.48140  0.31840  0.00310  Biso   1.000  H
  C13      1.0000 0.43180  0.23760  0.98110  Biso   1.000  C
  C14      1.0000 0.36260  0.22770  0.94560  Biso   1.000  C
  H13      1.0000 0.33990  0.25210  0.90970  Biso   1.000  H
  C15      1.0000 0.32660  0.18190  0.96300  Biso   1.000  C
  H14      1.0000 0.27940  0.17520  0.93880  Biso   1.000  H
  C16      1.0000 0.35980  0.14610  0.01570  Biso   1.000  C
  C17      1.0000 0.42900  0.15600  0.05120  Biso   1.000  C
  H15      1.0000 0.45170  0.13160  0.08710  Biso   1.000  H
  C18      1.0000 0.46500  0.20180  0.03380  Biso   1.000  C
  H16      1.0000 0.51220  0.20850  0.05800  Biso   1.000  H
  N7       1.0000 0.24990  0.82250  0.06470  Biso   1.000  N
  C19      1.0000 0.21400  0.87260  0.04240  Biso   1.000  C
  H17      1.0000 0.18580  0.87990  0.99900  Biso   1.000  H
  N8       1.0000 0.22550  0.91040  0.09300  Biso   1.000  N
  N9       1.0000 0.26840  0.88370  0.14660  Biso   1.000  N
  C20      1.0000 0.28350  0.82940  0.12910  Biso   1.000  C
  H18      1.0000 0.31250  0.80110  0.15700  Biso   1.000  H
  C21      1.0000 0.19790  0.96800  0.09090  Biso   1.000  C
  H19      1.0000 0.15060  0.96890  0.05940  Biso   1.000  H
  H20      1.0000 0.19490  0.97820  0.13410  Biso   1.000  H
  C22      1.0000 0.24220  0.01350  0.07150  Biso   1.000  C
  C23      1.0000 0.28250  0.05210  0.11770  Biso   1.000  C
  H21      1.0000 0.28330  0.04930  0.16140  Biso   1.000  H
  C24      1.0000 0.32170  0.09460  0.09990  Biso   1.000  C
  H22      1.0000 0.34930  0.12100  0.13150  Biso   1.000  H
  C25      1.0000 0.32050  0.09860  0.03610  Biso   1.000  C
  C26      1.0000 0.28010  0.06010  0.98990  Biso   1.000  C
  H23      1.0000 0.27930  0.06280  0.94620  Biso   1.000  H
  C27      1.0000 0.24100  0.01750  0.00770  Biso   1.000  C
  H24      1.0000 0.21330  0.99110  0.97610  Biso   1.000  H
  N10      1.0000 0.27220  0.81130  0.93510  Biso   1.000  N
  C28      1.0000 0.24850  0.81290  0.87020  Biso   1.000  C
  H25      1.0000 0.21830  0.78510  0.84270  Biso   1.000  H
  N11      1.0000 0.27490  0.86070  0.85090  Biso   1.000  N
  N12      1.0000 0.31490  0.88860  0.90390  Biso   1.000  N
  C29      1.0000 0.31320  0.85810  0.95590  Biso   1.000  C
  H26      1.0000 0.33700  0.86780  0.99990  Biso   1.000  H
  C30      1.0000 0.26890  0.88460  0.78760  Biso   1.000  C
  H27      1.0000 0.24880  0.92460  0.78350  Biso   1.000  H
  H28      1.0000 0.23740  0.85960  0.75350  Biso   1.000  H
  C31      1.0000 0.33860  0.88720  0.77800  Biso   1.000  C
  C32      1.0000 0.36420  0.83600  0.75960  Biso   1.000  C
  H29      1.0000 0.33820  0.80060  0.75400  Biso   1.000  H
  C33      1.0000 0.42780  0.83650  0.74920  Biso   1.000  C
  H30      1.0000 0.44530  0.80150  0.73660  Biso   1.000  H
  C34      1.0000 0.46570  0.88820  0.75730  Biso   1.000  C
  C35      1.0000 0.44010  0.93940  0.77580  Biso   1.000  C
  H31      1.0000 0.46610  0.97470  0.78130  Biso   1.000  H
  C36      1.0000 0.37660  0.93890  0.78610  Biso   1.000  C
  H32      1.0000 0.35900  0.97390  0.79880  Biso   1.000  H
  N13      1.0000 0.13710  0.75970  0.95460  Biso   1.000  N
  C37      1.0000 0.09560  0.77310  0.99010  Biso   1.000  C
  H33      1.0000 0.11000  0.77830  0.03580  Biso   1.000  H
  N14      1.0000 0.03010  0.77780  0.94910  Biso   1.000  N
  N15      1.0000 0.03100  0.76740  0.88820  Biso   1.000  N
  C38      1.0000 0.09720  0.75620  0.89160  Biso   1.000  C
  H34      1.0000 0.11290  0.74740  0.85610  Biso   1.000  H
  C39      1.0000 0.96870  0.79160  0.96530  Biso   1.000  C
  H35      1.0000 0.93600  0.81290  0.92840  Biso   1.000  H
  H36      1.0000 0.98140  0.81840  0.00310  Biso   1.000  H
  C40      1.0000 0.93180  0.73760  0.98110  Biso   1.000  C
  C41      1.0000 0.86260  0.72770  0.94560  Biso   1.000  C
  H37      1.0000 0.83990  0.75210  0.90970  Biso   1.000  H
  C42      1.0000 0.82660  0.68190  0.96300  Biso   1.000  C
  H38      1.0000 0.77940  0.67520  0.93880  Biso   1.000  H
  C43      1.0000 0.85980  0.64610  0.01570  Biso   1.000  C
  C44      1.0000 0.92900  0.65600  0.05120  Biso   1.000  C
  H39      1.0000 0.95170  0.63160  0.08710  Biso   1.000  H
  C45      1.0000 0.96500  0.70180  0.03380  Biso   1.000  C
  H40      1.0000 0.01220  0.70850  0.05800  Biso   1.000  H
  N16      1.0000 0.74990  0.32250  0.06470  Biso   1.000  N
  C46      1.0000 0.71400  0.37260  0.04240  Biso   1.000  C
  H41      1.0000 0.68580  0.37990  0.99900  Biso   1.000  H
  N17      1.0000 0.72550  0.41040  0.09300  Biso   1.000  N
  N18      1.0000 0.76840  0.38370  0.14660  Biso   1.000  N
  C47      1.0000 0.78350  0.32940  0.12910  Biso   1.000  C
  H42      1.0000 0.81250  0.30110  0.15700  Biso   1.000  H
  C48      1.0000 0.69790  0.46800  0.09090  Biso   1.000  C
  H43      1.0000 0.65060  0.46890  0.05940  Biso   1.000  H
  H44      1.0000 0.69490  0.47820  0.13410  Biso   1.000  H
  C49      1.0000 0.74220  0.51350  0.07150  Biso   1.000  C
  C50      1.0000 0.78250  0.55210  0.11770  Biso   1.000  C
  H45      1.0000 0.78330  0.54930  0.16140  Biso   1.000  H
  C51      1.0000 0.82170  0.59460  0.09990  Biso   1.000  C
  H46      1.0000 0.84930  0.62100  0.13150  Biso   1.000  H
  C52      1.0000 0.82050  0.59860  0.03610  Biso   1.000  C
  C53      1.0000 0.78010  0.56010  0.98990  Biso   1.000  C
  H47      1.0000 0.77930  0.56280  0.94620  Biso   1.000  H
  C54      1.0000 0.74100  0.51750  0.00770  Biso   1.000  C
  H48      1.0000 0.71330  0.49110  0.97610  Biso   1.000  H
  N19      1.0000 0.22780  0.31130  0.56490  Biso   1.000  N
  C55      1.0000 0.25150  0.31290  0.62980  Biso   1.000  C
  H49      1.0000 0.28170  0.28510  0.65730  Biso   1.000  H
  N20      1.0000 0.22510  0.36070  0.64910  Biso   1.000  N
  N21      1.0000 0.18510  0.38860  0.59610  Biso   1.000  N
  C56      1.0000 0.18680  0.35810  0.54410  Biso   1.000  C
  H50      1.0000 0.16300  0.36780  0.50010  Biso   1.000  H
  C57      1.0000 0.23110  0.38460  0.71240  Biso   1.000  C
  H51      1.0000 0.25120  0.42460  0.71650  Biso   1.000  H
  H52      1.0000 0.26260  0.35960  0.74650  Biso   1.000  H
  C58      1.0000 0.16140  0.38720  0.72200  Biso   1.000  C
  C59      1.0000 0.13580  0.33600  0.74040  Biso   1.000  C
  H53      1.0000 0.16180  0.30060  0.74600  Biso   1.000  H
  C60      1.0000 0.07220  0.33650  0.75080  Biso   1.000  C
  H54      1.0000 0.05470  0.30150  0.76340  Biso   1.000  H
  C61      1.0000 0.03430  0.38820  0.74270  Biso   1.000  C
  C62      1.0000 0.05990  0.43940  0.72420  Biso   1.000  C
  H55      1.0000 0.03390  0.47470  0.71870  Biso   1.000  H
  C63      1.0000 0.12340  0.43890  0.71390  Biso   1.000  C
  H56      1.0000 0.14100  0.47390  0.70120  Biso   1.000  H
  N22      1.0000 0.36290  0.25970  0.54540  Biso   1.000  N
  C64      1.0000 0.40440  0.27310  0.50990  Biso   1.000  C
  H57      1.0000 0.39000  0.27830  0.46420  Biso   1.000  H
  N23      1.0000 0.46990  0.27780  0.55090  Biso   1.000  N
  N24      1.0000 0.46900  0.26740  0.61180  Biso   1.000  N
  C65      1.0000 0.40280  0.25620  0.60840  Biso   1.000  C
  H58      1.0000 0.38710  0.24740  0.64390  Biso   1.000  H
  C66      1.0000 0.53130  0.29160  0.53470  Biso   1.000  C
  H59      1.0000 0.56400  0.31290  0.57160  Biso   1.000  H
  H60      1.0000 0.51860  0.31840  0.49690  Biso   1.000  H
  C67      1.0000 0.56820  0.23760  0.51890  Biso   1.000  C
  C68      1.0000 0.63740  0.22770  0.55440  Biso   1.000  C
  H61      1.0000 0.66010  0.25210  0.59030  Biso   1.000  H
  C69      1.0000 0.67340  0.18190  0.53700  Biso   1.000  C
  H62      1.0000 0.72060  0.17520  0.56120  Biso   1.000  H
  C70      1.0000 0.64020  0.14610  0.48430  Biso   1.000  C
  C71      1.0000 0.57100  0.15600  0.44880  Biso   1.000  C
  H63      1.0000 0.54830  0.13160  0.41290  Biso   1.000  H
  C72      1.0000 0.53500  0.20180  0.46620  Biso   1.000  C
  H64      1.0000 0.48780  0.20850  0.44200  Biso   1.000  H
  N25      1.0000 0.75010  0.82250  0.43530  Biso   1.000  N
  C73      1.0000 0.78600  0.87260  0.45760  Biso   1.000  C
  H65      1.0000 0.81420  0.87990  0.50100  Biso   1.000  H
  N26      1.0000 0.77450  0.91040  0.40700  Biso   1.000  N
  N27      1.0000 0.73160  0.88370  0.35340  Biso   1.000  N
  C74      1.0000 0.71650  0.82940  0.37090  Biso   1.000  C
  H66      1.0000 0.68750  0.80110  0.34300  Biso   1.000  H
  C75      1.0000 0.80210  0.96800  0.40910  Biso   1.000  C
  H67      1.0000 0.84940  0.96890  0.44060  Biso   1.000  H
  H68      1.0000 0.80510  0.97820  0.36590  Biso   1.000  H
  C76      1.0000 0.75780  0.01350  0.42850  Biso   1.000  C
  C77      1.0000 0.71750  0.05210  0.38230  Biso   1.000  C
  H69      1.0000 0.71670  0.04930  0.33860  Biso   1.000  H
  C78      1.0000 0.67830  0.09460  0.40010  Biso   1.000  C
  H70      1.0000 0.65070  0.12100  0.36850  Biso   1.000  H
  C79      1.0000 0.67950  0.09860  0.46390  Biso   1.000  C
  C80      1.0000 0.71990  0.06010  0.51010  Biso   1.000  C
  H71      1.0000 0.72070  0.06280  0.55380  Biso   1.000  H
  C81      1.0000 0.75900  0.01750  0.49230  Biso   1.000  C
  H72      1.0000 0.78670  0.99110  0.52390  Biso   1.000  H
  N28      1.0000 0.72780  0.81130  0.56490  Biso   1.000  N
  C82      1.0000 0.75150  0.81290  0.62980  Biso   1.000  C
  H73      1.0000 0.78170  0.78510  0.65730  Biso   1.000  H
  N29      1.0000 0.72510  0.86070  0.64910  Biso   1.000  N
  N30      1.0000 0.68510  0.88860  0.59610  Biso   1.000  N
  C83      1.0000 0.68680  0.85810  0.54410  Biso   1.000  C
  H74      1.0000 0.66300  0.86780  0.50010  Biso   1.000  H
  C84      1.0000 0.73110  0.88460  0.71240  Biso   1.000  C
  H75      1.0000 0.75120  0.92460  0.71650  Biso   1.000  H
  H76      1.0000 0.76260  0.85960  0.74650  Biso   1.000  H
  C85      1.0000 0.66140  0.88720  0.72200  Biso   1.000  C
  C86      1.0000 0.63580  0.83600  0.74040  Biso   1.000  C
  H77      1.0000 0.66180  0.80060  0.74600  Biso   1.000  H
  C87      1.0000 0.57220  0.83650  0.75080  Biso   1.000  C
  H78      1.0000 0.55470  0.80150  0.76340  Biso   1.000  H
  C88      1.0000 0.53430  0.88820  0.74270  Biso   1.000  C
  C89      1.0000 0.55990  0.93940  0.72420  Biso   1.000  C
  H79      1.0000 0.53390  0.97470  0.71870  Biso   1.000  H
  C90      1.0000 0.62340  0.93890  0.71390  Biso   1.000  C
  H80      1.0000 0.64100  0.97390  0.70120  Biso   1.000  H
  N31      1.0000 0.86290  0.75970  0.54540  Biso   1.000  N
  C91      1.0000 0.90440  0.77310  0.50990  Biso   1.000  C
  H81      1.0000 0.89000  0.77830  0.46420  Biso   1.000  H
  N32      1.0000 0.96990  0.77780  0.55090  Biso   1.000  N
  N33      1.0000 0.96900  0.76740  0.61180  Biso   1.000  N
  C92      1.0000 0.90280  0.75620  0.60840  Biso   1.000  C
  H82      1.0000 0.88710  0.74740  0.64390  Biso   1.000  H
  C93      1.0000 0.03130  0.79160  0.53470  Biso   1.000  C
  H83      1.0000 0.06400  0.81290  0.57160  Biso   1.000  H
  H84      1.0000 0.01860  0.81840  0.49690  Biso   1.000  H
  C94      1.0000 0.06820  0.73760  0.51890  Biso   1.000  C
  C95      1.0000 0.13740  0.72770  0.55440  Biso   1.000  C
  H85      1.0000 0.16010  0.75210  0.59030  Biso   1.000  H
  C96      1.0000 0.17340  0.68190  0.53700  Biso   1.000  C
  H86      1.0000 0.22060  0.67520  0.56120  Biso   1.000  H
  C97      1.0000 0.14020  0.64610  0.48430  Biso   1.000  C
  C98      1.0000 0.07100  0.65600  0.44880  Biso   1.000  C
  H87      1.0000 0.04830  0.63160  0.41290  Biso   1.000  H
  C99      1.0000 0.03500  0.70180  0.46620  Biso   1.000  C
  H88      1.0000 0.98780  0.70850  0.44200  Biso   1.000  H
  N34      1.0000 0.25010  0.32250  0.43530  Biso   1.000  N
  C100     1.0000 0.28600  0.37260  0.45760  Biso   1.000  C
  H89      1.0000 0.31420  0.37990  0.50100  Biso   1.000  H
  N35      1.0000 0.27450  0.41040  0.40700  Biso   1.000  N
  N36      1.0000 0.23160  0.38370  0.35340  Biso   1.000  N
  C101     1.0000 0.21650  0.32940  0.37090  Biso   1.000  C
  H90      1.0000 0.18750  0.30110  0.34300  Biso   1.000  H
  C102     1.0000 0.30210  0.46800  0.40910  Biso   1.000  C
  H91      1.0000 0.34940  0.46890  0.44060  Biso   1.000  H
  H92      1.0000 0.30510  0.47820  0.36590  Biso   1.000  H
  C103     1.0000 0.25780  0.51350  0.42850  Biso   1.000  C
  C104     1.0000 0.21750  0.55210  0.38230  Biso   1.000  C
  H93      1.0000 0.21670  0.54930  0.33860  Biso   1.000  H
  C105     1.0000 0.17830  0.59460  0.40010  Biso   1.000  C
  H94      1.0000 0.15070  0.62100  0.36850  Biso   1.000  H
  C106     1.0000 0.17950  0.59860  0.46390  Biso   1.000  C
  C107     1.0000 0.21990  0.56010  0.51010  Biso   1.000  C
  H95      1.0000 0.22070  0.56280  0.55380  Biso   1.000  H
  C108     1.0000 0.25900  0.51750  0.49230  Biso   1.000  C
  H96      1.0000 0.28670  0.49110  0.52390  Biso   1.000  H
  N37      1.0000 0.22780  0.68870  0.06490  Biso   1.000  N
  C109     1.0000 0.25150  0.68710  0.12980  Biso   1.000  C
  H97      1.0000 0.28170  0.71490  0.15730  Biso   1.000  H
  N38      1.0000 0.22510  0.63930  0.14910  Biso   1.000  N
  N39      1.0000 0.18510  0.61140  0.09610  Biso   1.000  N
  C110     1.0000 0.18680  0.64190  0.04410  Biso   1.000  C
  H98      1.0000 0.16300  0.63220  0.00010  Biso   1.000  H
  C111     1.0000 0.23110  0.61540  0.21240  Biso   1.000  C
  H99      1.0000 0.25120  0.57540  0.21650  Biso   1.000  H
  H100     1.0000 0.26260  0.64040  0.24650  Biso   1.000  H
  C112     1.0000 0.16140  0.61280  0.22200  Biso   1.000  C
  C113     1.0000 0.13580  0.66400  0.24040  Biso   1.000  C
  H101     1.0000 0.16180  0.69940  0.24600  Biso   1.000  H
  C114     1.0000 0.07220  0.66350  0.25080  Biso   1.000  C
  H102     1.0000 0.05470  0.69850  0.26340  Biso   1.000  H
  C115     1.0000 0.03430  0.61180  0.24270  Biso   1.000  C
  C116     1.0000 0.05990  0.56060  0.22420  Biso   1.000  C
  H103     1.0000 0.03390  0.52530  0.21870  Biso   1.000  H
  C117     1.0000 0.12340  0.56110  0.21390  Biso   1.000  C
  H104     1.0000 0.14100  0.52610  0.20120  Biso   1.000  H
  N40      1.0000 0.36290  0.74030  0.04540  Biso   1.000  N
  C118     1.0000 0.40440  0.72690  0.00990  Biso   1.000  C
  H105     1.0000 0.39000  0.72170  0.96420  Biso   1.000  H
  N41      1.0000 0.46990  0.72220  0.05090  Biso   1.000  N
  N42      1.0000 0.46900  0.73260  0.11180  Biso   1.000  N
  C119     1.0000 0.40280  0.74380  0.10840  Biso   1.000  C
  H106     1.0000 0.38710  0.75260  0.14390  Biso   1.000  H
  C120     1.0000 0.53130  0.70840  0.03470  Biso   1.000  C
  H107     1.0000 0.56400  0.68710  0.07160  Biso   1.000  H
  H108     1.0000 0.51860  0.68160  0.99690  Biso   1.000  H
  C121     1.0000 0.56820  0.76240  0.01890  Biso   1.000  C
  C122     1.0000 0.63740  0.77230  0.05440  Biso   1.000  C
  H109     1.0000 0.66010  0.74790  0.09030  Biso   1.000  H
  C123     1.0000 0.67340  0.81810  0.03700  Biso   1.000  C
  H110     1.0000 0.72060  0.82480  0.06120  Biso   1.000  H
  C124     1.0000 0.64020  0.85390  0.98430  Biso   1.000  C
  C125     1.0000 0.57100  0.84400  0.94880  Biso   1.000  C
  H111     1.0000 0.54830  0.86840  0.91290  Biso   1.000  H
  C126     1.0000 0.53500  0.79820  0.96620  Biso   1.000  C
  H112     1.0000 0.48780  0.79150  0.94200  Biso   1.000  H
  N43      1.0000 0.75010  0.17750  0.93530  Biso   1.000  N
  C127     1.0000 0.78600  0.12740  0.95760  Biso   1.000  C
  H113     1.0000 0.81420  0.12010  0.00100  Biso   1.000  H
  N44      1.0000 0.77450  0.08960  0.90700  Biso   1.000  N
  N45      1.0000 0.73160  0.11630  0.85340  Biso   1.000  N
  C128     1.0000 0.71650  0.17060  0.87090  Biso   1.000  C
  H114     1.0000 0.68750  0.19890  0.84300  Biso   1.000  H
  C129     1.0000 0.80210  0.03200  0.90910  Biso   1.000  C
  H115     1.0000 0.84940  0.03110  0.94060  Biso   1.000  H
  H116     1.0000 0.80510  0.02180  0.86590  Biso   1.000  H
  C130     1.0000 0.75780  0.98650  0.92850  Biso   1.000  C
  C131     1.0000 0.71750  0.94790  0.88230  Biso   1.000  C
  H117     1.0000 0.71670  0.95070  0.83860  Biso   1.000  H
  C132     1.0000 0.67830  0.90540  0.90010  Biso   1.000  C
  H118     1.0000 0.65070  0.87900  0.86850  Biso   1.000  H
  C133     1.0000 0.67950  0.90140  0.96390  Biso   1.000  C
  C134     1.0000 0.71990  0.93990  0.01010  Biso   1.000  C
  H119     1.0000 0.72070  0.93720  0.05380  Biso   1.000  H
  C135     1.0000 0.75900  0.98250  0.99230  Biso   1.000  C
  H120     1.0000 0.78670  0.00890  0.02390  Biso   1.000  H
  N46      1.0000 0.72780  0.18870  0.06490  Biso   1.000  N
  C136     1.0000 0.75150  0.18710  0.12980  Biso   1.000  C
  H121     1.0000 0.78170  0.21490  0.15730  Biso   1.000  H
  N47      1.0000 0.72510  0.13930  0.14910  Biso   1.000  N
  N48      1.0000 0.68510  0.11140  0.09610  Biso   1.000  N
  C137     1.0000 0.68680  0.14190  0.04410  Biso   1.000  C
  H122     1.0000 0.66300  0.13220  0.00010  Biso   1.000  H
  C138     1.0000 0.73110  0.11540  0.21240  Biso   1.000  C
  H123     1.0000 0.75120  0.07540  0.21650  Biso   1.000  H
  H124     1.0000 0.76260  0.14040  0.24650  Biso   1.000  H
  C139     1.0000 0.66140  0.11280  0.22200  Biso   1.000  C
  C140     1.0000 0.63580  0.16400  0.24040  Biso   1.000  C
  H125     1.0000 0.66180  0.19940  0.24600  Biso   1.000  H
  C141     1.0000 0.57220  0.16350  0.25080  Biso   1.000  C
  H126     1.0000 0.55470  0.19850  0.26340  Biso   1.000  H
  C142     1.0000 0.53430  0.11180  0.24270  Biso   1.000  C
  C143     1.0000 0.55990  0.06060  0.22420  Biso   1.000  C
  H127     1.0000 0.53390  0.02530  0.21870  Biso   1.000  H
  C144     1.0000 0.62340  0.06110  0.21390  Biso   1.000  C
  H128     1.0000 0.64100  0.02610  0.20120  Biso   1.000  H
  N49      1.0000 0.86290  0.24030  0.04540  Biso   1.000  N
  C145     1.0000 0.90440  0.22690  0.00990  Biso   1.000  C
  H129     1.0000 0.89000  0.22170  0.96420  Biso   1.000  H
  N50      1.0000 0.96990  0.22220  0.05090  Biso   1.000  N
  N51      1.0000 0.96900  0.23260  0.11180  Biso   1.000  N
  C146     1.0000 0.90280  0.24380  0.10840  Biso   1.000  C
  H130     1.0000 0.88710  0.25260  0.14390  Biso   1.000  H
  C147     1.0000 0.03130  0.20840  0.03470  Biso   1.000  C
  H131     1.0000 0.06400  0.18710  0.07160  Biso   1.000  H
  H132     1.0000 0.01860  0.18160  0.99690  Biso   1.000  H
  C148     1.0000 0.06820  0.26240  0.01890  Biso   1.000  C
  C149     1.0000 0.13740  0.27230  0.05440  Biso   1.000  C
  H133     1.0000 0.16010  0.24790  0.09030  Biso   1.000  H
  C150     1.0000 0.17340  0.31810  0.03700  Biso   1.000  C
  H134     1.0000 0.22060  0.32480  0.06120  Biso   1.000  H
  C151     1.0000 0.14020  0.35390  0.98430  Biso   1.000  C
  C152     1.0000 0.07100  0.34400  0.94880  Biso   1.000  C
  H135     1.0000 0.04830  0.36840  0.91290  Biso   1.000  H
  C153     1.0000 0.03500  0.29820  0.96620  Biso   1.000  C
  H136     1.0000 0.98780  0.29150  0.94200  Biso   1.000  H
  N52      1.0000 0.25010  0.67750  0.93530  Biso   1.000  N
  C154     1.0000 0.28600  0.62740  0.95760  Biso   1.000  C
  H137     1.0000 0.31420  0.62010  0.00100  Biso   1.000  H
  N53      1.0000 0.27450  0.58960  0.90700  Biso   1.000  N
  N54      1.0000 0.23160  0.61630  0.85340  Biso   1.000  N
  C155     1.0000 0.21650  0.67060  0.87090  Biso   1.000  C
  H138     1.0000 0.18750  0.69890  0.84300  Biso   1.000  H
  C156     1.0000 0.30210  0.53200  0.90910  Biso   1.000  C
  H139     1.0000 0.34940  0.53110  0.94060  Biso   1.000  H
  H140     1.0000 0.30510  0.52180  0.86590  Biso   1.000  H
  C157     1.0000 0.25780  0.48650  0.92850  Biso   1.000  C
  C158     1.0000 0.21750  0.44790  0.88230  Biso   1.000  C
  H141     1.0000 0.21670  0.45070  0.83860  Biso   1.000  H
  C159     1.0000 0.17830  0.40540  0.90010  Biso   1.000  C
  H142     1.0000 0.15070  0.37900  0.86850  Biso   1.000  H
  C160     1.0000 0.17950  0.40140  0.96390  Biso   1.000  C
  C161     1.0000 0.21990  0.43990  0.01010  Biso   1.000  C
  H143     1.0000 0.22070  0.43720  0.05380  Biso   1.000  H
  C162     1.0000 0.25900  0.48250  0.99230  Biso   1.000  C
  H144     1.0000 0.28670  0.50890  0.02390  Biso   1.000  H
  N55      1.0000 0.77220  0.68870  0.43510  Biso   1.000  N
  C163     1.0000 0.74850  0.68710  0.37020  Biso   1.000  C
  H145     1.0000 0.71830  0.71490  0.34270  Biso   1.000  H
  N56      1.0000 0.77490  0.63930  0.35090  Biso   1.000  N
  N57      1.0000 0.81490  0.61140  0.40390  Biso   1.000  N
  C164     1.0000 0.81320  0.64190  0.45590  Biso   1.000  C
  H146     1.0000 0.83700  0.63220  0.49990  Biso   1.000  H
  C165     1.0000 0.76890  0.61540  0.28760  Biso   1.000  C
  H147     1.0000 0.74880  0.57540  0.28350  Biso   1.000  H
  H148     1.0000 0.73740  0.64040  0.25350  Biso   1.000  H
  C166     1.0000 0.83860  0.61280  0.27800  Biso   1.000  C
  C167     1.0000 0.86420  0.66400  0.25960  Biso   1.000  C
  H149     1.0000 0.83820  0.69940  0.25400  Biso   1.000  H
  C168     1.0000 0.92780  0.66350  0.24920  Biso   1.000  C
  H150     1.0000 0.94530  0.69850  0.23660  Biso   1.000  H
  C169     1.0000 0.96570  0.61180  0.25730  Biso   1.000  C
  C170     1.0000 0.94010  0.56060  0.27580  Biso   1.000  C
  H151     1.0000 0.96610  0.52530  0.28130  Biso   1.000  H
  C171     1.0000 0.87660  0.56110  0.28610  Biso   1.000  C
  H152     1.0000 0.85900  0.52610  0.29880  Biso   1.000  H
  N58      1.0000 0.63710  0.74030  0.45460  Biso   1.000  N
  C172     1.0000 0.59560  0.72690  0.49010  Biso   1.000  C
  H153     1.0000 0.61000  0.72170  0.53580  Biso   1.000  H
  N59      1.0000 0.53010  0.72220  0.44910  Biso   1.000  N
  N60      1.0000 0.53100  0.73260  0.38820  Biso   1.000  N
  C173     1.0000 0.59720  0.74380  0.39160  Biso   1.000  C
  H154     1.0000 0.61290  0.75260  0.35610  Biso   1.000  H
  C174     1.0000 0.46870  0.70840  0.46530  Biso   1.000  C
  H155     1.0000 0.43600  0.68710  0.42840  Biso   1.000  H
  H156     1.0000 0.48140  0.68160  0.50310  Biso   1.000  H
  C175     1.0000 0.43180  0.76240  0.48110  Biso   1.000  C
  C176     1.0000 0.36260  0.77230  0.44560  Biso   1.000  C
  H157     1.0000 0.33990  0.74790  0.40970  Biso   1.000  H
  C177     1.0000 0.32660  0.81810  0.46300  Biso   1.000  C
  H158     1.0000 0.27940  0.82480  0.43880  Biso   1.000  H
  C178     1.0000 0.35980  0.85390  0.51570  Biso   1.000  C
  C179     1.0000 0.42900  0.84400  0.55120  Biso   1.000  C
  H159     1.0000 0.45170  0.86840  0.58710  Biso   1.000  H
  C180     1.0000 0.46500  0.79820  0.53380  Biso   1.000  C
  H160     1.0000 0.51220  0.79150  0.55800  Biso   1.000  H
  N61      1.0000 0.24990  0.17750  0.56470  Biso   1.000  N
  C181     1.0000 0.21400  0.12740  0.54240  Biso   1.000  C
  H161     1.0000 0.18580  0.12010  0.49900  Biso   1.000  H
  N62      1.0000 0.22550  0.08960  0.59300  Biso   1.000  N
  N63      1.0000 0.26840  0.11630  0.64660  Biso   1.000  N
  C182     1.0000 0.28350  0.17060  0.62910  Biso   1.000  C
  H162     1.0000 0.31250  0.19890  0.65700  Biso   1.000  H
  C183     1.0000 0.19790  0.03200  0.59090  Biso   1.000  C
  H163     1.0000 0.15060  0.03110  0.55940  Biso   1.000  H
  H164     1.0000 0.19490  0.02180  0.63410  Biso   1.000  H
  C184     1.0000 0.24220  0.98650  0.57150  Biso   1.000  C
  C185     1.0000 0.28250  0.94790  0.61770  Biso   1.000  C
  H165     1.0000 0.28330  0.95070  0.66140  Biso   1.000  H
  C186     1.0000 0.32170  0.90540  0.59990  Biso   1.000  C
  H166     1.0000 0.34930  0.87900  0.63150  Biso   1.000  H
  C187     1.0000 0.32050  0.90140  0.53610  Biso   1.000  C
  C188     1.0000 0.28010  0.93990  0.48990  Biso   1.000  C
  H167     1.0000 0.27930  0.93720  0.44620  Biso   1.000  H
  C189     1.0000 0.24100  0.98250  0.50770  Biso   1.000  C
  H168     1.0000 0.21330  0.00890  0.47610  Biso   1.000  H
  N64      1.0000 0.27220  0.18870  0.43510  Biso   1.000  N
  C190     1.0000 0.24850  0.18710  0.37020  Biso   1.000  C
  H169     1.0000 0.21830  0.21490  0.34270  Biso   1.000  H
  N65      1.0000 0.27490  0.13930  0.35090  Biso   1.000  N
  N66      1.0000 0.31490  0.11140  0.40390  Biso   1.000  N
  C191     1.0000 0.31320  0.14190  0.45590  Biso   1.000  C
  H170     1.0000 0.33700  0.13220  0.49990  Biso   1.000  H
  C192     1.0000 0.26890  0.11540  0.28760  Biso   1.000  C
  H171     1.0000 0.24880  0.07540  0.28350  Biso   1.000  H
  H172     1.0000 0.23740  0.14040  0.25350  Biso   1.000  H
  C193     1.0000 0.33860  0.11280  0.27800  Biso   1.000  C
  C194     1.0000 0.36420  0.16400  0.25960  Biso   1.000  C
  H173     1.0000 0.33820  0.19940  0.25400  Biso   1.000  H
  C195     1.0000 0.42780  0.16350  0.24920  Biso   1.000  C
  H174     1.0000 0.44530  0.19850  0.23660  Biso   1.000  H
  C196     1.0000 0.46570  0.11180  0.25730  Biso   1.000  C
  C197     1.0000 0.44010  0.06060  0.27580  Biso   1.000  C
  H175     1.0000 0.46610  0.02530  0.28130  Biso   1.000  H
  C198     1.0000 0.37660  0.06110  0.28610  Biso   1.000  C
  H176     1.0000 0.35900  0.02610  0.29880  Biso   1.000  H
  N67      1.0000 0.13710  0.24030  0.45460  Biso   1.000  N
  C199     1.0000 0.09560  0.22690  0.49010  Biso   1.000  C
  H177     1.0000 0.11000  0.22170  0.53580  Biso   1.000  H
  N68      1.0000 0.03010  0.22220  0.44910  Biso   1.000  N
  N69      1.0000 0.03100  0.23260  0.38820  Biso   1.000  N
  C200     1.0000 0.09720  0.24380  0.39160  Biso   1.000  C
  H178     1.0000 0.11290  0.25260  0.35610  Biso   1.000  H
  C201     1.0000 0.96870  0.20840  0.46530  Biso   1.000  C
  H179     1.0000 0.93600  0.18710  0.42840  Biso   1.000  H
  H180     1.0000 0.98140  0.18160  0.50310  Biso   1.000  H
  C202     1.0000 0.93180  0.26240  0.48110  Biso   1.000  C
  C203     1.0000 0.86260  0.27230  0.44560  Biso   1.000  C
  H181     1.0000 0.83990  0.24790  0.40970  Biso   1.000  H
  C204     1.0000 0.82660  0.31810  0.46300  Biso   1.000  C
  H182     1.0000 0.77940  0.32480  0.43880  Biso   1.000  H
  C205     1.0000 0.85980  0.35390  0.51570  Biso   1.000  C
  C206     1.0000 0.92900  0.34400  0.55120  Biso   1.000  C
  H183     1.0000 0.95170  0.36840  0.58710  Biso   1.000  H
  C207     1.0000 0.96500  0.29820  0.53380  Biso   1.000  C
  H184     1.0000 0.01220  0.29150  0.55800  Biso   1.000  H
  N70      1.0000 0.74990  0.67750  0.56470  Biso   1.000  N
  C208     1.0000 0.71400  0.62740  0.54240  Biso   1.000  C
  H185     1.0000 0.68580  0.62010  0.49900  Biso   1.000  H
  N71      1.0000 0.72550  0.58960  0.59300  Biso   1.000  N
  N72      1.0000 0.76840  0.61630  0.64660  Biso   1.000  N
  C209     1.0000 0.78350  0.67060  0.62910  Biso   1.000  C
  H186     1.0000 0.81250  0.69890  0.65700  Biso   1.000  H
  C210     1.0000 0.69790  0.53200  0.59090  Biso   1.000  C
  H187     1.0000 0.65060  0.53110  0.55940  Biso   1.000  H
  H188     1.0000 0.69490  0.52180  0.63410  Biso   1.000  H
  C211     1.0000 0.74220  0.48650  0.57150  Biso   1.000  C
  C212     1.0000 0.78250  0.44790  0.61770  Biso   1.000  C
  H189     1.0000 0.78330  0.45070  0.66140  Biso   1.000  H
  C213     1.0000 0.82170  0.40540  0.59990  Biso   1.000  C
  H190     1.0000 0.84930  0.37900  0.63150  Biso   1.000  H
  C214     1.0000 0.82050  0.40140  0.53610  Biso   1.000  C
  C215     1.0000 0.78010  0.43990  0.48990  Biso   1.000  C
  H191     1.0000 0.77930  0.43720  0.44620  Biso   1.000  H
  C216     1.0000 0.74100  0.48250  0.50770  Biso   1.000  C
  H192     1.0000 0.71330  0.50890  0.47610  Biso   1.000  H
  Co1      1.0000 0.75000  0.25000  0.00000  Biso   1.000  Co
  Co2      1.0000 0.25000  0.25000  0.50000  Biso   1.000  Co
  Co3      1.0000 0.25000  0.75000  0.00000  Biso   1.000  Co
  Co4      1.0000 0.75000  0.75000  0.50000  Biso   1.000  Co
