data_image0
_cell_length_a       23.474
_cell_length_b       23.474
_cell_length_c       6.6926
_cell_angle_alpha    90
_cell_angle_beta     90
_cell_angle_gamma    90

_symmetry_space_group_name_H-M    "P 1"
_symmetry_int_tables_number       1

loop_
  _symmetry_equiv_pos_as_xyz
  'x, y, z'

loop_
  _atom_site_label
  _atom_site_occupancy
  _atom_site_fract_x
  _atom_site_fract_y
  _atom_site_fract_z
  _atom_site_thermal_displace_type
  _atom_site_B_iso_or_equiv
  _atom_site_type_symbol
  O1       1.0000 0.61465  0.23751  0.81530  Biso   1.000  O
  O2       1.0000 0.38535  0.76249  0.81530  Biso   1.000  O
  O3       1.0000 0.76249  0.61465  0.81530  Biso   1.000  O
  O4       1.0000 0.23751  0.38535  0.81530  Biso   1.000  O
  O5       1.0000 0.88535  0.73751  0.68470  Biso   1.000  O
  O6       1.0000 0.11465  0.26249  0.68470  Biso   1.000  O
  O7       1.0000 0.73751  0.11465  0.68470  Biso   1.000  O
  O8       1.0000 0.26249  0.88535  0.68470  Biso   1.000  O
  O9       1.0000 0.38535  0.76249  0.18470  Biso   1.000  O
  O10      1.0000 0.61465  0.23751  0.18470  Biso   1.000  O
  O11      1.0000 0.23751  0.38535  0.18470  Biso   1.000  O
  O12      1.0000 0.76249  0.61465  0.18470  Biso   1.000  O
  O13      1.0000 0.11465  0.26249  0.31530  Biso   1.000  O
  O14      1.0000 0.88535  0.73751  0.31530  Biso   1.000  O
  O15      1.0000 0.26249  0.88535  0.31530  Biso   1.000  O
  O16      1.0000 0.73751  0.11465  0.31530  Biso   1.000  O
  In1      1.0000 0.12300  0.27548  0.00000  Biso   1.000  In
  P1       1.0000 0.60476  0.20059  0.00000  Biso   1.000  P
  C1       1.0000 0.51500  0.12370  0.00000  Biso   1.000  C
  H1       1.0000 0.54300  0.09570  0.00000  Biso   1.000  H
  O17      1.0000 0.63910  0.14540  0.00000  Biso   1.000  O
  O18      1.0000 0.21820  0.25190  0.00000  Biso   1.000  O
  O19      1.0000 0.15420  0.18470  0.00000  Biso   1.000  O
  C2       1.0000 0.53010  0.17970  0.00000  Biso   1.000  C
  C3       1.0000 0.20570  0.19990  0.00000  Biso   1.000  C
  O20      1.0000 0.21550  0.97900  0.00000  Biso   1.000  O
  O21      1.0000 0.30670  0.96170  0.00000  Biso   1.000  O
  C4       1.0000 0.41380  0.14770  0.00000  Biso   1.000  C
  C5       1.0000 0.30850  0.17140  0.00000  Biso   1.000  C
  H2       1.0000 0.31780  0.20990  0.00000  Biso   1.000  H
  C6       1.0000 0.27960  0.05820  0.00000  Biso   1.000  C
  C7       1.0000 0.35240  0.13200  0.00000  Biso   1.000  C
  C8       1.0000 0.23740  0.09860  0.00000  Biso   1.000  C
  H3       1.0000 0.19930  0.08760  0.00000  Biso   1.000  H
  C9       1.0000 0.25210  0.15620  0.00000  Biso   1.000  C
  C10      1.0000 0.43080  0.20350  0.00000  Biso   1.000  C
  H4       1.0000 0.40330  0.23200  0.00000  Biso   1.000  H
  C11      1.0000 0.26570  0.99630  0.00000  Biso   1.000  C
  C12      1.0000 0.48870  0.21890  0.00000  Biso   1.000  C
  H5       1.0000 0.49840  0.25730  0.00000  Biso   1.000  H
  C13      1.0000 0.33650  0.07430  0.00000  Biso   1.000  C
  H6       1.0000 0.36460  0.04640  0.00000  Biso   1.000  H
  C14      1.0000 0.45600  0.10790  0.00000  Biso   1.000  C
  H7       1.0000 0.44630  0.06950  0.00000  Biso   1.000  H
  In2      1.0000 0.87700  0.72452  0.00000  Biso   1.000  In
  P2       1.0000 0.39524  0.79941  0.00000  Biso   1.000  P
  C15      1.0000 0.48500  0.87630  0.00000  Biso   1.000  C
  H8       1.0000 0.45700  0.90430  0.00000  Biso   1.000  H
  O22      1.0000 0.36090  0.85460  0.00000  Biso   1.000  O
  O23      1.0000 0.78180  0.74810  0.00000  Biso   1.000  O
  O24      1.0000 0.84580  0.81530  0.00000  Biso   1.000  O
  C16      1.0000 0.46990  0.82030  0.00000  Biso   1.000  C
  C17      1.0000 0.79430  0.80010  0.00000  Biso   1.000  C
  O25      1.0000 0.78450  0.02100  0.00000  Biso   1.000  O
  O26      1.0000 0.69330  0.03830  0.00000  Biso   1.000  O
  C18      1.0000 0.58620  0.85230  0.00000  Biso   1.000  C
  C19      1.0000 0.69150  0.82860  0.00000  Biso   1.000  C
  H9       1.0000 0.68220  0.79010  0.00000  Biso   1.000  H
  C20      1.0000 0.72040  0.94180  0.00000  Biso   1.000  C
  C21      1.0000 0.64760  0.86800  0.00000  Biso   1.000  C
  C22      1.0000 0.76260  0.90140  0.00000  Biso   1.000  C
  H10      1.0000 0.80070  0.91240  0.00000  Biso   1.000  H
  C23      1.0000 0.74790  0.84380  0.00000  Biso   1.000  C
  C24      1.0000 0.56920  0.79650  0.00000  Biso   1.000  C
  H11      1.0000 0.59670  0.76800  0.00000  Biso   1.000  H
  C25      1.0000 0.73430  0.00370  0.00000  Biso   1.000  C
  C26      1.0000 0.51130  0.78110  0.00000  Biso   1.000  C
  H12      1.0000 0.50160  0.74270  0.00000  Biso   1.000  H
  C27      1.0000 0.66350  0.92570  0.00000  Biso   1.000  C
  H13      1.0000 0.63540  0.95360  0.00000  Biso   1.000  H
  C28      1.0000 0.54400  0.89210  0.00000  Biso   1.000  C
  H14      1.0000 0.55370  0.93050  0.00000  Biso   1.000  H
  In3      1.0000 0.72452  0.12300  0.00000  Biso   1.000  In
  P3       1.0000 0.79941  0.60476  0.00000  Biso   1.000  P
  C29      1.0000 0.87630  0.51500  0.00000  Biso   1.000  C
  H15      1.0000 0.90430  0.54300  0.00000  Biso   1.000  H
  O27      1.0000 0.85460  0.63910  0.00000  Biso   1.000  O
  O28      1.0000 0.74810  0.21820  0.00000  Biso   1.000  O
  O29      1.0000 0.81530  0.15420  0.00000  Biso   1.000  O
  C30      1.0000 0.82030  0.53010  0.00000  Biso   1.000  C
  C31      1.0000 0.80010  0.20570  0.00000  Biso   1.000  C
  O30      1.0000 0.02100  0.21550  0.00000  Biso   1.000  O
  O31      1.0000 0.03830  0.30670  0.00000  Biso   1.000  O
  C32      1.0000 0.85230  0.41380  0.00000  Biso   1.000  C
  C33      1.0000 0.82860  0.30850  0.00000  Biso   1.000  C
  H16      1.0000 0.79010  0.31780  0.00000  Biso   1.000  H
  C34      1.0000 0.94180  0.27960  0.00000  Biso   1.000  C
  C35      1.0000 0.86800  0.35240  0.00000  Biso   1.000  C
  C36      1.0000 0.90140  0.23740  0.00000  Biso   1.000  C
  H17      1.0000 0.91240  0.19930  0.00000  Biso   1.000  H
  C37      1.0000 0.84380  0.25210  0.00000  Biso   1.000  C
  C38      1.0000 0.79650  0.43080  0.00000  Biso   1.000  C
  H18      1.0000 0.76800  0.40330  0.00000  Biso   1.000  H
  C39      1.0000 0.00370  0.26570  0.00000  Biso   1.000  C
  C40      1.0000 0.78110  0.48870  0.00000  Biso   1.000  C
  H19      1.0000 0.74270  0.49840  0.00000  Biso   1.000  H
  C41      1.0000 0.92570  0.33650  0.00000  Biso   1.000  C
  H20      1.0000 0.95360  0.36460  0.00000  Biso   1.000  H
  C42      1.0000 0.89210  0.45600  0.00000  Biso   1.000  C
  H21      1.0000 0.93050  0.44630  0.00000  Biso   1.000  H
  In4      1.0000 0.27548  0.87700  0.00000  Biso   1.000  In
  P4       1.0000 0.20059  0.39524  0.00000  Biso   1.000  P
  C43      1.0000 0.12370  0.48500  0.00000  Biso   1.000  C
  H22      1.0000 0.09570  0.45700  0.00000  Biso   1.000  H
  O32      1.0000 0.14540  0.36090  0.00000  Biso   1.000  O
  O33      1.0000 0.25190  0.78180  0.00000  Biso   1.000  O
  O34      1.0000 0.18470  0.84580  0.00000  Biso   1.000  O
  C44      1.0000 0.17970  0.46990  0.00000  Biso   1.000  C
  C45      1.0000 0.19990  0.79430  0.00000  Biso   1.000  C
  O35      1.0000 0.97900  0.78450  0.00000  Biso   1.000  O
  O36      1.0000 0.96170  0.69330  0.00000  Biso   1.000  O
  C46      1.0000 0.14770  0.58620  0.00000  Biso   1.000  C
  C47      1.0000 0.17140  0.69150  0.00000  Biso   1.000  C
  H23      1.0000 0.20990  0.68220  0.00000  Biso   1.000  H
  C48      1.0000 0.05820  0.72040  0.00000  Biso   1.000  C
  C49      1.0000 0.13200  0.64760  0.00000  Biso   1.000  C
  C50      1.0000 0.09860  0.76260  0.00000  Biso   1.000  C
  H24      1.0000 0.08760  0.80070  0.00000  Biso   1.000  H
  C51      1.0000 0.15620  0.74790  0.00000  Biso   1.000  C
  C52      1.0000 0.20350  0.56920  0.00000  Biso   1.000  C
  H25      1.0000 0.23200  0.59670  0.00000  Biso   1.000  H
  C53      1.0000 0.99630  0.73430  0.00000  Biso   1.000  C
  C54      1.0000 0.21890  0.51130  0.00000  Biso   1.000  C
  H26      1.0000 0.25730  0.50160  0.00000  Biso   1.000  H
  C55      1.0000 0.07430  0.66350  0.00000  Biso   1.000  C
  H27      1.0000 0.04640  0.63540  0.00000  Biso   1.000  H
  C56      1.0000 0.10790  0.54400  0.00000  Biso   1.000  C
  H28      1.0000 0.06950  0.55370  0.00000  Biso   1.000  H
  In5      1.0000 0.37700  0.77548  0.50000  Biso   1.000  In
  P5       1.0000 0.89524  0.70059  0.50000  Biso   1.000  P
  C57      1.0000 0.98500  0.62370  0.50000  Biso   1.000  C
  H29      1.0000 0.95700  0.59570  0.50000  Biso   1.000  H
  O37      1.0000 0.86090  0.64540  0.50000  Biso   1.000  O
  O38      1.0000 0.28180  0.75190  0.50000  Biso   1.000  O
  O39      1.0000 0.34580  0.68470  0.50000  Biso   1.000  O
  C58      1.0000 0.96990  0.67970  0.50000  Biso   1.000  C
  C59      1.0000 0.29430  0.69990  0.50000  Biso   1.000  C
  O40      1.0000 0.28450  0.47900  0.50000  Biso   1.000  O
  O41      1.0000 0.19330  0.46170  0.50000  Biso   1.000  O
  C60      1.0000 0.08620  0.64770  0.50000  Biso   1.000  C
  C61      1.0000 0.19150  0.67140  0.50000  Biso   1.000  C
  H30      1.0000 0.18220  0.70990  0.50000  Biso   1.000  H
  C62      1.0000 0.22040  0.55820  0.50000  Biso   1.000  C
  C63      1.0000 0.14760  0.63200  0.50000  Biso   1.000  C
  C64      1.0000 0.26260  0.59860  0.50000  Biso   1.000  C
  H31      1.0000 0.30070  0.58760  0.50000  Biso   1.000  H
  C65      1.0000 0.24790  0.65620  0.50000  Biso   1.000  C
  C66      1.0000 0.06920  0.70350  0.50000  Biso   1.000  C
  H32      1.0000 0.09670  0.73200  0.50000  Biso   1.000  H
  C67      1.0000 0.23430  0.49630  0.50000  Biso   1.000  C
  C68      1.0000 0.01130  0.71890  0.50000  Biso   1.000  C
  H33      1.0000 0.00160  0.75730  0.50000  Biso   1.000  H
  C69      1.0000 0.16350  0.57430  0.50000  Biso   1.000  C
  H34      1.0000 0.13540  0.54640  0.50000  Biso   1.000  H
  C70      1.0000 0.04400  0.60790  0.50000  Biso   1.000  C
  H35      1.0000 0.05370  0.56950  0.50000  Biso   1.000  H
  In6      1.0000 0.62300  0.22452  0.50000  Biso   1.000  In
  P6       1.0000 0.10476  0.29941  0.50000  Biso   1.000  P
  C71      1.0000 0.01500  0.37630  0.50000  Biso   1.000  C
  H36      1.0000 0.04300  0.40430  0.50000  Biso   1.000  H
  O42      1.0000 0.13910  0.35460  0.50000  Biso   1.000  O
  O43      1.0000 0.71820  0.24810  0.50000  Biso   1.000  O
  O44      1.0000 0.65420  0.31530  0.50000  Biso   1.000  O
  C72      1.0000 0.03010  0.32030  0.50000  Biso   1.000  C
  C73      1.0000 0.70570  0.30010  0.50000  Biso   1.000  C
  O45      1.0000 0.71550  0.52100  0.50000  Biso   1.000  O
  O46      1.0000 0.80670  0.53830  0.50000  Biso   1.000  O
  C74      1.0000 0.91380  0.35230  0.50000  Biso   1.000  C
  C75      1.0000 0.80850  0.32860  0.50000  Biso   1.000  C
  H37      1.0000 0.81780  0.29010  0.50000  Biso   1.000  H
  C76      1.0000 0.77960  0.44180  0.50000  Biso   1.000  C
  C77      1.0000 0.85240  0.36800  0.50000  Biso   1.000  C
  C78      1.0000 0.73740  0.40140  0.50000  Biso   1.000  C
  H38      1.0000 0.69930  0.41240  0.50000  Biso   1.000  H
  C79      1.0000 0.75210  0.34380  0.50000  Biso   1.000  C
  C80      1.0000 0.93080  0.29650  0.50000  Biso   1.000  C
  H39      1.0000 0.90330  0.26800  0.50000  Biso   1.000  H
  C81      1.0000 0.76570  0.50370  0.50000  Biso   1.000  C
  C82      1.0000 0.98870  0.28110  0.50000  Biso   1.000  C
  H40      1.0000 0.99840  0.24270  0.50000  Biso   1.000  H
  C83      1.0000 0.83650  0.42570  0.50000  Biso   1.000  C
  H41      1.0000 0.86460  0.45360  0.50000  Biso   1.000  H
  C84      1.0000 0.95600  0.39210  0.50000  Biso   1.000  C
  H42      1.0000 0.94630  0.43050  0.50000  Biso   1.000  H
  In7      1.0000 0.77548  0.62300  0.50000  Biso   1.000  In
  P7       1.0000 0.70059  0.10476  0.50000  Biso   1.000  P
  C85      1.0000 0.62370  0.01500  0.50000  Biso   1.000  C
  H43      1.0000 0.59570  0.04300  0.50000  Biso   1.000  H
  O47      1.0000 0.64540  0.13910  0.50000  Biso   1.000  O
  O48      1.0000 0.75190  0.71820  0.50000  Biso   1.000  O
  O49      1.0000 0.68470  0.65420  0.50000  Biso   1.000  O
  C86      1.0000 0.67970  0.03010  0.50000  Biso   1.000  C
  C87      1.0000 0.69990  0.70570  0.50000  Biso   1.000  C
  O50      1.0000 0.47900  0.71550  0.50000  Biso   1.000  O
  O51      1.0000 0.46170  0.80670  0.50000  Biso   1.000  O
  C88      1.0000 0.64770  0.91380  0.50000  Biso   1.000  C
  C89      1.0000 0.67140  0.80850  0.50000  Biso   1.000  C
  H44      1.0000 0.70990  0.81780  0.50000  Biso   1.000  H
  C90      1.0000 0.55820  0.77960  0.50000  Biso   1.000  C
  C91      1.0000 0.63200  0.85240  0.50000  Biso   1.000  C
  C92      1.0000 0.59860  0.73740  0.50000  Biso   1.000  C
  H45      1.0000 0.58760  0.69930  0.50000  Biso   1.000  H
  C93      1.0000 0.65620  0.75210  0.50000  Biso   1.000  C
  C94      1.0000 0.70350  0.93080  0.50000  Biso   1.000  C
  H46      1.0000 0.73200  0.90330  0.50000  Biso   1.000  H
  C95      1.0000 0.49630  0.76570  0.50000  Biso   1.000  C
  C96      1.0000 0.71890  0.98870  0.50000  Biso   1.000  C
  H47      1.0000 0.75730  0.99840  0.50000  Biso   1.000  H
  C97      1.0000 0.57430  0.83650  0.50000  Biso   1.000  C
  H48      1.0000 0.54640  0.86460  0.50000  Biso   1.000  H
  C98      1.0000 0.60790  0.95600  0.50000  Biso   1.000  C
  H49      1.0000 0.56950  0.94630  0.50000  Biso   1.000  H
  In8      1.0000 0.22452  0.37700  0.50000  Biso   1.000  In
  P8       1.0000 0.29941  0.89524  0.50000  Biso   1.000  P
  C99      1.0000 0.37630  0.98500  0.50000  Biso   1.000  C
  H50      1.0000 0.40430  0.95700  0.50000  Biso   1.000  H
  O52      1.0000 0.35460  0.86090  0.50000  Biso   1.000  O
  O53      1.0000 0.24810  0.28180  0.50000  Biso   1.000  O
  O54      1.0000 0.31530  0.34580  0.50000  Biso   1.000  O
  C100     1.0000 0.32030  0.96990  0.50000  Biso   1.000  C
  C101     1.0000 0.30010  0.29430  0.50000  Biso   1.000  C
  O55      1.0000 0.52100  0.28450  0.50000  Biso   1.000  O
  O56      1.0000 0.53830  0.19330  0.50000  Biso   1.000  O
  C102     1.0000 0.35230  0.08620  0.50000  Biso   1.000  C
  C103     1.0000 0.32860  0.19150  0.50000  Biso   1.000  C
  H51      1.0000 0.29010  0.18220  0.50000  Biso   1.000  H
  C104     1.0000 0.44180  0.22040  0.50000  Biso   1.000  C
  C105     1.0000 0.36800  0.14760  0.50000  Biso   1.000  C
  C106     1.0000 0.40140  0.26260  0.50000  Biso   1.000  C
  H52      1.0000 0.41240  0.30070  0.50000  Biso   1.000  H
  C107     1.0000 0.34380  0.24790  0.50000  Biso   1.000  C
  C108     1.0000 0.29650  0.06920  0.50000  Biso   1.000  C
  H53      1.0000 0.26800  0.09670  0.50000  Biso   1.000  H
  C109     1.0000 0.50370  0.23430  0.50000  Biso   1.000  C
  C110     1.0000 0.28110  0.01130  0.50000  Biso   1.000  C
  H54      1.0000 0.24270  0.00160  0.50000  Biso   1.000  H
  C111     1.0000 0.42570  0.16350  0.50000  Biso   1.000  C
  H55      1.0000 0.45360  0.13540  0.50000  Biso   1.000  H
  C112     1.0000 0.39210  0.04400  0.50000  Biso   1.000  C
  H56      1.0000 0.43050  0.05370  0.50000  Biso   1.000  H
