data_WUCRUH_clean
_audit_creation_date              2014-07-02
_audit_creation_method            'Materials Studio'
_symmetry_space_group_name_H-M    'P1'
_symmetry_Int_Tables_number       1
_symmetry_cell_setting            triclinic
loop_
_symmetry_equiv_pos_as_xyz
  x,y,z
_cell_length_a                    7.1062
_cell_length_b                    9.7367
_cell_length_c                    9.8590
_cell_angle_alpha                 60.4095
_cell_angle_beta                  84.1515
_cell_angle_gamma                 78.0911
loop_
_atom_site_label
_atom_site_type_symbol
_atom_site_fract_x
_atom_site_fract_y
_atom_site_fract_z
_atom_site_U_iso_or_equiv
_atom_site_adp_type
_atom_site_occupancy
Fe1    Fe    0.43161   0.35685   0.67690   0.01267  Uiso   1.00
Fe2    Fe    0.56839   0.96625   0.67690   0.01267  Uiso   1.00
Fe3    Fe    0.00000   0.33639   0.32722   0.01267  Uiso   1.00
H1     H     0.28410   0.15710   0.09200   0.01267  Uiso   1.00
H2     H     0.25150   0.75380   0.49880   0.01267  Uiso   1.00
H3     H     0.21100   0.75850   0.09340   0.01267  Uiso   1.00
H4     H     0.71590   0.75090   0.09200   0.01267  Uiso   1.00
H5     H     0.74850   0.74740   0.49880   0.01267  Uiso   1.00
H6     H     0.78900   0.14810   0.09340   0.01267  Uiso   1.00
C1     C     0.27430   0.96820   0.30900   0.01267  Uiso   1.00
C2     C     0.21560   0.73180   0.30980   0.01267  Uiso   1.00
C3     C     0.25580   0.96670   0.06780   0.01267  Uiso   1.00
C4     C     0.27330   0.04920   0.14720   0.01267  Uiso   1.00
C5     C     0.28270   0.04380   0.89440   0.01267  Uiso   1.00
C6     C     0.24770   0.80880   0.39040   0.01267  Uiso   1.00
C7     C     0.17680   0.56500   0.39500   0.01267  Uiso   1.00
C8     C     0.32140   0.04510   0.39920   0.01267  Uiso   1.00
C9     C     0.22530   0.81110   0.14800   0.01267  Uiso   1.00
C10    C     0.72570   0.72280   0.30900   0.01267  Uiso   1.00
C11    C     0.78440   0.95840   0.30980   0.01267  Uiso   1.00
C12    C     0.74420   0.96550   0.06780   0.01267  Uiso   1.00
C13    C     0.72670   0.80360   0.14720   0.01267  Uiso   1.00
C14    C     0.71730   0.06180   0.89440   0.01267  Uiso   1.00
C15    C     0.75230   0.80080   0.39040   0.01267  Uiso   1.00
C16    C     0.82320   0.04000   0.39500   0.01267  Uiso   1.00
C17    C     0.67860   0.55570   0.39920   0.01267  Uiso   1.00
C18    C     0.77470   0.04090   0.14800   0.01267  Uiso   1.00
O1     O     0.17460   0.49220   0.54340   0.01267  Uiso   1.00
O2     O     0.39870   0.95200   0.52980   0.01267  Uiso   1.00
O3     O     0.28410   0.19610   0.33900   0.01267  Uiso   1.00
O4     O     0.25780   0.19400   0.81640   0.01267  Uiso   1.00
O5     O     0.14560   0.50570   0.31300   0.01267  Uiso   1.00
O6     O     0.33250   0.95330   0.83560   0.01267  Uiso   1.00
O7     O     0.82540   0.96440   0.54340   0.01267  Uiso   1.00
O8     O     0.60130   0.51820   0.52980   0.01267  Uiso   1.00
O9     O     0.71590   0.46490   0.33900   0.01267  Uiso   1.00
O10    O     0.74220   0.98960   0.81640   0.01267  Uiso   1.00
O11    O     0.85440   0.18130   0.31300   0.01267  Uiso   1.00
O12    O     0.66750   0.21110   0.83560   0.01267  Uiso   1.00
O13    O     0.50000   0.23620   0.52760   0.01267  Uiso   1.00
