data_image0
_cell_length_a       25.2378
_cell_length_b       8.6872
_cell_length_c       18.8139
_cell_angle_alpha    90
_cell_angle_beta     130.447
_cell_angle_gamma    90

_symmetry_space_group_name_H-M    "P 1"
_symmetry_int_tables_number       1

loop_
  _symmetry_equiv_pos_as_xyz
  'x, y, z'

loop_
  _atom_site_label
  _atom_site_occupancy
  _atom_site_fract_x
  _atom_site_fract_y
  _atom_site_fract_z
  _atom_site_thermal_displace_type
  _atom_site_B_iso_or_equiv
  _atom_site_type_symbol
  Co1      1.0000 0.12867  0.20514  0.06328  Biso   1.000  Co
  N1       1.0000 0.18500  0.04400  0.05540  Biso   1.000  N
  O1       1.0000 0.07510  0.34190  0.09070  Biso   1.000  O
  O2       1.0000 0.14910  0.17570  0.19790  Biso   1.000  O
  O3       1.0000 0.05130  0.46140  0.45060  Biso   1.000  O
  O4       1.0000 0.08550  0.69370  0.43960  Biso   1.000  O
  O5       1.0000 0.06310  0.67270  0.10460  Biso   1.000  O
  O6       1.0000 0.14760  0.79490  0.25530  Biso   1.000  O
  O7       1.0000 0.18380  0.58360  0.21060  Biso   1.000  O
  S1       1.0000 0.12754  0.65140  0.20211  Biso   1.000  S
  C1       1.0000 0.11010  0.28720  0.17370  Biso   1.000  C
  C2       1.0000 0.10280  0.36090  0.23900  Biso   1.000  C
  C3       1.0000 0.10710  0.51850  0.25370  Biso   1.000  C
  C4       1.0000 0.09800  0.57920  0.31350  Biso   1.000  C
  H1       1.0000 0.10150  0.68490  0.32370  Biso   1.000  H
  C5       1.0000 0.08370  0.48270  0.35840  Biso   1.000  C
  C6       1.0000 0.08000  0.32560  0.34390  Biso   1.000  C
  H2       1.0000 0.07040  0.26040  0.37350  Biso   1.000  H
  C7       1.0000 0.09040  0.26400  0.28610  Biso   1.000  C
  H3       1.0000 0.08910  0.15790  0.27850  Biso   1.000  H
  C8       1.0000 0.07220  0.55190  0.42070  Biso   1.000  C
  C9       1.0000 0.20110  0.06870  0.00060  Biso   1.000  C
  H4       1.0000 0.19360  0.16680  0.97570  Biso   1.000  H
  C10      1.0000 0.22720  0.96170  0.97960  Biso   1.000  C
  H5       1.0000 0.23850  0.98730  0.94280  Biso   1.000  H
  C11      1.0000 0.23730  0.81230  0.01270  Biso   1.000  C
  C12      1.0000 0.22180  0.78760  0.07050  Biso   1.000  C
  H6       1.0000 0.22840  0.69030  0.09570  Biso   1.000  H
  C13      1.0000 0.19730  0.90320  0.09060  Biso   1.000  C
  H7       1.0000 0.18860  0.88300  0.13090  Biso   1.000  H
  Co2      1.0000 0.62867  0.70514  0.06328  Biso   1.000  Co
  N2       1.0000 0.68500  0.54400  0.05540  Biso   1.000  N
  O8       1.0000 0.57510  0.84190  0.09070  Biso   1.000  O
  O9       1.0000 0.64910  0.67570  0.19790  Biso   1.000  O
  O10      1.0000 0.55130  0.96140  0.45060  Biso   1.000  O
  O11      1.0000 0.58550  0.19370  0.43960  Biso   1.000  O
  O12      1.0000 0.56310  0.17270  0.10460  Biso   1.000  O
  O13      1.0000 0.64760  0.29490  0.25530  Biso   1.000  O
  O14      1.0000 0.68380  0.08360  0.21060  Biso   1.000  O
  S2       1.0000 0.62754  0.15140  0.20211  Biso   1.000  S
  C14      1.0000 0.61010  0.78720  0.17370  Biso   1.000  C
  C15      1.0000 0.60280  0.86090  0.23900  Biso   1.000  C
  C16      1.0000 0.60710  0.01850  0.25370  Biso   1.000  C
  C17      1.0000 0.59800  0.07920  0.31350  Biso   1.000  C
  H8       1.0000 0.60150  0.18490  0.32370  Biso   1.000  H
  C18      1.0000 0.58370  0.98270  0.35840  Biso   1.000  C
  C19      1.0000 0.58000  0.82560  0.34390  Biso   1.000  C
  H9       1.0000 0.57040  0.76040  0.37350  Biso   1.000  H
  C20      1.0000 0.59040  0.76400  0.28610  Biso   1.000  C
  H10      1.0000 0.58910  0.65790  0.27850  Biso   1.000  H
  C21      1.0000 0.57220  0.05190  0.42070  Biso   1.000  C
  C22      1.0000 0.70110  0.56870  0.00060  Biso   1.000  C
  H11      1.0000 0.69360  0.66680  0.97570  Biso   1.000  H
  C23      1.0000 0.72720  0.46170  0.97960  Biso   1.000  C
  H12      1.0000 0.73850  0.48730  0.94280  Biso   1.000  H
  C24      1.0000 0.73730  0.31230  0.01270  Biso   1.000  C
  C25      1.0000 0.72180  0.28760  0.07050  Biso   1.000  C
  H13      1.0000 0.72840  0.19030  0.09570  Biso   1.000  H
  C26      1.0000 0.69730  0.40320  0.09060  Biso   1.000  C
  H14      1.0000 0.68860  0.38300  0.13090  Biso   1.000  H
  Co3      1.0000 0.87133  0.20514  0.43672  Biso   1.000  Co
  N3       1.0000 0.81500  0.04400  0.44460  Biso   1.000  N
  O15      1.0000 0.92490  0.34190  0.40930  Biso   1.000  O
  O16      1.0000 0.85090  0.17570  0.30210  Biso   1.000  O
  O17      1.0000 0.94870  0.46140  0.04940  Biso   1.000  O
  O18      1.0000 0.91450  0.69370  0.06040  Biso   1.000  O
  O19      1.0000 0.93690  0.67270  0.39540  Biso   1.000  O
  O20      1.0000 0.85240  0.79490  0.24470  Biso   1.000  O
  O21      1.0000 0.81620  0.58360  0.28940  Biso   1.000  O
  S3       1.0000 0.87246  0.65140  0.29789  Biso   1.000  S
  C27      1.0000 0.88990  0.28720  0.32630  Biso   1.000  C
  C28      1.0000 0.89720  0.36090  0.26100  Biso   1.000  C
  C29      1.0000 0.89290  0.51850  0.24630  Biso   1.000  C
  C30      1.0000 0.90200  0.57920  0.18650  Biso   1.000  C
  H15      1.0000 0.89850  0.68490  0.17630  Biso   1.000  H
  C31      1.0000 0.91630  0.48270  0.14160  Biso   1.000  C
  C32      1.0000 0.92000  0.32560  0.15610  Biso   1.000  C
  H16      1.0000 0.92960  0.26040  0.12650  Biso   1.000  H
  C33      1.0000 0.90960  0.26400  0.21390  Biso   1.000  C
  H17      1.0000 0.91090  0.15790  0.22150  Biso   1.000  H
  C34      1.0000 0.92780  0.55190  0.07930  Biso   1.000  C
  C35      1.0000 0.79890  0.06870  0.49940  Biso   1.000  C
  H18      1.0000 0.80640  0.16680  0.52430  Biso   1.000  H
  C36      1.0000 0.77280  0.96170  0.52040  Biso   1.000  C
  H19      1.0000 0.76150  0.98730  0.55720  Biso   1.000  H
  C37      1.0000 0.76270  0.81230  0.48730  Biso   1.000  C
  C38      1.0000 0.77820  0.78760  0.42950  Biso   1.000  C
  H20      1.0000 0.77160  0.69030  0.40430  Biso   1.000  H
  C39      1.0000 0.80270  0.90320  0.40940  Biso   1.000  C
  H21      1.0000 0.81140  0.88300  0.36910  Biso   1.000  H
  Co4      1.0000 0.37133  0.70514  0.43672  Biso   1.000  Co
  N4       1.0000 0.31500  0.54400  0.44460  Biso   1.000  N
  O22      1.0000 0.42490  0.84190  0.40930  Biso   1.000  O
  O23      1.0000 0.35090  0.67570  0.30210  Biso   1.000  O
  O24      1.0000 0.44870  0.96140  0.04940  Biso   1.000  O
  O25      1.0000 0.41450  0.19370  0.06040  Biso   1.000  O
  O26      1.0000 0.43690  0.17270  0.39540  Biso   1.000  O
  O27      1.0000 0.35240  0.29490  0.24470  Biso   1.000  O
  O28      1.0000 0.31620  0.08360  0.28940  Biso   1.000  O
  S4       1.0000 0.37246  0.15140  0.29789  Biso   1.000  S
  C40      1.0000 0.38990  0.78720  0.32630  Biso   1.000  C
  C41      1.0000 0.39720  0.86090  0.26100  Biso   1.000  C
  C42      1.0000 0.39290  0.01850  0.24630  Biso   1.000  C
  C43      1.0000 0.40200  0.07920  0.18650  Biso   1.000  C
  H22      1.0000 0.39850  0.18490  0.17630  Biso   1.000  H
  C44      1.0000 0.41630  0.98270  0.14160  Biso   1.000  C
  C45      1.0000 0.42000  0.82560  0.15610  Biso   1.000  C
  H23      1.0000 0.42960  0.76040  0.12650  Biso   1.000  H
  C46      1.0000 0.40960  0.76400  0.21390  Biso   1.000  C
  H24      1.0000 0.41090  0.65790  0.22150  Biso   1.000  H
  C47      1.0000 0.42780  0.05190  0.07930  Biso   1.000  C
  C48      1.0000 0.29890  0.56870  0.49940  Biso   1.000  C
  H25      1.0000 0.30640  0.66680  0.52430  Biso   1.000  H
  C49      1.0000 0.27280  0.46170  0.52040  Biso   1.000  C
  H26      1.0000 0.26150  0.48730  0.55720  Biso   1.000  H
  C50      1.0000 0.26270  0.31230  0.48730  Biso   1.000  C
  C51      1.0000 0.27820  0.28760  0.42950  Biso   1.000  C
  H27      1.0000 0.27160  0.19030  0.40430  Biso   1.000  H
  C52      1.0000 0.30270  0.40320  0.40940  Biso   1.000  C
  H28      1.0000 0.31140  0.38300  0.36910  Biso   1.000  H
  Co5      1.0000 0.87133  0.79486  0.93672  Biso   1.000  Co
  N5       1.0000 0.81500  0.95600  0.94460  Biso   1.000  N
  O29      1.0000 0.92490  0.65810  0.90930  Biso   1.000  O
  O30      1.0000 0.85090  0.82430  0.80210  Biso   1.000  O
  O31      1.0000 0.94870  0.53860  0.54940  Biso   1.000  O
  O32      1.0000 0.91450  0.30630  0.56040  Biso   1.000  O
  O33      1.0000 0.93690  0.32730  0.89540  Biso   1.000  O
  O34      1.0000 0.85240  0.20510  0.74470  Biso   1.000  O
  O35      1.0000 0.81620  0.41640  0.78940  Biso   1.000  O
  S5       1.0000 0.87246  0.34860  0.79789  Biso   1.000  S
  C53      1.0000 0.88990  0.71280  0.82630  Biso   1.000  C
  C54      1.0000 0.89720  0.63910  0.76100  Biso   1.000  C
  C55      1.0000 0.89290  0.48150  0.74630  Biso   1.000  C
  C56      1.0000 0.90200  0.42080  0.68650  Biso   1.000  C
  H29      1.0000 0.89850  0.31510  0.67630  Biso   1.000  H
  C57      1.0000 0.91630  0.51730  0.64160  Biso   1.000  C
  C58      1.0000 0.92000  0.67440  0.65610  Biso   1.000  C
  H30      1.0000 0.92960  0.73960  0.62650  Biso   1.000  H
  C59      1.0000 0.90960  0.73600  0.71390  Biso   1.000  C
  H31      1.0000 0.91090  0.84210  0.72150  Biso   1.000  H
  C60      1.0000 0.92780  0.44810  0.57930  Biso   1.000  C
  C61      1.0000 0.79890  0.93130  0.99940  Biso   1.000  C
  H32      1.0000 0.80640  0.83320  0.02430  Biso   1.000  H
  C62      1.0000 0.77280  0.03830  0.02040  Biso   1.000  C
  H33      1.0000 0.76150  0.01270  0.05720  Biso   1.000  H
  C63      1.0000 0.76270  0.18770  0.98730  Biso   1.000  C
  C64      1.0000 0.77820  0.21240  0.92950  Biso   1.000  C
  H34      1.0000 0.77160  0.30970  0.90430  Biso   1.000  H
  C65      1.0000 0.80270  0.09680  0.90940  Biso   1.000  C
  H35      1.0000 0.81140  0.11700  0.86910  Biso   1.000  H
  Co6      1.0000 0.37133  0.29486  0.93672  Biso   1.000  Co
  N6       1.0000 0.31500  0.45600  0.94460  Biso   1.000  N
  O36      1.0000 0.42490  0.15810  0.90930  Biso   1.000  O
  O37      1.0000 0.35090  0.32430  0.80210  Biso   1.000  O
  O38      1.0000 0.44870  0.03860  0.54940  Biso   1.000  O
  O39      1.0000 0.41450  0.80630  0.56040  Biso   1.000  O
  O40      1.0000 0.43690  0.82730  0.89540  Biso   1.000  O
  O41      1.0000 0.35240  0.70510  0.74470  Biso   1.000  O
  O42      1.0000 0.31620  0.91640  0.78940  Biso   1.000  O
  S6       1.0000 0.37246  0.84860  0.79789  Biso   1.000  S
  C66      1.0000 0.38990  0.21280  0.82630  Biso   1.000  C
  C67      1.0000 0.39720  0.13910  0.76100  Biso   1.000  C
  C68      1.0000 0.39290  0.98150  0.74630  Biso   1.000  C
  C69      1.0000 0.40200  0.92080  0.68650  Biso   1.000  C
  H36      1.0000 0.39850  0.81510  0.67630  Biso   1.000  H
  C70      1.0000 0.41630  0.01730  0.64160  Biso   1.000  C
  C71      1.0000 0.42000  0.17440  0.65610  Biso   1.000  C
  H37      1.0000 0.42960  0.23960  0.62650  Biso   1.000  H
  C72      1.0000 0.40960  0.23600  0.71390  Biso   1.000  C
  H38      1.0000 0.41090  0.34210  0.72150  Biso   1.000  H
  C73      1.0000 0.42780  0.94810  0.57930  Biso   1.000  C
  C74      1.0000 0.29890  0.43130  0.99940  Biso   1.000  C
  H39      1.0000 0.30640  0.33320  0.02430  Biso   1.000  H
  C75      1.0000 0.27280  0.53830  0.02040  Biso   1.000  C
  H40      1.0000 0.26150  0.51270  0.05720  Biso   1.000  H
  C76      1.0000 0.26270  0.68770  0.98730  Biso   1.000  C
  C77      1.0000 0.27820  0.71240  0.92950  Biso   1.000  C
  H41      1.0000 0.27160  0.80970  0.90430  Biso   1.000  H
  C78      1.0000 0.30270  0.59680  0.90940  Biso   1.000  C
  H42      1.0000 0.31140  0.61700  0.86910  Biso   1.000  H
  Co7      1.0000 0.12867  0.79486  0.56328  Biso   1.000  Co
  N7       1.0000 0.18500  0.95600  0.55540  Biso   1.000  N
  O43      1.0000 0.07510  0.65810  0.59070  Biso   1.000  O
  O44      1.0000 0.14910  0.82430  0.69790  Biso   1.000  O
  O45      1.0000 0.05130  0.53860  0.95060  Biso   1.000  O
  O46      1.0000 0.08550  0.30630  0.93960  Biso   1.000  O
  O47      1.0000 0.06310  0.32730  0.60460  Biso   1.000  O
  O48      1.0000 0.14760  0.20510  0.75530  Biso   1.000  O
  O49      1.0000 0.18380  0.41640  0.71060  Biso   1.000  O
  S7       1.0000 0.12754  0.34860  0.70211  Biso   1.000  S
  C79      1.0000 0.11010  0.71280  0.67370  Biso   1.000  C
  C80      1.0000 0.10280  0.63910  0.73900  Biso   1.000  C
  C81      1.0000 0.10710  0.48150  0.75370  Biso   1.000  C
  C82      1.0000 0.09800  0.42080  0.81350  Biso   1.000  C
  H43      1.0000 0.10150  0.31510  0.82370  Biso   1.000  H
  C83      1.0000 0.08370  0.51730  0.85840  Biso   1.000  C
  C84      1.0000 0.08000  0.67440  0.84390  Biso   1.000  C
  H44      1.0000 0.07040  0.73960  0.87350  Biso   1.000  H
  C85      1.0000 0.09040  0.73600  0.78610  Biso   1.000  C
  H45      1.0000 0.08910  0.84210  0.77850  Biso   1.000  H
  C86      1.0000 0.07220  0.44810  0.92070  Biso   1.000  C
  C87      1.0000 0.20110  0.93130  0.50060  Biso   1.000  C
  H46      1.0000 0.19360  0.83320  0.47570  Biso   1.000  H
  C88      1.0000 0.22720  0.03830  0.47960  Biso   1.000  C
  H47      1.0000 0.23850  0.01270  0.44280  Biso   1.000  H
  C89      1.0000 0.23730  0.18770  0.51270  Biso   1.000  C
  C90      1.0000 0.22180  0.21240  0.57050  Biso   1.000  C
  H48      1.0000 0.22840  0.30970  0.59570  Biso   1.000  H
  C91      1.0000 0.19730  0.09680  0.59060  Biso   1.000  C
  H49      1.0000 0.18860  0.11700  0.63090  Biso   1.000  H
  Co8      1.0000 0.62867  0.29486  0.56328  Biso   1.000  Co
  N8       1.0000 0.68500  0.45600  0.55540  Biso   1.000  N
  O50      1.0000 0.57510  0.15810  0.59070  Biso   1.000  O
  O51      1.0000 0.64910  0.32430  0.69790  Biso   1.000  O
  O52      1.0000 0.55130  0.03860  0.95060  Biso   1.000  O
  O53      1.0000 0.58550  0.80630  0.93960  Biso   1.000  O
  O54      1.0000 0.56310  0.82730  0.60460  Biso   1.000  O
  O55      1.0000 0.64760  0.70510  0.75530  Biso   1.000  O
  O56      1.0000 0.68380  0.91640  0.71060  Biso   1.000  O
  S8       1.0000 0.62754  0.84860  0.70211  Biso   1.000  S
  C92      1.0000 0.61010  0.21280  0.67370  Biso   1.000  C
  C93      1.0000 0.60280  0.13910  0.73900  Biso   1.000  C
  C94      1.0000 0.60710  0.98150  0.75370  Biso   1.000  C
  C95      1.0000 0.59800  0.92080  0.81350  Biso   1.000  C
  H50      1.0000 0.60150  0.81510  0.82370  Biso   1.000  H
  C96      1.0000 0.58370  0.01730  0.85840  Biso   1.000  C
  C97      1.0000 0.58000  0.17440  0.84390  Biso   1.000  C
  H51      1.0000 0.57040  0.23960  0.87350  Biso   1.000  H
  C98      1.0000 0.59040  0.23600  0.78610  Biso   1.000  C
  H52      1.0000 0.58910  0.34210  0.77850  Biso   1.000  H
  C99      1.0000 0.57220  0.94810  0.92070  Biso   1.000  C
  C100     1.0000 0.70110  0.43130  0.50060  Biso   1.000  C
  H53      1.0000 0.69360  0.33320  0.47570  Biso   1.000  H
  C101     1.0000 0.72720  0.53830  0.47960  Biso   1.000  C
  H54      1.0000 0.73850  0.51270  0.44280  Biso   1.000  H
  C102     1.0000 0.73730  0.68770  0.51270  Biso   1.000  C
  C103     1.0000 0.72180  0.71240  0.57050  Biso   1.000  C
  H55      1.0000 0.72840  0.80970  0.59570  Biso   1.000  H
  C104     1.0000 0.69730  0.59680  0.59060  Biso   1.000  C
  H56      1.0000 0.68860  0.61700  0.63090  Biso   1.000  H
  Co9      1.0000 0.00000  0.50000  0.00000  Biso   1.000  Co
  Co10     1.0000 0.50000  0.00000  0.00000  Biso   1.000  Co
  Co11     1.0000 0.00000  0.50000  0.50000  Biso   1.000  Co
  Co12     1.0000 0.50000  0.00000  0.50000  Biso   1.000  Co
