data_WUDNAK_clean
_audit_creation_date              2014-07-02
_audit_creation_method            'Materials Studio'
_symmetry_space_group_name_H-M    'P1'
_symmetry_Int_Tables_number       1
_symmetry_cell_setting            triclinic
loop_
_symmetry_equiv_pos_as_xyz
  x,y,z
_cell_length_a                    10.8500
_cell_length_b                    11.5340
_cell_length_c                    13.6080
_cell_angle_alpha                 66.1700
_cell_angle_beta                  81.4000
_cell_angle_gamma                 63.1500
loop_
_atom_site_label
_atom_site_type_symbol
_atom_site_fract_x
_atom_site_fract_y
_atom_site_fract_z
_atom_site_U_iso_or_equiv
_atom_site_adp_type
_atom_site_occupancy
Co1    Co    0.44208   0.07515   0.79178   0.01267  Uiso   1.00
Co2    Co    0.55792   0.92485   0.20822   0.01267  Uiso   1.00
Co3    Co    0.00000   0.00000   0.00000   0.01267  Uiso   1.00
H1     H     0.15990   0.31070   0.78720   0.01267  Uiso   1.00
H2     H     0.96830   0.46610   0.67480   0.01267  Uiso   1.00
H3     H     0.20310   0.40440   0.42980   0.01267  Uiso   1.00
H4     H     0.38500   0.24860   0.54900   0.01267  Uiso   1.00
H5     H     0.82500   0.33050   0.91270   0.01267  Uiso   1.00
H6     H     0.82200   0.52830   0.91330   0.01267  Uiso   1.00
H7     H     0.18500   0.29240   0.07540   0.01267  Uiso   1.00
H8     H     0.17910   0.10120   0.06940   0.01267  Uiso   1.00
H9     H     0.85580   0.08380   0.19350   0.01267  Uiso   1.00
H10    H     0.87320   0.01040   0.37510   0.01267  Uiso   1.00
H11    H     0.22350   0.67880   0.37620   0.01267  Uiso   1.00
H12    H     0.19610   0.76290   0.19370   0.01267  Uiso   1.00
H13    H     0.90060   0.78070   0.73320   0.01267  Uiso   1.00
H14    H     0.86740   0.87020   0.55050   0.01267  Uiso   1.00
H15    H     0.27710   0.67870   0.53140   0.01267  Uiso   1.00
H16    H     0.29340   0.59660   0.71520   0.01267  Uiso   1.00
H17    H     0.54400   0.66380   0.87010   0.01267  Uiso   1.00
H18    H     0.38360   0.71910   0.87220   0.01267  Uiso   1.00
H19    H     0.58930   0.61530   0.05140   0.01267  Uiso   1.00
H20    H     0.43460   0.64150   0.07190   0.01267  Uiso   1.00
H21    H     0.56240   0.87630   0.97200   0.01267  Uiso   1.00
H22    H     0.84010   0.68930   0.21280   0.01267  Uiso   1.00
H23    H     0.03170   0.53390   0.32520   0.01267  Uiso   1.00
H24    H     0.79690   0.59560   0.57020   0.01267  Uiso   1.00
H25    H     0.61500   0.75140   0.45100   0.01267  Uiso   1.00
H26    H     0.17500   0.66950   0.08730   0.01267  Uiso   1.00
H27    H     0.17800   0.47170   0.08670   0.01267  Uiso   1.00
H28    H     0.81500   0.70760   0.92460   0.01267  Uiso   1.00
H29    H     0.82090   0.89880   0.93060   0.01267  Uiso   1.00
H30    H     0.14420   0.91620   0.80650   0.01267  Uiso   1.00
H31    H     0.12680   0.98960   0.62490   0.01267  Uiso   1.00
H32    H     0.77650   0.32120   0.62380   0.01267  Uiso   1.00
H33    H     0.80390   0.23710   0.80630   0.01267  Uiso   1.00
H34    H     0.09940   0.21930   0.26680   0.01267  Uiso   1.00
H35    H     0.13260   0.12980   0.44950   0.01267  Uiso   1.00
H36    H     0.72290   0.32130   0.46860   0.01267  Uiso   1.00
H37    H     0.70660   0.40340   0.28480   0.01267  Uiso   1.00
H38    H     0.45600   0.33620   0.12990   0.01267  Uiso   1.00
H39    H     0.61640   0.28090   0.12780   0.01267  Uiso   1.00
H40    H     0.41070   0.38470   0.94860   0.01267  Uiso   1.00
H41    H     0.56540   0.35850   0.92810   0.01267  Uiso   1.00
H42    H     0.43760   0.12370   0.02800   0.01267  Uiso   1.00
C1     C     0.16830   0.32770   0.71430   0.01267  Uiso   1.00
C2     C     0.05220   0.42230   0.64670   0.01267  Uiso   1.00
C3     C     0.06120   0.45160   0.53770   0.01267  Uiso   1.00
C4     C     0.19010   0.38560   0.50280   0.01267  Uiso   1.00
C5     C     0.29940   0.29230   0.57510   0.01267  Uiso   1.00
C6     C     0.89870   0.32220   0.94640   0.01267  Uiso   1.00
C7     C     0.89600   0.44200   0.94700   0.01267  Uiso   1.00
C8     C     0.00190   0.43620   0.99700   0.01267  Uiso   1.00
C9     C     0.10930   0.30360   0.04200   0.01267  Uiso   1.00
C10    C     0.10510   0.18830   0.03790   0.01267  Uiso   1.00
C11    C     0.93070   0.00050   0.23070   0.01267  Uiso   1.00
C12    C     0.94100   0.95740   0.34020   0.01267  Uiso   1.00
C13    C     0.05230   0.83500   0.39920   0.01267  Uiso   1.00
C14    C     0.14730   0.76220   0.34110   0.01267  Uiso   1.00
C15    C     0.12920   0.81310   0.23090   0.01267  Uiso   1.00
C16    C     0.97800   0.75970   0.69190   0.01267  Uiso   1.00
C17    C     0.95640   0.81380   0.58150   0.01267  Uiso   1.00
C18    C     0.06910   0.78270   0.51830   0.01267  Uiso   1.00
C19    C     0.19750   0.70110   0.57030   0.01267  Uiso   1.00
C20    C     0.20590   0.65290   0.68170   0.01267  Uiso   1.00
C21    C     0.44560   0.84290   0.73870   0.01267  Uiso   1.00
C22    C     0.45780   0.74800   0.85830   0.01267  Uiso   1.00
C23    C     0.45400   0.80550   0.94310   0.01267  Uiso   1.00
C24    C     0.49710   0.68570   0.05410   0.01267  Uiso   1.00
C25    C     0.49600   0.73570   0.14280   0.01267  Uiso   1.00
C26    C     0.30750   0.92160   0.94360   0.01267  Uiso   1.00
C27    C     0.83170   0.67230   0.28570   0.01267  Uiso   1.00
C28    C     0.94780   0.57770   0.35330   0.01267  Uiso   1.00
C29    C     0.93880   0.54840   0.46230   0.01267  Uiso   1.00
C30    C     0.80990   0.61440   0.49720   0.01267  Uiso   1.00
C31    C     0.70060   0.70770   0.42490   0.01267  Uiso   1.00
C32    C     0.10130   0.67780   0.05360   0.01267  Uiso   1.00
C33    C     0.10400   0.55800   0.05300   0.01267  Uiso   1.00
C34    C     0.99810   0.56380   0.00300   0.01267  Uiso   1.00
C35    C     0.89070   0.69640   0.95800   0.01267  Uiso   1.00
C36    C     0.89490   0.81170   0.96210   0.01267  Uiso   1.00
C37    C     0.06930   0.99950   0.76930   0.01267  Uiso   1.00
C38    C     0.05900   0.04260   0.65980   0.01267  Uiso   1.00
C39    C     0.94770   0.16500   0.60080   0.01267  Uiso   1.00
C40    C     0.85270   0.23780   0.65890   0.01267  Uiso   1.00
C41    C     0.87080   0.18690   0.76910   0.01267  Uiso   1.00
C42    C     0.02200   0.24030   0.30810   0.01267  Uiso   1.00
C43    C     0.04360   0.18620   0.41850   0.01267  Uiso   1.00
C44    C     0.93090   0.21730   0.48170   0.01267  Uiso   1.00
C45    C     0.80250   0.29890   0.42970   0.01267  Uiso   1.00
C46    C     0.79410   0.34710   0.31830   0.01267  Uiso   1.00
C47    C     0.55440   0.15710   0.26130   0.01267  Uiso   1.00
C48    C     0.54220   0.25200   0.14170   0.01267  Uiso   1.00
C49    C     0.54600   0.19450   0.05690   0.01267  Uiso   1.00
C50    C     0.50290   0.31430   0.94590   0.01267  Uiso   1.00
C51    C     0.50400   0.26430   0.85720   0.01267  Uiso   1.00
C52    C     0.69250   0.07840   0.05640   0.01267  Uiso   1.00
N1     N     0.29020   0.26030   0.68090   0.01267  Uiso   1.00
N2     N     0.00240   0.19320   0.99210   0.01267  Uiso   1.00
N3     N     0.02200   0.92970   0.17460   0.01267  Uiso   1.00
N4     N     0.10030   0.68030   0.74320   0.01267  Uiso   1.00
N5     N     0.70980   0.73970   0.31910   0.01267  Uiso   1.00
N6     N     0.99760   0.80680   0.00790   0.01267  Uiso   1.00
N7     N     0.97800   0.07030   0.82540   0.01267  Uiso   1.00
N8     N     0.89970   0.31970   0.25680   0.01267  Uiso   1.00
O1     O     0.43870   0.96280   0.70871   0.01267  Uiso   1.00
O2     O     0.44450   0.78970   0.67600   0.01267  Uiso   1.00
O3     O     0.55070   0.86560   0.91360   0.01267  Uiso   1.00
O4     O     0.21860   0.88380   0.99821   0.01267  Uiso   1.00
O5     O     0.28630   0.04550   0.88870   0.01267  Uiso   1.00
O6     O     0.46430   0.67770   0.23500   0.01267  Uiso   1.00
O7     O     0.52930   0.83670   0.11345   0.01267  Uiso   1.00
O8     O     0.56130   0.03720   0.29129   0.01267  Uiso   1.00
O9     O     0.55550   0.21030   0.32400   0.01267  Uiso   1.00
O10    O     0.44930   0.13440   0.08640   0.01267  Uiso   1.00
O11    O     0.78140   0.11620   0.00179   0.01267  Uiso   1.00
O12    O     0.71370   0.95450   0.11130   0.01267  Uiso   1.00
O13    O     0.53570   0.32230   0.76500   0.01267  Uiso   1.00
O14    O     0.47070   0.16330   0.88655   0.01267  Uiso   1.00
