data_image0
_cell_length_a       8.3567
_cell_length_b       9.0434
_cell_length_c       12.055
_cell_angle_alpha    90
_cell_angle_beta     90
_cell_angle_gamma    90

_symmetry_space_group_name_H-M    "P 1"
_symmetry_int_tables_number       1

loop_
  _symmetry_equiv_pos_as_xyz
  'x, y, z'

loop_
  _atom_site_label
  _atom_site_occupancy
  _atom_site_fract_x
  _atom_site_fract_y
  _atom_site_fract_z
  _atom_site_thermal_displace_type
  _atom_site_B_iso_or_equiv
  _atom_site_type_symbol
  Ni1      1.0000 0.12879  0.81024  0.68074  Biso   1.000  Ni
  O1       1.0000 0.05948  0.59132  0.69370  Biso   1.000  O
  N1       1.0000 0.38051  0.58384  0.61242  Biso   1.000  N
  N2       1.0000 0.34219  0.73128  0.60980  Biso   1.000  N
  C1       1.0000 0.14210  0.47855  0.71404  Biso   1.000  C
  C2       1.0000 0.32410  0.48180  0.69830  Biso   1.000  C
  H1       1.0000 0.37330  0.50900  0.76830  Biso   1.000  H
  H2       1.0000 0.36010  0.38290  0.67980  Biso   1.000  H
  C3       1.0000 0.48200  0.55480  0.53035  Biso   1.000  C
  H3       1.0000 0.52500  0.46210  0.51520  Biso   1.000  H
  N3       1.0000 0.51345  0.67692  0.47305  Biso   1.000  N
  O2       1.0000 0.09179  0.35828  0.75230  Biso   1.000  O
  C4       1.0000 0.42480  0.78168  0.52402  Biso   1.000  C
  H4       1.0000 0.42200  0.87980  0.50110  Biso   1.000  H
  Ni2      1.0000 0.37121  0.18976  0.18074  Biso   1.000  Ni
  O3       1.0000 0.44052  0.40868  0.19370  Biso   1.000  O
  N4       1.0000 0.11949  0.41616  0.11242  Biso   1.000  N
  N5       1.0000 0.15781  0.26872  0.10980  Biso   1.000  N
  C5       1.0000 0.35790  0.52145  0.21404  Biso   1.000  C
  C6       1.0000 0.17590  0.51820  0.19830  Biso   1.000  C
  H5       1.0000 0.12670  0.49100  0.26830  Biso   1.000  H
  H6       1.0000 0.13990  0.61710  0.17980  Biso   1.000  H
  C7       1.0000 0.01800  0.44520  0.03035  Biso   1.000  C
  H7       1.0000 0.97500  0.53790  0.01520  Biso   1.000  H
  N6       1.0000 0.98655  0.32308  0.97305  Biso   1.000  N
  O4       1.0000 0.40821  0.64172  0.25230  Biso   1.000  O
  C8       1.0000 0.07520  0.21832  0.02402  Biso   1.000  C
  H8       1.0000 0.07800  0.12020  0.00110  Biso   1.000  H
  Ni3      1.0000 0.87121  0.31024  0.81926  Biso   1.000  Ni
  O5       1.0000 0.94052  0.09132  0.80630  Biso   1.000  O
  N7       1.0000 0.61949  0.08384  0.88758  Biso   1.000  N
  N8       1.0000 0.65781  0.23128  0.89020  Biso   1.000  N
  C9       1.0000 0.85790  0.97855  0.78596  Biso   1.000  C
  C10      1.0000 0.67590  0.98180  0.80170  Biso   1.000  C
  H9       1.0000 0.62670  0.00900  0.73170  Biso   1.000  H
  H10      1.0000 0.63990  0.88290  0.82020  Biso   1.000  H
  C11      1.0000 0.51800  0.05480  0.96965  Biso   1.000  C
  H11      1.0000 0.47500  0.96210  0.98480  Biso   1.000  H
  N9       1.0000 0.48655  0.17692  0.02695  Biso   1.000  N
  O6       1.0000 0.90821  0.85828  0.74770  Biso   1.000  O
  C12      1.0000 0.57520  0.28168  0.97598  Biso   1.000  C
  H12      1.0000 0.57800  0.37980  0.99890  Biso   1.000  H
  Ni4      1.0000 0.62879  0.68976  0.31926  Biso   1.000  Ni
  O7       1.0000 0.55948  0.90868  0.30630  Biso   1.000  O
  N10      1.0000 0.88051  0.91616  0.38758  Biso   1.000  N
  N11      1.0000 0.84219  0.76872  0.39020  Biso   1.000  N
  C13      1.0000 0.64210  0.02145  0.28596  Biso   1.000  C
  C14      1.0000 0.82410  0.01820  0.30170  Biso   1.000  C
  H13      1.0000 0.87330  0.99100  0.23170  Biso   1.000  H
  H14      1.0000 0.86010  0.11710  0.32020  Biso   1.000  H
  C15      1.0000 0.98200  0.94520  0.46965  Biso   1.000  C
  H15      1.0000 0.02500  0.03790  0.48480  Biso   1.000  H
  N12      1.0000 0.01345  0.82308  0.52695  Biso   1.000  N
  O8       1.0000 0.59179  0.14172  0.24770  Biso   1.000  O
  C16      1.0000 0.92480  0.71832  0.47598  Biso   1.000  C
  H16      1.0000 0.92200  0.62020  0.49890  Biso   1.000  H
