data_image0
_cell_length_a       9.8401
_cell_length_b       10.0517
_cell_length_c       18.0642
_cell_angle_alpha    90.221
_cell_angle_beta     93.857
_cell_angle_gamma    113.891

_symmetry_space_group_name_H-M    "P 1"
_symmetry_int_tables_number       1

loop_
  _symmetry_equiv_pos_as_xyz
  'x, y, z'

loop_
  _atom_site_label
  _atom_site_occupancy
  _atom_site_fract_x
  _atom_site_fract_y
  _atom_site_fract_z
  _atom_site_thermal_displace_type
  _atom_site_B_iso_or_equiv
  _atom_site_type_symbol
  Ce1      1.0000 0.50731  0.27658  0.49638  Biso   1.000  Ce
  O1       1.0000 0.57370  0.16180  0.60313  Biso   1.000  O
  O2       1.0000 0.43640  0.41250  0.58596  Biso   1.000  O
  O3       1.0000 0.55810  0.93910  0.58213  Biso   1.000  O
  O4       1.0000 0.38480  0.59930  0.61815  Biso   1.000  O
  O5       1.0000 0.30240  0.30950  0.42133  Biso   1.000  O
  O6       1.0000 0.26790  0.50900  0.45344  Biso   1.000  O
  C1       1.0000 0.39990  0.48390  0.63270  Biso   1.000  C
  C2       1.0000 0.88020  0.12500  0.96540  Biso   1.000  C
  C3       1.0000 0.73500  0.00100  0.93640  Biso   1.000  C
  H1       1.0000 0.74690  0.91020  0.94100  Biso   1.000  H
  H2       1.0000 0.65720  0.99690  0.96780  Biso   1.000  H
  C4       1.0000 0.07750  0.42280  0.18540  Biso   1.000  C
  C5       1.0000 0.31760  0.49140  0.75990  Biso   1.000  C
  H3       1.0000 0.29760  0.57140  0.74660  Biso   1.000  H
  C6       1.0000 0.19040  0.40950  0.33100  Biso   1.000  C
  C7       1.0000 0.40750  0.31200  0.73120  Biso   1.000  C
  H4       1.0000 0.44740  0.26900  0.69820  Biso   1.000  H
  C8       1.0000 0.57580  0.04350  0.62390  Biso   1.000  C
  C9       1.0000 0.21390  0.33210  0.27320  Biso   1.000  C
  H5       1.0000 0.26660  0.27450  0.28260  Biso   1.000  H
  C10      1.0000 0.38230  0.26000  0.80200  Biso   1.000  C
  H6       1.0000 0.40760  0.18370  0.81620  Biso   1.000  H
  C11      1.0000 0.71470  0.14570  0.82460  Biso   1.000  C
  H7       1.0000 0.76280  0.23060  0.85370  Biso   1.000  H
  C12      1.0000 0.31980  0.31950  0.85220  Biso   1.000  C
  C13      1.0000 0.37390  0.42760  0.70930  Biso   1.000  C
  C14      1.0000 0.29040  0.43750  0.83040  Biso   1.000  C
  H8       1.0000 0.25180  0.48150  0.86360  Biso   1.000  H
  C15      1.0000 0.60520  0.03080  0.70590  Biso   1.000  C
  C16      1.0000 0.60720  0.88850  0.81230  Biso   1.000  C
  H9       1.0000 0.58030  0.79790  0.83330  Biso   1.000  H
  C17      1.0000 0.68380  0.01250  0.85620  Biso   1.000  C
  C18      1.0000 0.29850  0.47670  0.03960  Biso   1.000  C
  H10      1.0000 0.36050  0.43960  0.06820  Biso   1.000  H
  H11      1.0000 0.28040  0.54630  0.06940  Biso   1.000  H
  H12      1.0000 0.34770  0.52300  0.99670  Biso   1.000  H
  C19      1.0000 0.01220  0.14020  0.93470  Biso   1.000  C
  C20      1.0000 0.29080  0.25940  0.92900  Biso   1.000  C
  H13      1.0000 0.37700  0.31600  0.96000  Biso   1.000  H
  C21      1.0000 0.67530  0.15500  0.75050  Biso   1.000  C
  H14      1.0000 0.69620  0.24580  0.73060  Biso   1.000  H
  C22      1.0000 0.10680  0.49020  0.31580  Biso   1.000  C
  H15      1.0000 0.08840  0.54120  0.35410  Biso   1.000  H
  C23      1.0000 0.14740  0.25190  0.95980  Biso   1.000  C
  C24      1.0000 0.15880  0.34020  0.20120  Biso   1.000  C
  H16      1.0000 0.17690  0.28910  0.16290  Biso   1.000  H
  C25      1.0000 0.56910  0.89590  0.73720  Biso   1.000  C
  H17      1.0000 0.51970  0.81100  0.70820  Biso   1.000  H
  C26      1.0000 0.74550  0.19470  0.06320  Biso   1.000  C
  H18      1.0000 0.68530  0.23430  0.03490  Biso   1.000  H
  H19      1.0000 0.77360  0.24200  0.11150  Biso   1.000  H
  H20      1.0000 0.68960  0.09220  0.06820  Biso   1.000  H
  C27      1.0000 0.88490  0.21960  0.02340  Biso   1.000  C
  C28      1.0000 0.02370  0.44280  0.10670  Biso   1.000  C
  H21      1.0000 0.92390  0.43900  0.10810  Biso   1.000  H
  H22      1.0000 0.08730  0.53960  0.09200  Biso   1.000  H
  C29      1.0000 0.25850  0.40860  0.40780  Biso   1.000  C
  C30      1.0000 0.05070  0.49540  0.24440  Biso   1.000  C
  H23      1.0000 0.99350  0.54890  0.23560  Biso   1.000  H
  C31      1.0000 0.02010  0.33540  0.04700  Biso   1.000  C
  C32      1.0000 0.00810  0.03300  0.87490  Biso   1.000  C
  H24      1.0000 0.05190  0.96990  0.89500  Biso   1.000  H
  H25      1.0000 0.06320  0.08480  0.83470  Biso   1.000  H
  H26      1.0000 0.90660  0.97600  0.85710  Biso   1.000  H
  C33      1.0000 0.15110  0.35210  0.01500  Biso   1.000  C
  H27      1.0000 0.29300  0.16400  0.92700  Biso   1.000  H
  Ce2      1.0000 0.49269  0.72342  0.50362  Biso   1.000  Ce
  O7       1.0000 0.42630  0.83820  0.39687  Biso   1.000  O
  O8       1.0000 0.56360  0.58750  0.41404  Biso   1.000  O
  O9       1.0000 0.44190  0.06090  0.41787  Biso   1.000  O
  O10      1.0000 0.61520  0.40070  0.38185  Biso   1.000  O
  O11      1.0000 0.69760  0.69050  0.57867  Biso   1.000  O
  O12      1.0000 0.73210  0.49100  0.54656  Biso   1.000  O
  C34      1.0000 0.60010  0.51610  0.36730  Biso   1.000  C
  C35      1.0000 0.11980  0.87500  0.03460  Biso   1.000  C
  C36      1.0000 0.26500  0.99900  0.06360  Biso   1.000  C
  H28      1.0000 0.25310  0.08980  0.05900  Biso   1.000  H
  H29      1.0000 0.34280  0.00310  0.03220  Biso   1.000  H
  C37      1.0000 0.92250  0.57720  0.81460  Biso   1.000  C
  C38      1.0000 0.68240  0.50860  0.24010  Biso   1.000  C
  H30      1.0000 0.70240  0.42860  0.25340  Biso   1.000  H
  C39      1.0000 0.80960  0.59050  0.66900  Biso   1.000  C
  C40      1.0000 0.59250  0.68800  0.26880  Biso   1.000  C
  H31      1.0000 0.55260  0.73100  0.30180  Biso   1.000  H
  C41      1.0000 0.42420  0.95650  0.37610  Biso   1.000  C
  C42      1.0000 0.78610  0.66790  0.72680  Biso   1.000  C
  H32      1.0000 0.73340  0.72550  0.71740  Biso   1.000  H
  C43      1.0000 0.61770  0.74000  0.19800  Biso   1.000  C
  H33      1.0000 0.59240  0.81630  0.18380  Biso   1.000  H
  C44      1.0000 0.28530  0.85430  0.17540  Biso   1.000  C
  H34      1.0000 0.23720  0.76940  0.14630  Biso   1.000  H
  C45      1.0000 0.68020  0.68050  0.14780  Biso   1.000  C
  C46      1.0000 0.62610  0.57240  0.29070  Biso   1.000  C
  C47      1.0000 0.70960  0.56250  0.16960  Biso   1.000  C
  H35      1.0000 0.74820  0.51850  0.13640  Biso   1.000  H
  C48      1.0000 0.39480  0.96920  0.29410  Biso   1.000  C
  C49      1.0000 0.39280  0.11150  0.18770  Biso   1.000  C
  H36      1.0000 0.41970  0.20210  0.16670  Biso   1.000  H
  C50      1.0000 0.31620  0.98750  0.14380  Biso   1.000  C
  C51      1.0000 0.70150  0.52330  0.96040  Biso   1.000  C
  H37      1.0000 0.63950  0.56040  0.93180  Biso   1.000  H
  H38      1.0000 0.71960  0.45370  0.93060  Biso   1.000  H
  H39      1.0000 0.65230  0.47700  0.00330  Biso   1.000  H
  C52      1.0000 0.98780  0.85980  0.06530  Biso   1.000  C
  C53      1.0000 0.70920  0.74060  0.07100  Biso   1.000  C
  H40      1.0000 0.62300  0.68400  0.04000  Biso   1.000  H
  C54      1.0000 0.32470  0.84500  0.24950  Biso   1.000  C
  H41      1.0000 0.30380  0.75420  0.26940  Biso   1.000  H
  C55      1.0000 0.89320  0.50980  0.68420  Biso   1.000  C
  H42      1.0000 0.91160  0.45880  0.64590  Biso   1.000  H
  C56      1.0000 0.85260  0.74810  0.04020  Biso   1.000  C
  C57      1.0000 0.84120  0.65980  0.79880  Biso   1.000  C
  H43      1.0000 0.82310  0.71090  0.83710  Biso   1.000  H
  C58      1.0000 0.43090  0.10410  0.26280  Biso   1.000  C
  H44      1.0000 0.48030  0.18900  0.29180  Biso   1.000  H
  C59      1.0000 0.25450  0.80530  0.93680  Biso   1.000  C
  H45      1.0000 0.31470  0.76570  0.96510  Biso   1.000  H
  H46      1.0000 0.22640  0.75800  0.88850  Biso   1.000  H
  H47      1.0000 0.31040  0.90780  0.93180  Biso   1.000  H
  C60      1.0000 0.11510  0.78040  0.97660  Biso   1.000  C
  C61      1.0000 0.97630  0.55720  0.89330  Biso   1.000  C
  H48      1.0000 0.07610  0.56100  0.89190  Biso   1.000  H
  H49      1.0000 0.91270  0.46040  0.90800  Biso   1.000  H
  C62      1.0000 0.74150  0.59140  0.59220  Biso   1.000  C
  C63      1.0000 0.94930  0.50460  0.75560  Biso   1.000  C
  H50      1.0000 0.00650  0.45110  0.76440  Biso   1.000  H
  C64      1.0000 0.97990  0.66460  0.95300  Biso   1.000  C
  C65      1.0000 0.99190  0.96700  0.12510  Biso   1.000  C
  H51      1.0000 0.94810  0.03010  0.10500  Biso   1.000  H
  H52      1.0000 0.93680  0.91520  0.16530  Biso   1.000  H
  H53      1.0000 0.09340  0.02400  0.14290  Biso   1.000  H
  C66      1.0000 0.84890  0.64790  0.98500  Biso   1.000  C
  H54      1.0000 0.70700  0.83600  0.07300  Biso   1.000  H
