data_image0
_cell_length_a       9.8432
_cell_length_b       10.0408
_cell_length_c       18.0453
_cell_angle_alpha    90.135
_cell_angle_beta     93.963
_cell_angle_gamma    113.872

_symmetry_space_group_name_H-M    "P 1"
_symmetry_int_tables_number       1

loop_
  _symmetry_equiv_pos_as_xyz
  'x, y, z'

loop_
  _atom_site_label
  _atom_site_occupancy
  _atom_site_fract_x
  _atom_site_fract_y
  _atom_site_fract_z
  _atom_site_thermal_displace_type
  _atom_site_B_iso_or_equiv
  _atom_site_type_symbol
  Pr1      1.0000 0.00715  0.27666  0.99681  Biso   1.000  Pr
  O1       1.0000 0.93930  0.41200  0.08590  Biso   1.000  O
  O2       1.0000 0.05960  0.93840  0.08190  Biso   1.000  O
  O3       1.0000 0.07290  0.16080  0.10230  Biso   1.000  O
  O4       1.0000 0.80400  0.30920  0.92240  Biso   1.000  O
  O5       1.0000 0.88760  0.59920  0.11630  Biso   1.000  O
  O6       1.0000 0.77040  0.51080  0.95410  Biso   1.000  O
  C1       1.0000 0.07720  0.04240  0.12300  Biso   1.000  C
  C2       1.0000 0.18300  0.01210  0.35650  Biso   1.000  C
  C3       1.0000 0.65800  0.34030  0.70110  Biso   1.000  C
  H1       1.0000 0.67500  0.28870  0.66260  Biso   1.000  H
  C4       1.0000 0.69010  0.40790  0.83100  Biso   1.000  C
  C5       1.0000 0.10390  0.03040  0.20500  Biso   1.000  C
  C6       1.0000 0.38200  0.12700  0.46510  Biso   1.000  C
  C7       1.0000 0.90070  0.48260  0.13240  Biso   1.000  C
  C8       1.0000 0.60800  0.49300  0.81630  Biso   1.000  C
  H2       1.0000 0.59290  0.54670  0.85440  Biso   1.000  H
  C9       1.0000 0.71500  0.33220  0.77350  Biso   1.000  C
  H3       1.0000 0.76970  0.27620  0.78270  Biso   1.000  H
  C10      1.0000 0.06940  0.89460  0.23630  Biso   1.000  C
  H4       1.0000 0.02230  0.80950  0.20720  Biso   1.000  H
  C11      1.0000 0.79100  0.43800  0.32930  Biso   1.000  C
  H5       1.0000 0.75100  0.48170  0.36210  Biso   1.000  H
  C12      1.0000 0.88100  0.26000  0.30120  Biso   1.000  C
  H6       1.0000 0.90490  0.18230  0.31520  Biso   1.000  H
  C13      1.0000 0.87430  0.42900  0.20870  Biso   1.000  C
  C14      1.0000 0.64700  0.25200  0.45890  Biso   1.000  C
  C15      1.0000 0.90700  0.31100  0.23170  Biso   1.000  C
  H7       1.0000 0.94740  0.26730  0.19900  Biso   1.000  H
  C16      1.0000 0.21400  0.14700  0.32420  Biso   1.000  C
  H8       1.0000 0.26070  0.23260  0.35310  Biso   1.000  H
  C17      1.0000 0.81900  0.32000  0.35240  Biso   1.000  C
  C18      1.0000 0.64900  0.35190  0.51570  Biso   1.000  C
  C19      1.0000 0.81900  0.49300  0.26070  Biso   1.000  C
  H9       1.0000 0.80180  0.57530  0.24830  Biso   1.000  H
  C20      1.0000 0.23500  0.00000  0.43610  Biso   1.000  C
  H10      1.0000 0.24800  0.90950  0.44040  Biso   1.000  H
  H11      1.0000 0.15710  0.99450  0.46770  Biso   1.000  H
  C21      1.0000 0.52200  0.44200  0.60590  Biso   1.000  C
  H12      1.0000 0.42180  0.43620  0.60710  Biso   1.000  H
  H13      1.0000 0.58440  0.53960  0.59140  Biso   1.000  H
  C22      1.0000 0.57700  0.42200  0.68560  Biso   1.000  C
  C23      1.0000 0.52200  0.33600  0.54630  Biso   1.000  C
  C24      1.0000 0.24700  0.19500  0.56300  Biso   1.000  C
  H14      1.0000 0.18490  0.09280  0.56320  Biso   1.000  H
  H15      1.0000 0.19330  0.24490  0.53770  Biso   1.000  H
  H16      1.0000 0.27570  0.23290  0.61320  Biso   1.000  H
  C25      1.0000 0.51200  0.14070  0.43440  Biso   1.000  C
  C26      1.0000 0.50900  0.03400  0.37430  Biso   1.000  C
  H17      1.0000 0.41100  0.95670  0.36790  Biso   1.000  H
  H18      1.0000 0.58000  0.99380  0.38840  Biso   1.000  H
  H19      1.0000 0.53350  0.08320  0.32840  Biso   1.000  H
  C27      1.0000 0.10600  0.88800  0.31090  Biso   1.000  C
  H20      1.0000 0.07860  0.79750  0.33180  Biso   1.000  H
  C28      1.0000 0.17500  0.15390  0.24920  Biso   1.000  C
  H21      1.0000 0.19860  0.24450  0.22840  Biso   1.000  H
  C29      1.0000 0.75900  0.40930  0.90820  Biso   1.000  C
  C30      1.0000 0.79100  0.26100  0.42940  Biso   1.000  C
  H22      1.0000 0.87390  0.32260  0.46350  Biso   1.000  H
  H23      1.0000 0.79100  0.16440  0.42930  Biso   1.000  H
  C31      1.0000 0.55000  0.49500  0.74450  Biso   1.000  C
  H24      1.0000 0.49090  0.54680  0.73540  Biso   1.000  H
  C32      1.0000 0.38400  0.21800  0.52360  Biso   1.000  C
  C33      1.0000 0.79900  0.47700  0.53880  Biso   1.000  C
  H25      1.0000 0.78680  0.53600  0.57730  Biso   1.000  H
  H26      1.0000 0.83640  0.53490  0.49660  Biso   1.000  H
  H27      1.0000 0.86900  0.43740  0.55690  Biso   1.000  H
  Pr2      1.0000 0.99285  0.72334  0.00319  Biso   1.000  Pr
  O7       1.0000 0.06070  0.58800  0.91410  Biso   1.000  O
  O8       1.0000 0.94040  0.06160  0.91810  Biso   1.000  O
  O9       1.0000 0.92710  0.83920  0.89770  Biso   1.000  O
  O10      1.0000 0.19600  0.69080  0.07760  Biso   1.000  O
  O11      1.0000 0.11240  0.40080  0.88370  Biso   1.000  O
  O12      1.0000 0.22960  0.48920  0.04590  Biso   1.000  O
  C34      1.0000 0.92280  0.95760  0.87700  Biso   1.000  C
  C35      1.0000 0.81700  0.98790  0.64350  Biso   1.000  C
  C36      1.0000 0.34200  0.65970  0.29890  Biso   1.000  C
  H28      1.0000 0.32500  0.71130  0.33740  Biso   1.000  H
  C37      1.0000 0.30990  0.59210  0.16900  Biso   1.000  C
  C38      1.0000 0.89610  0.96960  0.79500  Biso   1.000  C
  C39      1.0000 0.61800  0.87300  0.53490  Biso   1.000  C
  C40      1.0000 0.09930  0.51740  0.86760  Biso   1.000  C
  C41      1.0000 0.39200  0.50700  0.18370  Biso   1.000  C
  H29      1.0000 0.40710  0.45330  0.14560  Biso   1.000  H
  C42      1.0000 0.28500  0.66780  0.22650  Biso   1.000  C
  H30      1.0000 0.23030  0.72380  0.21730  Biso   1.000  H
  C43      1.0000 0.93060  0.10540  0.76370  Biso   1.000  C
  H31      1.0000 0.97770  0.19050  0.79280  Biso   1.000  H
  C44      1.0000 0.20900  0.56200  0.67070  Biso   1.000  C
  H32      1.0000 0.24900  0.51830  0.63790  Biso   1.000  H
  C45      1.0000 0.11900  0.74000  0.69880  Biso   1.000  C
  H33      1.0000 0.09510  0.81770  0.68480  Biso   1.000  H
  C46      1.0000 0.12570  0.57100  0.79130  Biso   1.000  C
  C47      1.0000 0.35300  0.74800  0.54110  Biso   1.000  C
  C48      1.0000 0.09300  0.68900  0.76830  Biso   1.000  C
  H34      1.0000 0.05260  0.73270  0.80100  Biso   1.000  H
  C49      1.0000 0.78600  0.85300  0.67580  Biso   1.000  C
  H35      1.0000 0.73930  0.76740  0.64690  Biso   1.000  H
  C50      1.0000 0.18100  0.68000  0.64760  Biso   1.000  C
  C51      1.0000 0.35100  0.64810  0.48430  Biso   1.000  C
  C52      1.0000 0.18100  0.50700  0.73930  Biso   1.000  C
  H36      1.0000 0.19820  0.42470  0.75170  Biso   1.000  H
  C53      1.0000 0.76500  0.00000  0.56390  Biso   1.000  C
  H37      1.0000 0.75200  0.09050  0.55960  Biso   1.000  H
  H38      1.0000 0.84290  0.00550  0.53230  Biso   1.000  H
  C54      1.0000 0.47800  0.55800  0.39410  Biso   1.000  C
  H39      1.0000 0.57820  0.56380  0.39290  Biso   1.000  H
  H40      1.0000 0.41560  0.46040  0.40860  Biso   1.000  H
  C55      1.0000 0.42300  0.57800  0.31440  Biso   1.000  C
  C56      1.0000 0.47800  0.66400  0.45370  Biso   1.000  C
  C57      1.0000 0.75300  0.80500  0.43700  Biso   1.000  C
  H41      1.0000 0.81510  0.90720  0.43680  Biso   1.000  H
  H42      1.0000 0.80670  0.75510  0.46230  Biso   1.000  H
  H43      1.0000 0.72430  0.76710  0.38680  Biso   1.000  H
  C58      1.0000 0.48800  0.85930  0.56560  Biso   1.000  C
  C59      1.0000 0.49100  0.96600  0.62570  Biso   1.000  C
  H44      1.0000 0.58900  0.04330  0.63210  Biso   1.000  H
  H45      1.0000 0.42000  0.00620  0.61160  Biso   1.000  H
  H46      1.0000 0.46650  0.91680  0.67160  Biso   1.000  H
  C60      1.0000 0.89400  0.11200  0.68910  Biso   1.000  C
  H47      1.0000 0.92140  0.20250  0.66820  Biso   1.000  H
  C61      1.0000 0.82500  0.84610  0.75080  Biso   1.000  C
  H48      1.0000 0.80140  0.75550  0.77160  Biso   1.000  H
  C62      1.0000 0.24100  0.59070  0.09180  Biso   1.000  C
  C63      1.0000 0.20900  0.73900  0.57060  Biso   1.000  C
  H49      1.0000 0.12610  0.67740  0.53650  Biso   1.000  H
  H50      1.0000 0.20900  0.83560  0.57070  Biso   1.000  H
  C64      1.0000 0.45000  0.50500  0.25550  Biso   1.000  C
  H51      1.0000 0.50910  0.45320  0.26460  Biso   1.000  H
  C65      1.0000 0.61600  0.78200  0.47640  Biso   1.000  C
  C66      1.0000 0.20100  0.52300  0.46120  Biso   1.000  C
  H52      1.0000 0.21320  0.46400  0.42270  Biso   1.000  H
  H53      1.0000 0.16360  0.46510  0.50340  Biso   1.000  H
  H54      1.0000 0.13100  0.56260  0.44310  Biso   1.000  H
