data_image0
_cell_length_a       32.7626
_cell_length_b       34.95
_cell_length_c       5.7721
_cell_angle_alpha    90
_cell_angle_beta     90
_cell_angle_gamma    90

_symmetry_space_group_name_H-M    "P 1"
_symmetry_int_tables_number       1

loop_
  _symmetry_equiv_pos_as_xyz
  'x, y, z'

loop_
  _atom_site_label
  _atom_site_occupancy
  _atom_site_fract_x
  _atom_site_fract_y
  _atom_site_fract_z
  _atom_site_thermal_displace_type
  _atom_site_B_iso_or_equiv
  _atom_site_type_symbol
  O1       1.0000 0.35210  0.70040  0.28900  Biso   1.000  O
  O2       1.0000 0.19200  0.29580  0.23760  Biso   1.000  O
  O3       1.0000 0.23530  0.29530  0.95600  Biso   1.000  O
  O4       1.0000 0.40550  0.70960  0.06700  Biso   1.000  O
  C1       1.0000 0.36500  0.58220  0.22200  Biso   1.000  C
  H1       1.0000 0.35430  0.56520  0.33000  Biso   1.000  H
  C2       1.0000 0.36340  0.62120  0.26900  Biso   1.000  C
  H2       1.0000 0.35070  0.63010  0.40240  Biso   1.000  H
  O5       1.0000 0.51810  0.29330  0.16600  Biso   1.000  O
  C3       1.0000 0.29490  0.44690  0.52500  Biso   1.000  C
  H3       1.0000 0.29770  0.44260  0.69050  Biso   1.000  H
  H4       1.0000 0.27560  0.46770  0.50430  Biso   1.000  H
  C4       1.0000 0.38070  0.64660  0.11500  Biso   1.000  C
  C5       1.0000 0.38160  0.56800  0.02400  Biso   1.000  C
  C6       1.0000 0.33650  0.45970  0.43000  Biso   1.000  C
  C7       1.0000 0.40890  0.46190  0.46500  Biso   1.000  C
  C8       1.0000 0.41200  0.48700  0.28400  Biso   1.000  C
  C9       1.0000 0.33800  0.48490  0.25000  Biso   1.000  C
  C10      1.0000 0.27730  0.41160  0.41800  Biso   1.000  C
  C11      1.0000 0.22210  0.31090  0.13200  Biso   1.000  C
  C12      1.0000 0.37200  0.44680  0.54000  Biso   1.000  C
  C13      1.0000 0.39830  0.63240  0.91500  Biso   1.000  C
  H5       1.0000 0.40930  0.64940  0.80810  Biso   1.000  H
  C14      1.0000 0.39970  0.59360  0.87100  Biso   1.000  C
  H6       1.0000 0.41290  0.58460  0.73940  Biso   1.000  H
  C15      1.0000 0.38000  0.52510  0.96500  Biso   1.000  C
  H7       1.0000 0.35700  0.52080  0.86220  Biso   1.000  H
  H8       1.0000 0.40460  0.51850  0.88070  Biso   1.000  H
  C16      1.0000 0.44670  0.44980  0.60800  Biso   1.000  C
  H9       1.0000 0.46670  0.47030  0.60000  Biso   1.000  H
  H10      1.0000 0.43850  0.44720  0.76860  Biso   1.000  H
  C17      1.0000 0.24110  0.34620  0.23200  Biso   1.000  C
  C18      1.0000 0.37620  0.49880  0.16500  Biso   1.000  C
  C19      1.0000 0.45330  0.50280  0.21800  Biso   1.000  C
  H11      1.0000 0.45900  0.52530  0.30820  Biso   1.000  H
  H12      1.0000 0.45330  0.50930  0.05640  Biso   1.000  H
  H13      1.0000 0.47390  0.48390  0.24720  Biso   1.000  H
  C20      1.0000 0.38040  0.68850  0.16600  Biso   1.000  C
  C21      1.0000 0.24490  0.39350  0.53300  Biso   1.000  C
  H14      1.0000 0.23510  0.40350  0.67100  Biso   1.000  H
  C22      1.0000 0.45780  0.39410  0.34000  Biso   1.000  C
  H15      1.0000 0.43820  0.40380  0.24030  Biso   1.000  H
  C23      1.0000 0.29050  0.39570  0.22100  Biso   1.000  C
  H16      1.0000 0.31280  0.40680  0.14620  Biso   1.000  H
  C24      1.0000 0.46650  0.41370  0.53300  Biso   1.000  C
  C25      1.0000 0.27280  0.36370  0.12200  Biso   1.000  C
  H17      1.0000 0.28240  0.35410  0.98150  Biso   1.000  H
  C26      1.0000 0.50520  0.34330  0.42700  Biso   1.000  C
  C27      1.0000 0.22740  0.36050  0.44100  Biso   1.000  C
  H18      1.0000 0.20650  0.34810  0.52030  Biso   1.000  H
  C28      1.0000 0.29890  0.49870  0.13000  Biso   1.000  C
  H19      1.0000 0.28120  0.47730  0.10310  Biso   1.000  H
  H20      1.0000 0.30580  0.51040  0.98490  Biso   1.000  H
  H21      1.0000 0.28530  0.51700  0.22710  Biso   1.000  H
  C29      1.0000 0.36990  0.41770  0.72900  Biso   1.000  C
  H22      1.0000 0.37200  0.43020  0.87630  Biso   1.000  H
  H23      1.0000 0.39190  0.39980  0.71140  Biso   1.000  H
  H24      1.0000 0.34430  0.40430  0.72000  Biso   1.000  H
  C30      1.0000 0.49560  0.39690  0.67900  Biso   1.000  C
  H25      1.0000 0.50230  0.40890  0.81830  Biso   1.000  H
  C31      1.0000 0.47700  0.35970  0.28200  Biso   1.000  C
  H26      1.0000 0.47050  0.34770  0.14260  Biso   1.000  H
  C32      1.0000 0.51450  0.36270  0.62000  Biso   1.000  C
  H27      1.0000 0.53450  0.35290  0.71850  Biso   1.000  H
  C33      1.0000 0.52740  0.30500  0.38600  Biso   1.000  C
  O6       1.0000 0.54500  0.29130  0.54900  Biso   1.000  O
  O7       1.0000 0.14790  0.29960  0.78900  Biso   1.000  O
  O8       1.0000 0.30800  0.70420  0.73760  Biso   1.000  O
  O9       1.0000 0.26470  0.70470  0.45600  Biso   1.000  O
  O10      1.0000 0.09450  0.29040  0.56700  Biso   1.000  O
  C34      1.0000 0.13500  0.41780  0.72200  Biso   1.000  C
  H28      1.0000 0.14570  0.43480  0.83000  Biso   1.000  H
  C35      1.0000 0.13660  0.37880  0.76900  Biso   1.000  C
  H29      1.0000 0.14930  0.36990  0.90240  Biso   1.000  H
  O11      1.0000 0.98190  0.70670  0.66600  Biso   1.000  O
  C36      1.0000 0.20510  0.55310  0.02500  Biso   1.000  C
  H30      1.0000 0.20230  0.55740  0.19050  Biso   1.000  H
  H31      1.0000 0.22440  0.53230  0.00430  Biso   1.000  H
  C37      1.0000 0.11930  0.35340  0.61500  Biso   1.000  C
  C38      1.0000 0.11840  0.43200  0.52400  Biso   1.000  C
  C39      1.0000 0.16350  0.54030  0.93000  Biso   1.000  C
  C40      1.0000 0.09110  0.53810  0.96500  Biso   1.000  C
  C41      1.0000 0.08800  0.51300  0.78400  Biso   1.000  C
  C42      1.0000 0.16200  0.51510  0.75000  Biso   1.000  C
  C43      1.0000 0.22270  0.58840  0.91800  Biso   1.000  C
  C44      1.0000 0.27790  0.68910  0.63200  Biso   1.000  C
  C45      1.0000 0.12800  0.55320  0.04000  Biso   1.000  C
  C46      1.0000 0.10170  0.36760  0.41500  Biso   1.000  C
  H32      1.0000 0.09070  0.35060  0.30810  Biso   1.000  H
  C47      1.0000 0.10030  0.40640  0.37100  Biso   1.000  C
  H33      1.0000 0.08710  0.41540  0.23940  Biso   1.000  H
  C48      1.0000 0.12000  0.47490  0.46500  Biso   1.000  C
  H34      1.0000 0.14300  0.47920  0.36220  Biso   1.000  H
  H35      1.0000 0.09540  0.48150  0.38070  Biso   1.000  H
  C49      1.0000 0.05330  0.55020  0.10800  Biso   1.000  C
  H36      1.0000 0.03330  0.52970  0.10000  Biso   1.000  H
  H37      1.0000 0.06150  0.55280  0.26860  Biso   1.000  H
  C50      1.0000 0.25890  0.65380  0.73200  Biso   1.000  C
  C51      1.0000 0.12380  0.50120  0.66500  Biso   1.000  C
  C52      1.0000 0.04670  0.49720  0.71800  Biso   1.000  C
  H38      1.0000 0.04100  0.47470  0.80820  Biso   1.000  H
  H39      1.0000 0.04670  0.49070  0.55640  Biso   1.000  H
  H40      1.0000 0.02610  0.51610  0.74720  Biso   1.000  H
  C53      1.0000 0.11960  0.31150  0.66600  Biso   1.000  C
  C54      1.0000 0.25510  0.60650  0.03300  Biso   1.000  C
  H41      1.0000 0.26490  0.59650  0.17100  Biso   1.000  H
  C55      1.0000 0.04220  0.60590  0.84000  Biso   1.000  C
  H42      1.0000 0.06180  0.59620  0.74030  Biso   1.000  H
  C56      1.0000 0.20950  0.60430  0.72100  Biso   1.000  C
  H43      1.0000 0.18720  0.59320  0.64620  Biso   1.000  H
  C57      1.0000 0.03350  0.58630  0.03300  Biso   1.000  C
  C58      1.0000 0.22720  0.63630  0.62200  Biso   1.000  C
  H44      1.0000 0.21760  0.64590  0.48150  Biso   1.000  H
  C59      1.0000 0.99480  0.65670  0.92700  Biso   1.000  C
  C60      1.0000 0.27260  0.63950  0.94100  Biso   1.000  C
  H45      1.0000 0.29350  0.65190  0.02030  Biso   1.000  H
  C61      1.0000 0.20110  0.50130  0.63000  Biso   1.000  C
  H46      1.0000 0.21880  0.52270  0.60310  Biso   1.000  H
  H47      1.0000 0.19420  0.48960  0.48490  Biso   1.000  H
  H48      1.0000 0.21470  0.48300  0.72710  Biso   1.000  H
  C62      1.0000 0.13010  0.58230  0.22900  Biso   1.000  C
  H49      1.0000 0.12800  0.56980  0.37630  Biso   1.000  H
  H50      1.0000 0.10810  0.60020  0.21140  Biso   1.000  H
  H51      1.0000 0.15570  0.59570  0.22000  Biso   1.000  H
  C63      1.0000 0.00440  0.60310  0.17900  Biso   1.000  C
  H52      1.0000 0.99770  0.59110  0.31830  Biso   1.000  H
  C64      1.0000 0.02300  0.64030  0.78200  Biso   1.000  C
  H53      1.0000 0.02950  0.65230  0.64260  Biso   1.000  H
  C65      1.0000 0.98550  0.63730  0.12000  Biso   1.000  C
  H54      1.0000 0.96550  0.64710  0.21850  Biso   1.000  H
  C66      1.0000 0.97260  0.69500  0.88600  Biso   1.000  C
  O12      1.0000 0.95500  0.70870  0.04900  Biso   1.000  O
  O13      1.0000 0.64790  0.20040  0.71100  Biso   1.000  O
  O14      1.0000 0.80800  0.79580  0.76240  Biso   1.000  O
  O15      1.0000 0.76470  0.79530  0.04400  Biso   1.000  O
  O16      1.0000 0.59450  0.20960  0.93300  Biso   1.000  O
  C67      1.0000 0.63500  0.08220  0.77800  Biso   1.000  C
  H55      1.0000 0.64570  0.06520  0.67000  Biso   1.000  H
  C68      1.0000 0.63660  0.12120  0.73100  Biso   1.000  C
  H56      1.0000 0.64930  0.13010  0.59760  Biso   1.000  H
  O17      1.0000 0.48190  0.79330  0.83400  Biso   1.000  O
  C69      1.0000 0.70510  0.94690  0.47500  Biso   1.000  C
  H57      1.0000 0.70230  0.94260  0.30950  Biso   1.000  H
  H58      1.0000 0.72440  0.96770  0.49570  Biso   1.000  H
  C70      1.0000 0.61930  0.14660  0.88500  Biso   1.000  C
  C71      1.0000 0.61840  0.06800  0.97600  Biso   1.000  C
  C72      1.0000 0.66350  0.95970  0.57000  Biso   1.000  C
  C73      1.0000 0.59110  0.96190  0.53500  Biso   1.000  C
  C74      1.0000 0.58800  0.98700  0.71600  Biso   1.000  C
  C75      1.0000 0.66200  0.98490  0.75000  Biso   1.000  C
  C76      1.0000 0.72270  0.91160  0.58200  Biso   1.000  C
  C77      1.0000 0.77790  0.81090  0.86800  Biso   1.000  C
  C78      1.0000 0.62800  0.94680  0.46000  Biso   1.000  C
  C79      1.0000 0.60170  0.13240  0.08500  Biso   1.000  C
  H59      1.0000 0.59070  0.14940  0.19190  Biso   1.000  H
  C80      1.0000 0.60030  0.09360  0.12900  Biso   1.000  C
  H60      1.0000 0.58710  0.08460  0.26060  Biso   1.000  H
  C81      1.0000 0.62000  0.02510  0.03500  Biso   1.000  C
  H61      1.0000 0.64300  0.02080  0.13780  Biso   1.000  H
  H62      1.0000 0.59540  0.01850  0.11930  Biso   1.000  H
  C82      1.0000 0.55330  0.94980  0.39200  Biso   1.000  C
  H63      1.0000 0.53330  0.97030  0.40000  Biso   1.000  H
  H64      1.0000 0.56150  0.94720  0.23140  Biso   1.000  H
  C83      1.0000 0.75890  0.84620  0.76800  Biso   1.000  C
  C84      1.0000 0.62380  0.99880  0.83500  Biso   1.000  C
  C85      1.0000 0.54670  0.00280  0.78200  Biso   1.000  C
  H65      1.0000 0.54100  0.02530  0.69180  Biso   1.000  H
  H66      1.0000 0.54670  0.00930  0.94360  Biso   1.000  H
  H67      1.0000 0.52610  0.98390  0.75280  Biso   1.000  H
  C86      1.0000 0.61960  0.18850  0.83400  Biso   1.000  C
  C87      1.0000 0.75510  0.89350  0.46700  Biso   1.000  C
  H68      1.0000 0.76490  0.90350  0.32900  Biso   1.000  H
  C88      1.0000 0.54220  0.89410  0.66000  Biso   1.000  C
  H69      1.0000 0.56180  0.90380  0.75970  Biso   1.000  H
  C89      1.0000 0.70950  0.89570  0.77900  Biso   1.000  C
  H70      1.0000 0.68720  0.90680  0.85380  Biso   1.000  H
  C90      1.0000 0.53350  0.91370  0.46700  Biso   1.000  C
  C91      1.0000 0.72720  0.86370  0.87800  Biso   1.000  C
  H71      1.0000 0.71760  0.85410  0.01850  Biso   1.000  H
  C92      1.0000 0.49480  0.84330  0.57300  Biso   1.000  C
  C93      1.0000 0.77260  0.86050  0.55900  Biso   1.000  C
  H72      1.0000 0.79350  0.84810  0.47970  Biso   1.000  H
  C94      1.0000 0.70110  0.99870  0.87000  Biso   1.000  C
  H73      1.0000 0.71880  0.97730  0.89690  Biso   1.000  H
  H74      1.0000 0.69420  0.01040  0.01510  Biso   1.000  H
  H75      1.0000 0.71470  0.01700  0.77290  Biso   1.000  H
  C95      1.0000 0.63010  0.91770  0.27100  Biso   1.000  C
  H76      1.0000 0.62800  0.93020  0.12370  Biso   1.000  H
  H77      1.0000 0.60810  0.89980  0.28860  Biso   1.000  H
  H78      1.0000 0.65570  0.90430  0.28000  Biso   1.000  H
  C96      1.0000 0.50440  0.89690  0.32100  Biso   1.000  C
  H79      1.0000 0.49770  0.90890  0.18170  Biso   1.000  H
  C97      1.0000 0.52300  0.85970  0.71800  Biso   1.000  C
  H80      1.0000 0.52950  0.84770  0.85740  Biso   1.000  H
  C98      1.0000 0.48550  0.86270  0.38000  Biso   1.000  C
  H81      1.0000 0.46550  0.85290  0.28150  Biso   1.000  H
  C99      1.0000 0.47260  0.80500  0.61400  Biso   1.000  C
  O18      1.0000 0.45500  0.79130  0.45100  Biso   1.000  O
  O19      1.0000 0.85210  0.79960  0.21100  Biso   1.000  O
  O20      1.0000 0.69200  0.20420  0.26240  Biso   1.000  O
  O21      1.0000 0.73530  0.20470  0.54400  Biso   1.000  O
  O22      1.0000 0.90550  0.79040  0.43300  Biso   1.000  O
  C100     1.0000 0.86500  0.91780  0.27800  Biso   1.000  C
  H82      1.0000 0.85430  0.93480  0.17000  Biso   1.000  H
  C101     1.0000 0.86340  0.87880  0.23100  Biso   1.000  C
  H83      1.0000 0.85070  0.86990  0.09760  Biso   1.000  H
  O23      1.0000 0.01810  0.20670  0.33400  Biso   1.000  O
  C102     1.0000 0.79490  0.05310  0.97500  Biso   1.000  C
  H84      1.0000 0.79770  0.05740  0.80950  Biso   1.000  H
  H85      1.0000 0.77560  0.03230  0.99570  Biso   1.000  H
  C103     1.0000 0.88070  0.85340  0.38500  Biso   1.000  C
  C104     1.0000 0.88160  0.93200  0.47600  Biso   1.000  C
  C105     1.0000 0.83650  0.04030  0.07000  Biso   1.000  C
  C106     1.0000 0.90890  0.03810  0.03500  Biso   1.000  C
  C107     1.0000 0.91200  0.01300  0.21600  Biso   1.000  C
  C108     1.0000 0.83800  0.01510  0.25000  Biso   1.000  C
  C109     1.0000 0.77730  0.08840  0.08200  Biso   1.000  C
  C110     1.0000 0.72210  0.18910  0.36800  Biso   1.000  C
  C111     1.0000 0.87200  0.05320  0.96000  Biso   1.000  C
  C112     1.0000 0.89830  0.86760  0.58500  Biso   1.000  C
  H86      1.0000 0.90930  0.85060  0.69190  Biso   1.000  H
  C113     1.0000 0.89970  0.90640  0.62900  Biso   1.000  C
  H87      1.0000 0.91290  0.91540  0.76060  Biso   1.000  H
  C114     1.0000 0.88000  0.97490  0.53500  Biso   1.000  C
  H88      1.0000 0.85700  0.97920  0.63780  Biso   1.000  H
  H89      1.0000 0.90460  0.98150  0.61930  Biso   1.000  H
  C115     1.0000 0.94670  0.05020  0.89200  Biso   1.000  C
  H90      1.0000 0.96670  0.02970  0.90000  Biso   1.000  H
  H91      1.0000 0.93850  0.05280  0.73140  Biso   1.000  H
  C116     1.0000 0.74110  0.15380  0.26800  Biso   1.000  C
  C117     1.0000 0.87620  0.00120  0.33500  Biso   1.000  C
  C118     1.0000 0.95330  0.99720  0.28200  Biso   1.000  C
  H92      1.0000 0.95900  0.97470  0.19180  Biso   1.000  H
  H93      1.0000 0.95330  0.99070  0.44360  Biso   1.000  H
  H94      1.0000 0.97390  0.01610  0.25280  Biso   1.000  H
  C119     1.0000 0.88040  0.81150  0.33400  Biso   1.000  C
  C120     1.0000 0.74490  0.10650  0.96700  Biso   1.000  C
  H95      1.0000 0.73510  0.09650  0.82900  Biso   1.000  H
  C121     1.0000 0.95780  0.10590  0.16000  Biso   1.000  C
  H96      1.0000 0.93820  0.09620  0.25970  Biso   1.000  H
  C122     1.0000 0.79050  0.10430  0.27900  Biso   1.000  C
  H97      1.0000 0.81280  0.09320  0.35380  Biso   1.000  H
  C123     1.0000 0.96650  0.08630  0.96700  Biso   1.000  C
  C124     1.0000 0.77280  0.13630  0.37800  Biso   1.000  C
  H98      1.0000 0.78240  0.14590  0.51850  Biso   1.000  H
  C125     1.0000 0.00520  0.15670  0.07300  Biso   1.000  C
  C126     1.0000 0.72740  0.13950  0.05900  Biso   1.000  C
  H99      1.0000 0.70650  0.15190  0.97970  Biso   1.000  H
  C127     1.0000 0.79890  0.00130  0.37000  Biso   1.000  C
  H100     1.0000 0.78120  0.02270  0.39690  Biso   1.000  H
  H101     1.0000 0.80580  0.98960  0.51510  Biso   1.000  H
  H102     1.0000 0.78530  0.98300  0.27290  Biso   1.000  H
  C128     1.0000 0.86990  0.08230  0.77100  Biso   1.000  C
  H103     1.0000 0.87200  0.06980  0.62370  Biso   1.000  H
  H104     1.0000 0.89190  0.10020  0.78860  Biso   1.000  H
  H105     1.0000 0.84430  0.09570  0.78000  Biso   1.000  H
  C129     1.0000 0.99560  0.10310  0.82100  Biso   1.000  C
  H106     1.0000 0.00230  0.09110  0.68170  Biso   1.000  H
  C130     1.0000 0.97700  0.14030  0.21800  Biso   1.000  C
  H107     1.0000 0.97050  0.15230  0.35740  Biso   1.000  H
  C131     1.0000 0.01450  0.13730  0.88000  Biso   1.000  C
  H108     1.0000 0.03450  0.14710  0.78150  Biso   1.000  H
  C132     1.0000 0.02740  0.19500  0.11400  Biso   1.000  C
  O24      1.0000 0.04500  0.20870  0.95100  Biso   1.000  O
  O25      1.0000 0.64790  0.29960  0.71100  Biso   1.000  O
  O26      1.0000 0.80800  0.70420  0.76240  Biso   1.000  O
  O27      1.0000 0.76470  0.70470  0.04400  Biso   1.000  O
  O28      1.0000 0.59450  0.29040  0.93300  Biso   1.000  O
  C133     1.0000 0.63500  0.41780  0.77800  Biso   1.000  C
  H109     1.0000 0.64570  0.43480  0.67000  Biso   1.000  H
  C134     1.0000 0.63660  0.37880  0.73100  Biso   1.000  C
  H110     1.0000 0.64930  0.36990  0.59760  Biso   1.000  H
  O29      1.0000 0.48190  0.70670  0.83400  Biso   1.000  O
  C135     1.0000 0.70510  0.55310  0.47500  Biso   1.000  C
  H111     1.0000 0.70230  0.55740  0.30950  Biso   1.000  H
  H112     1.0000 0.72440  0.53230  0.49570  Biso   1.000  H
  C136     1.0000 0.61930  0.35340  0.88500  Biso   1.000  C
  C137     1.0000 0.61840  0.43200  0.97600  Biso   1.000  C
  C138     1.0000 0.66350  0.54030  0.57000  Biso   1.000  C
  C139     1.0000 0.59110  0.53810  0.53500  Biso   1.000  C
  C140     1.0000 0.58800  0.51300  0.71600  Biso   1.000  C
  C141     1.0000 0.66200  0.51510  0.75000  Biso   1.000  C
  C142     1.0000 0.72270  0.58840  0.58200  Biso   1.000  C
  C143     1.0000 0.77790  0.68910  0.86800  Biso   1.000  C
  C144     1.0000 0.62800  0.55320  0.46000  Biso   1.000  C
  C145     1.0000 0.60170  0.36760  0.08500  Biso   1.000  C
  H113     1.0000 0.59070  0.35060  0.19190  Biso   1.000  H
  C146     1.0000 0.60030  0.40640  0.12900  Biso   1.000  C
  H114     1.0000 0.58710  0.41540  0.26060  Biso   1.000  H
  C147     1.0000 0.62000  0.47490  0.03500  Biso   1.000  C
  H115     1.0000 0.64300  0.47920  0.13780  Biso   1.000  H
  H116     1.0000 0.59540  0.48150  0.11930  Biso   1.000  H
  C148     1.0000 0.55330  0.55020  0.39200  Biso   1.000  C
  H117     1.0000 0.53330  0.52970  0.40000  Biso   1.000  H
  H118     1.0000 0.56150  0.55280  0.23140  Biso   1.000  H
  C149     1.0000 0.75890  0.65380  0.76800  Biso   1.000  C
  C150     1.0000 0.62380  0.50120  0.83500  Biso   1.000  C
  C151     1.0000 0.54670  0.49720  0.78200  Biso   1.000  C
  H119     1.0000 0.54100  0.47470  0.69180  Biso   1.000  H
  H120     1.0000 0.54670  0.49070  0.94360  Biso   1.000  H
  H121     1.0000 0.52610  0.51610  0.75280  Biso   1.000  H
  C152     1.0000 0.61960  0.31150  0.83400  Biso   1.000  C
  C153     1.0000 0.75510  0.60650  0.46700  Biso   1.000  C
  H122     1.0000 0.76490  0.59650  0.32900  Biso   1.000  H
  C154     1.0000 0.54220  0.60590  0.66000  Biso   1.000  C
  H123     1.0000 0.56180  0.59620  0.75970  Biso   1.000  H
  C155     1.0000 0.70950  0.60430  0.77900  Biso   1.000  C
  H124     1.0000 0.68720  0.59320  0.85380  Biso   1.000  H
  C156     1.0000 0.53350  0.58630  0.46700  Biso   1.000  C
  C157     1.0000 0.72720  0.63630  0.87800  Biso   1.000  C
  H125     1.0000 0.71760  0.64590  0.01850  Biso   1.000  H
  C158     1.0000 0.49480  0.65670  0.57300  Biso   1.000  C
  C159     1.0000 0.77260  0.63950  0.55900  Biso   1.000  C
  H126     1.0000 0.79350  0.65190  0.47970  Biso   1.000  H
  C160     1.0000 0.70110  0.50130  0.87000  Biso   1.000  C
  H127     1.0000 0.71880  0.52270  0.89690  Biso   1.000  H
  H128     1.0000 0.69420  0.48960  0.01510  Biso   1.000  H
  H129     1.0000 0.71470  0.48300  0.77290  Biso   1.000  H
  C161     1.0000 0.63010  0.58230  0.27100  Biso   1.000  C
  H130     1.0000 0.62800  0.56980  0.12370  Biso   1.000  H
  H131     1.0000 0.60810  0.60020  0.28860  Biso   1.000  H
  H132     1.0000 0.65570  0.59570  0.28000  Biso   1.000  H
  C162     1.0000 0.50440  0.60310  0.32100  Biso   1.000  C
  H133     1.0000 0.49770  0.59110  0.18170  Biso   1.000  H
  C163     1.0000 0.52300  0.64030  0.71800  Biso   1.000  C
  H134     1.0000 0.52950  0.65230  0.85740  Biso   1.000  H
  C164     1.0000 0.48550  0.63730  0.38000  Biso   1.000  C
  H135     1.0000 0.46550  0.64710  0.28150  Biso   1.000  H
  C165     1.0000 0.47260  0.69500  0.61400  Biso   1.000  C
  O30      1.0000 0.45500  0.70870  0.45100  Biso   1.000  O
  O31      1.0000 0.85210  0.70040  0.21100  Biso   1.000  O
  O32      1.0000 0.69200  0.29580  0.26240  Biso   1.000  O
  O33      1.0000 0.73530  0.29530  0.54400  Biso   1.000  O
  O34      1.0000 0.90550  0.70960  0.43300  Biso   1.000  O
  C166     1.0000 0.86500  0.58220  0.27800  Biso   1.000  C
  H136     1.0000 0.85430  0.56520  0.17000  Biso   1.000  H
  C167     1.0000 0.86340  0.62120  0.23100  Biso   1.000  C
  H137     1.0000 0.85070  0.63010  0.09760  Biso   1.000  H
  O35      1.0000 0.01810  0.29330  0.33400  Biso   1.000  O
  C168     1.0000 0.79490  0.44690  0.97500  Biso   1.000  C
  H138     1.0000 0.79770  0.44260  0.80950  Biso   1.000  H
  H139     1.0000 0.77560  0.46770  0.99570  Biso   1.000  H
  C169     1.0000 0.88070  0.64660  0.38500  Biso   1.000  C
  C170     1.0000 0.88160  0.56800  0.47600  Biso   1.000  C
  C171     1.0000 0.83650  0.45970  0.07000  Biso   1.000  C
  C172     1.0000 0.90890  0.46190  0.03500  Biso   1.000  C
  C173     1.0000 0.91200  0.48700  0.21600  Biso   1.000  C
  C174     1.0000 0.83800  0.48490  0.25000  Biso   1.000  C
  C175     1.0000 0.77730  0.41160  0.08200  Biso   1.000  C
  C176     1.0000 0.72210  0.31090  0.36800  Biso   1.000  C
  C177     1.0000 0.87200  0.44680  0.96000  Biso   1.000  C
  C178     1.0000 0.89830  0.63240  0.58500  Biso   1.000  C
  H140     1.0000 0.90930  0.64940  0.69190  Biso   1.000  H
  C179     1.0000 0.89970  0.59360  0.62900  Biso   1.000  C
  H141     1.0000 0.91290  0.58460  0.76060  Biso   1.000  H
  C180     1.0000 0.88000  0.52510  0.53500  Biso   1.000  C
  H142     1.0000 0.85700  0.52080  0.63780  Biso   1.000  H
  H143     1.0000 0.90460  0.51850  0.61930  Biso   1.000  H
  C181     1.0000 0.94670  0.44980  0.89200  Biso   1.000  C
  H144     1.0000 0.96670  0.47030  0.90000  Biso   1.000  H
  H145     1.0000 0.93850  0.44720  0.73140  Biso   1.000  H
  C182     1.0000 0.74110  0.34620  0.26800  Biso   1.000  C
  C183     1.0000 0.87620  0.49880  0.33500  Biso   1.000  C
  C184     1.0000 0.95330  0.50280  0.28200  Biso   1.000  C
  H146     1.0000 0.95900  0.52530  0.19180  Biso   1.000  H
  H147     1.0000 0.95330  0.50930  0.44360  Biso   1.000  H
  H148     1.0000 0.97390  0.48390  0.25280  Biso   1.000  H
  C185     1.0000 0.88040  0.68850  0.33400  Biso   1.000  C
  C186     1.0000 0.74490  0.39350  0.96700  Biso   1.000  C
  H149     1.0000 0.73510  0.40350  0.82900  Biso   1.000  H
  C187     1.0000 0.95780  0.39410  0.16000  Biso   1.000  C
  H150     1.0000 0.93820  0.40380  0.25970  Biso   1.000  H
  C188     1.0000 0.79050  0.39570  0.27900  Biso   1.000  C
  H151     1.0000 0.81280  0.40680  0.35380  Biso   1.000  H
  C189     1.0000 0.96650  0.41370  0.96700  Biso   1.000  C
  C190     1.0000 0.77280  0.36370  0.37800  Biso   1.000  C
  H152     1.0000 0.78240  0.35410  0.51850  Biso   1.000  H
  C191     1.0000 0.00520  0.34330  0.07300  Biso   1.000  C
  C192     1.0000 0.72740  0.36050  0.05900  Biso   1.000  C
  H153     1.0000 0.70650  0.34810  0.97970  Biso   1.000  H
  C193     1.0000 0.79890  0.49870  0.37000  Biso   1.000  C
  H154     1.0000 0.78120  0.47730  0.39690  Biso   1.000  H
  H155     1.0000 0.80580  0.51040  0.51510  Biso   1.000  H
  H156     1.0000 0.78530  0.51700  0.27290  Biso   1.000  H
  C194     1.0000 0.86990  0.41770  0.77100  Biso   1.000  C
  H157     1.0000 0.87200  0.43020  0.62370  Biso   1.000  H
  H158     1.0000 0.89190  0.39980  0.78860  Biso   1.000  H
  H159     1.0000 0.84430  0.40430  0.78000  Biso   1.000  H
  C195     1.0000 0.99560  0.39690  0.82100  Biso   1.000  C
  H160     1.0000 0.00230  0.40890  0.68170  Biso   1.000  H
  C196     1.0000 0.97700  0.35970  0.21800  Biso   1.000  C
  H161     1.0000 0.97050  0.34770  0.35740  Biso   1.000  H
  C197     1.0000 0.01450  0.36270  0.88000  Biso   1.000  C
  H162     1.0000 0.03450  0.35290  0.78150  Biso   1.000  H
  C198     1.0000 0.02740  0.30500  0.11400  Biso   1.000  C
  O36      1.0000 0.04500  0.29130  0.95100  Biso   1.000  O
  O37      1.0000 0.35210  0.79960  0.28900  Biso   1.000  O
  O38      1.0000 0.19200  0.20420  0.23760  Biso   1.000  O
  O39      1.0000 0.23530  0.20470  0.95600  Biso   1.000  O
  O40      1.0000 0.40550  0.79040  0.06700  Biso   1.000  O
  C199     1.0000 0.36500  0.91780  0.22200  Biso   1.000  C
  H163     1.0000 0.35430  0.93480  0.33000  Biso   1.000  H
  C200     1.0000 0.36340  0.87880  0.26900  Biso   1.000  C
  H164     1.0000 0.35070  0.86990  0.40240  Biso   1.000  H
  O41      1.0000 0.51810  0.20670  0.16600  Biso   1.000  O
  C201     1.0000 0.29490  0.05310  0.52500  Biso   1.000  C
  H165     1.0000 0.29770  0.05740  0.69050  Biso   1.000  H
  H166     1.0000 0.27560  0.03230  0.50430  Biso   1.000  H
  C202     1.0000 0.38070  0.85340  0.11500  Biso   1.000  C
  C203     1.0000 0.38160  0.93200  0.02400  Biso   1.000  C
  C204     1.0000 0.33650  0.04030  0.43000  Biso   1.000  C
  C205     1.0000 0.40890  0.03810  0.46500  Biso   1.000  C
  C206     1.0000 0.41200  0.01300  0.28400  Biso   1.000  C
  C207     1.0000 0.33800  0.01510  0.25000  Biso   1.000  C
  C208     1.0000 0.27730  0.08840  0.41800  Biso   1.000  C
  C209     1.0000 0.22210  0.18910  0.13200  Biso   1.000  C
  C210     1.0000 0.37200  0.05320  0.54000  Biso   1.000  C
  C211     1.0000 0.39830  0.86760  0.91500  Biso   1.000  C
  H167     1.0000 0.40930  0.85060  0.80810  Biso   1.000  H
  C212     1.0000 0.39970  0.90640  0.87100  Biso   1.000  C
  H168     1.0000 0.41290  0.91540  0.73940  Biso   1.000  H
  C213     1.0000 0.38000  0.97490  0.96500  Biso   1.000  C
  H169     1.0000 0.35700  0.97920  0.86220  Biso   1.000  H
  H170     1.0000 0.40460  0.98150  0.88070  Biso   1.000  H
  C214     1.0000 0.44670  0.05020  0.60800  Biso   1.000  C
  H171     1.0000 0.46670  0.02970  0.60000  Biso   1.000  H
  H172     1.0000 0.43850  0.05280  0.76860  Biso   1.000  H
  C215     1.0000 0.24110  0.15380  0.23200  Biso   1.000  C
  C216     1.0000 0.37620  0.00120  0.16500  Biso   1.000  C
  C217     1.0000 0.45330  0.99720  0.21800  Biso   1.000  C
  H173     1.0000 0.45900  0.97470  0.30820  Biso   1.000  H
  H174     1.0000 0.45330  0.99070  0.05640  Biso   1.000  H
  H175     1.0000 0.47390  0.01610  0.24720  Biso   1.000  H
  C218     1.0000 0.38040  0.81150  0.16600  Biso   1.000  C
  C219     1.0000 0.24490  0.10650  0.53300  Biso   1.000  C
  H176     1.0000 0.23510  0.09650  0.67100  Biso   1.000  H
  C220     1.0000 0.45780  0.10590  0.34000  Biso   1.000  C
  H177     1.0000 0.43820  0.09620  0.24030  Biso   1.000  H
  C221     1.0000 0.29050  0.10430  0.22100  Biso   1.000  C
  H178     1.0000 0.31280  0.09320  0.14620  Biso   1.000  H
  C222     1.0000 0.46650  0.08630  0.53300  Biso   1.000  C
  C223     1.0000 0.27280  0.13630  0.12200  Biso   1.000  C
  H179     1.0000 0.28240  0.14590  0.98150  Biso   1.000  H
  C224     1.0000 0.50520  0.15670  0.42700  Biso   1.000  C
  C225     1.0000 0.22740  0.13950  0.44100  Biso   1.000  C
  H180     1.0000 0.20650  0.15190  0.52030  Biso   1.000  H
  C226     1.0000 0.29890  0.00130  0.13000  Biso   1.000  C
  H181     1.0000 0.28120  0.02270  0.10310  Biso   1.000  H
  H182     1.0000 0.30580  0.98960  0.98490  Biso   1.000  H
  H183     1.0000 0.28530  0.98300  0.22710  Biso   1.000  H
  C227     1.0000 0.36990  0.08230  0.72900  Biso   1.000  C
  H184     1.0000 0.37200  0.06980  0.87630  Biso   1.000  H
  H185     1.0000 0.39190  0.10020  0.71140  Biso   1.000  H
  H186     1.0000 0.34430  0.09570  0.72000  Biso   1.000  H
  C228     1.0000 0.49560  0.10310  0.67900  Biso   1.000  C
  H187     1.0000 0.50230  0.09110  0.81830  Biso   1.000  H
  C229     1.0000 0.47700  0.14030  0.28200  Biso   1.000  C
  H188     1.0000 0.47050  0.15230  0.14260  Biso   1.000  H
  C230     1.0000 0.51450  0.13730  0.62000  Biso   1.000  C
  H189     1.0000 0.53450  0.14710  0.71850  Biso   1.000  H
  C231     1.0000 0.52740  0.19500  0.38600  Biso   1.000  C
  O42      1.0000 0.54500  0.20870  0.54900  Biso   1.000  O
  O43      1.0000 0.14790  0.20040  0.78900  Biso   1.000  O
  O44      1.0000 0.30800  0.79580  0.73760  Biso   1.000  O
  O45      1.0000 0.26470  0.79530  0.45600  Biso   1.000  O
  O46      1.0000 0.09450  0.20960  0.56700  Biso   1.000  O
  C232     1.0000 0.13500  0.08220  0.72200  Biso   1.000  C
  H190     1.0000 0.14570  0.06520  0.83000  Biso   1.000  H
  C233     1.0000 0.13660  0.12120  0.76900  Biso   1.000  C
  H191     1.0000 0.14930  0.13010  0.90240  Biso   1.000  H
  O47      1.0000 0.98190  0.79330  0.66600  Biso   1.000  O
  C234     1.0000 0.20510  0.94690  0.02500  Biso   1.000  C
  H192     1.0000 0.20230  0.94260  0.19050  Biso   1.000  H
  H193     1.0000 0.22440  0.96770  0.00430  Biso   1.000  H
  C235     1.0000 0.11930  0.14660  0.61500  Biso   1.000  C
  C236     1.0000 0.11840  0.06800  0.52400  Biso   1.000  C
  C237     1.0000 0.16350  0.95970  0.93000  Biso   1.000  C
  C238     1.0000 0.09110  0.96190  0.96500  Biso   1.000  C
  C239     1.0000 0.08800  0.98700  0.78400  Biso   1.000  C
  C240     1.0000 0.16200  0.98490  0.75000  Biso   1.000  C
  C241     1.0000 0.22270  0.91160  0.91800  Biso   1.000  C
  C242     1.0000 0.27790  0.81090  0.63200  Biso   1.000  C
  C243     1.0000 0.12800  0.94680  0.04000  Biso   1.000  C
  C244     1.0000 0.10170  0.13240  0.41500  Biso   1.000  C
  H194     1.0000 0.09070  0.14940  0.30810  Biso   1.000  H
  C245     1.0000 0.10030  0.09360  0.37100  Biso   1.000  C
  H195     1.0000 0.08710  0.08460  0.23940  Biso   1.000  H
  C246     1.0000 0.12000  0.02510  0.46500  Biso   1.000  C
  H196     1.0000 0.14300  0.02080  0.36220  Biso   1.000  H
  H197     1.0000 0.09540  0.01850  0.38070  Biso   1.000  H
  C247     1.0000 0.05330  0.94980  0.10800  Biso   1.000  C
  H198     1.0000 0.03330  0.97030  0.10000  Biso   1.000  H
  H199     1.0000 0.06150  0.94720  0.26860  Biso   1.000  H
  C248     1.0000 0.25890  0.84620  0.73200  Biso   1.000  C
  C249     1.0000 0.12380  0.99880  0.66500  Biso   1.000  C
  C250     1.0000 0.04670  0.00280  0.71800  Biso   1.000  C
  H200     1.0000 0.04100  0.02530  0.80820  Biso   1.000  H
  H201     1.0000 0.04670  0.00930  0.55640  Biso   1.000  H
  H202     1.0000 0.02610  0.98390  0.74720  Biso   1.000  H
  C251     1.0000 0.11960  0.18850  0.66600  Biso   1.000  C
  C252     1.0000 0.25510  0.89350  0.03300  Biso   1.000  C
  H203     1.0000 0.26490  0.90350  0.17100  Biso   1.000  H
  C253     1.0000 0.04220  0.89410  0.84000  Biso   1.000  C
  H204     1.0000 0.06180  0.90380  0.74030  Biso   1.000  H
  C254     1.0000 0.20950  0.89570  0.72100  Biso   1.000  C
  H205     1.0000 0.18720  0.90680  0.64620  Biso   1.000  H
  C255     1.0000 0.03350  0.91370  0.03300  Biso   1.000  C
  C256     1.0000 0.22720  0.86370  0.62200  Biso   1.000  C
  H206     1.0000 0.21760  0.85410  0.48150  Biso   1.000  H
  C257     1.0000 0.99480  0.84330  0.92700  Biso   1.000  C
  C258     1.0000 0.27260  0.86050  0.94100  Biso   1.000  C
  H207     1.0000 0.29350  0.84810  0.02030  Biso   1.000  H
  C259     1.0000 0.20110  0.99870  0.63000  Biso   1.000  C
  H208     1.0000 0.21880  0.97730  0.60310  Biso   1.000  H
  H209     1.0000 0.19420  0.01040  0.48490  Biso   1.000  H
  H210     1.0000 0.21470  0.01700  0.72710  Biso   1.000  H
  C260     1.0000 0.13010  0.91770  0.22900  Biso   1.000  C
  H211     1.0000 0.12800  0.93020  0.37630  Biso   1.000  H
  H212     1.0000 0.10810  0.89980  0.21140  Biso   1.000  H
  H213     1.0000 0.15570  0.90430  0.22000  Biso   1.000  H
  C261     1.0000 0.00440  0.89690  0.17900  Biso   1.000  C
  H214     1.0000 0.99770  0.90890  0.31830  Biso   1.000  H
  C262     1.0000 0.02300  0.85970  0.78200  Biso   1.000  C
  H215     1.0000 0.02950  0.84770  0.64260  Biso   1.000  H
  C263     1.0000 0.98550  0.86270  0.12000  Biso   1.000  C
  H216     1.0000 0.96550  0.85290  0.21850  Biso   1.000  H
  C264     1.0000 0.97260  0.80500  0.88600  Biso   1.000  C
  O48      1.0000 0.95500  0.79130  0.04900  Biso   1.000  O
  Yb1      1.0000 0.54371  0.25000  0.88010  Biso   1.000  Yb
  Yb2      1.0000 0.95629  0.75000  0.38010  Biso   1.000  Yb
  Yb3      1.0000 0.45629  0.75000  0.11990  Biso   1.000  Yb
  Yb4      1.0000 0.04371  0.25000  0.61990  Biso   1.000  Yb
  Yb5      1.0000 0.31885  0.75000  0.44630  Biso   1.000  Yb
  Yb6      1.0000 0.18115  0.25000  0.94630  Biso   1.000  Yb
  Yb7      1.0000 0.68115  0.25000  0.55370  Biso   1.000  Yb
  Yb8      1.0000 0.81885  0.75000  0.05370  Biso   1.000  Yb
