data_image0
_cell_length_a       12.79
_cell_length_b       12.79
_cell_length_c       11.191
_cell_angle_alpha    90
_cell_angle_beta     90
_cell_angle_gamma    90

_symmetry_space_group_name_H-M    "P 1"
_symmetry_int_tables_number       1

loop_
  _symmetry_equiv_pos_as_xyz
  'x, y, z'

loop_
  _atom_site_label
  _atom_site_occupancy
  _atom_site_fract_x
  _atom_site_fract_y
  _atom_site_fract_z
  _atom_site_thermal_displace_type
  _atom_site_B_iso_or_equiv
  _atom_site_type_symbol
  C1       1.0000 0.87960  0.91130  0.77390  Biso   1.000  C
  H1       1.0000 0.95010  0.91550  0.80770  Biso   1.000  H
  C2       1.0000 0.81050  0.99150  0.83680  Biso   1.000  C
  H2       1.0000 0.81720  0.06630  0.83550  Biso   1.000  H
  C3       1.0000 0.70700  0.01000  0.77670  Biso   1.000  C
  H3       1.0000 0.66360  0.95080  0.79480  Biso   1.000  H
  C4       1.0000 0.71740  0.02180  0.64260  Biso   1.000  C
  H4       1.0000 0.65050  0.01440  0.60450  Biso   1.000  H
  C5       1.0000 0.78500  0.93650  0.59330  Biso   1.000  C
  H5       1.0000 0.75000  0.86990  0.60370  Biso   1.000  H
  H6       1.0000 0.79490  0.94770  0.50830  Biso   1.000  H
  O1       1.0000 0.83840  0.81090  0.79830  Biso   1.000  O
  H7       1.0000 0.83600  0.76000  0.73900  Biso   1.000  H
  O2       1.0000 0.79400  0.95740  0.95710  Biso   1.000  O
  H8       1.0000 0.79140  0.00450  0.01670  Biso   1.000  H
  O3       1.0000 0.66090  0.10230  0.82380  Biso   1.000  O
  H9       1.0000 0.60790  0.09870  0.88050  Biso   1.000  H
  O4       1.0000 0.75910  0.12380  0.62270  Biso   1.000  O
  O5       1.0000 0.88550  0.93270  0.65100  Biso   1.000  O
  C6       1.0000 0.12040  0.08870  0.27390  Biso   1.000  C
  H10      1.0000 0.04990  0.08450  0.30770  Biso   1.000  H
  C7       1.0000 0.18950  0.00850  0.33680  Biso   1.000  C
  H11      1.0000 0.18280  0.93370  0.33550  Biso   1.000  H
  C8       1.0000 0.29300  0.99000  0.27670  Biso   1.000  C
  H12      1.0000 0.33640  0.04920  0.29480  Biso   1.000  H
  C9       1.0000 0.28260  0.97820  0.14260  Biso   1.000  C
  H13      1.0000 0.34950  0.98560  0.10450  Biso   1.000  H
  C10      1.0000 0.21500  0.06350  0.09330  Biso   1.000  C
  H14      1.0000 0.25000  0.13010  0.10370  Biso   1.000  H
  H15      1.0000 0.20510  0.05230  0.00830  Biso   1.000  H
  O6       1.0000 0.16160  0.18910  0.29830  Biso   1.000  O
  H16      1.0000 0.16400  0.24000  0.23900  Biso   1.000  H
  O7       1.0000 0.20600  0.04260  0.45710  Biso   1.000  O
  H17      1.0000 0.20860  0.99550  0.51670  Biso   1.000  H
  O8       1.0000 0.33910  0.89770  0.32380  Biso   1.000  O
  H18      1.0000 0.39210  0.90130  0.38050  Biso   1.000  H
  O9       1.0000 0.24090  0.87620  0.12270  Biso   1.000  O
  O10      1.0000 0.11450  0.06730  0.15100  Biso   1.000  O
  C11      1.0000 0.58870  0.37960  0.52390  Biso   1.000  C
  H19      1.0000 0.58450  0.45010  0.55770  Biso   1.000  H
  C12      1.0000 0.50850  0.31050  0.58680  Biso   1.000  C
  H20      1.0000 0.43370  0.31720  0.58550  Biso   1.000  H
  C13      1.0000 0.49000  0.20700  0.52670  Biso   1.000  C
  H21      1.0000 0.54920  0.16360  0.54480  Biso   1.000  H
  C14      1.0000 0.47820  0.21740  0.39260  Biso   1.000  C
  H22      1.0000 0.48560  0.15050  0.35450  Biso   1.000  H
  C15      1.0000 0.56350  0.28500  0.34330  Biso   1.000  C
  H23      1.0000 0.63010  0.25000  0.35370  Biso   1.000  H
  H24      1.0000 0.55230  0.29490  0.25830  Biso   1.000  H
  O11      1.0000 0.68910  0.33840  0.54830  Biso   1.000  O
  H25      1.0000 0.74000  0.33600  0.48900  Biso   1.000  H
  O12      1.0000 0.54260  0.29400  0.70710  Biso   1.000  O
  H26      1.0000 0.49550  0.29140  0.76670  Biso   1.000  H
  O13      1.0000 0.39770  0.16090  0.57380  Biso   1.000  O
  H27      1.0000 0.40130  0.10790  0.63050  Biso   1.000  H
  O14      1.0000 0.37620  0.25910  0.37270  Biso   1.000  O
  O15      1.0000 0.56730  0.38550  0.40100  Biso   1.000  O
  C16      1.0000 0.41130  0.62040  0.02390  Biso   1.000  C
  H28      1.0000 0.41550  0.54990  0.05770  Biso   1.000  H
  C17      1.0000 0.49150  0.68950  0.08680  Biso   1.000  C
  H29      1.0000 0.56630  0.68280  0.08550  Biso   1.000  H
  C18      1.0000 0.51000  0.79300  0.02670  Biso   1.000  C
  H30      1.0000 0.45080  0.83640  0.04480  Biso   1.000  H
  C19      1.0000 0.52180  0.78260  0.89260  Biso   1.000  C
  H31      1.0000 0.51440  0.84950  0.85450  Biso   1.000  H
  C20      1.0000 0.43650  0.71500  0.84330  Biso   1.000  C
  H32      1.0000 0.36990  0.75000  0.85370  Biso   1.000  H
  H33      1.0000 0.44770  0.70510  0.75830  Biso   1.000  H
  O16      1.0000 0.31090  0.66160  0.04830  Biso   1.000  O
  H34      1.0000 0.26000  0.66400  0.98900  Biso   1.000  H
  O17      1.0000 0.45740  0.70600  0.20710  Biso   1.000  O
  H35      1.0000 0.50450  0.70860  0.26670  Biso   1.000  H
  O18      1.0000 0.60230  0.83910  0.07380  Biso   1.000  O
  H36      1.0000 0.59870  0.89210  0.13050  Biso   1.000  H
  O19      1.0000 0.62380  0.74090  0.87270  Biso   1.000  O
  O20      1.0000 0.43270  0.61450  0.90100  Biso   1.000  O
  C21      1.0000 0.62040  0.41130  0.97610  Biso   1.000  C
  H37      1.0000 0.54990  0.41550  0.94230  Biso   1.000  H
  C22      1.0000 0.68950  0.49150  0.91320  Biso   1.000  C
  H38      1.0000 0.68280  0.56630  0.91450  Biso   1.000  H
  C23      1.0000 0.79300  0.51000  0.97330  Biso   1.000  C
  H39      1.0000 0.83640  0.45080  0.95520  Biso   1.000  H
  C24      1.0000 0.78260  0.52180  0.10740  Biso   1.000  C
  H40      1.0000 0.84950  0.51440  0.14550  Biso   1.000  H
  C25      1.0000 0.71500  0.43650  0.15670  Biso   1.000  C
  H41      1.0000 0.75000  0.36990  0.14630  Biso   1.000  H
  H42      1.0000 0.70510  0.44770  0.24170  Biso   1.000  H
  O21      1.0000 0.66160  0.31090  0.95170  Biso   1.000  O
  H43      1.0000 0.66400  0.26000  0.01100  Biso   1.000  H
  O22      1.0000 0.70600  0.45740  0.79290  Biso   1.000  O
  H44      1.0000 0.70860  0.50450  0.73330  Biso   1.000  H
  O23      1.0000 0.83910  0.60230  0.92620  Biso   1.000  O
  H45      1.0000 0.89210  0.59870  0.86950  Biso   1.000  H
  O24      1.0000 0.74090  0.62380  0.12730  Biso   1.000  O
  O25      1.0000 0.61450  0.43270  0.09900  Biso   1.000  O
  C26      1.0000 0.37960  0.58870  0.47610  Biso   1.000  C
  H46      1.0000 0.45010  0.58450  0.44230  Biso   1.000  H
  C27      1.0000 0.31050  0.50850  0.41320  Biso   1.000  C
  H47      1.0000 0.31720  0.43370  0.41450  Biso   1.000  H
  C28      1.0000 0.20700  0.49000  0.47330  Biso   1.000  C
  H48      1.0000 0.16360  0.54920  0.45520  Biso   1.000  H
  C29      1.0000 0.21740  0.47820  0.60740  Biso   1.000  C
  H49      1.0000 0.15050  0.48560  0.64550  Biso   1.000  H
  C30      1.0000 0.28500  0.56350  0.65670  Biso   1.000  C
  H50      1.0000 0.25000  0.63010  0.64630  Biso   1.000  H
  H51      1.0000 0.29490  0.55230  0.74170  Biso   1.000  H
  O26      1.0000 0.33840  0.68910  0.45170  Biso   1.000  O
  H52      1.0000 0.33600  0.74000  0.51100  Biso   1.000  H
  O27      1.0000 0.29400  0.54260  0.29290  Biso   1.000  O
  H53      1.0000 0.29140  0.49550  0.23330  Biso   1.000  H
  O28      1.0000 0.16090  0.39770  0.42620  Biso   1.000  O
  H54      1.0000 0.10790  0.40130  0.36950  Biso   1.000  H
  O29      1.0000 0.25910  0.37620  0.62730  Biso   1.000  O
  O30      1.0000 0.38550  0.56730  0.59900  Biso   1.000  O
  C31      1.0000 0.91130  0.87960  0.22610  Biso   1.000  C
  H55      1.0000 0.91550  0.95010  0.19230  Biso   1.000  H
  C32      1.0000 0.99150  0.81050  0.16320  Biso   1.000  C
  H56      1.0000 0.06630  0.81720  0.16450  Biso   1.000  H
  C33      1.0000 0.01000  0.70700  0.22330  Biso   1.000  C
  H57      1.0000 0.95080  0.66360  0.20520  Biso   1.000  H
  C34      1.0000 0.02180  0.71740  0.35740  Biso   1.000  C
  H58      1.0000 0.01440  0.65050  0.39550  Biso   1.000  H
  C35      1.0000 0.93650  0.78500  0.40670  Biso   1.000  C
  H59      1.0000 0.86990  0.75000  0.39630  Biso   1.000  H
  H60      1.0000 0.94770  0.79490  0.49170  Biso   1.000  H
  O31      1.0000 0.81090  0.83840  0.20170  Biso   1.000  O
  H61      1.0000 0.76000  0.83600  0.26100  Biso   1.000  H
  O32      1.0000 0.95740  0.79400  0.04290  Biso   1.000  O
  H62      1.0000 0.00450  0.79140  0.98330  Biso   1.000  H
  O33      1.0000 0.10230  0.66090  0.17620  Biso   1.000  O
  H63      1.0000 0.09870  0.60790  0.11950  Biso   1.000  H
  O34      1.0000 0.12380  0.75910  0.37730  Biso   1.000  O
  O35      1.0000 0.93270  0.88550  0.34900  Biso   1.000  O
  C36      1.0000 0.08870  0.12040  0.72610  Biso   1.000  C
  H64      1.0000 0.08450  0.04990  0.69230  Biso   1.000  H
  C37      1.0000 0.00850  0.18950  0.66320  Biso   1.000  C
  H65      1.0000 0.93370  0.18280  0.66450  Biso   1.000  H
  C38      1.0000 0.99000  0.29300  0.72330  Biso   1.000  C
  H66      1.0000 0.04920  0.33640  0.70520  Biso   1.000  H
  C39      1.0000 0.97820  0.28260  0.85740  Biso   1.000  C
  H67      1.0000 0.98560  0.34950  0.89550  Biso   1.000  H
  C40      1.0000 0.06350  0.21500  0.90670  Biso   1.000  C
  H68      1.0000 0.13010  0.25000  0.89630  Biso   1.000  H
  H69      1.0000 0.05230  0.20510  0.99170  Biso   1.000  H
  O36      1.0000 0.18910  0.16160  0.70170  Biso   1.000  O
  H70      1.0000 0.24000  0.16400  0.76100  Biso   1.000  H
  O37      1.0000 0.04260  0.20600  0.54290  Biso   1.000  O
  H71      1.0000 0.99550  0.20860  0.48330  Biso   1.000  H
  O38      1.0000 0.89770  0.33910  0.67620  Biso   1.000  O
  H72      1.0000 0.90130  0.39210  0.61950  Biso   1.000  H
  O39      1.0000 0.87620  0.24090  0.87730  Biso   1.000  O
  O40      1.0000 0.06730  0.11450  0.84900  Biso   1.000  O
  Ca1      1.0000 0.77380  0.77380  0.00000  Biso   1.000  Ca
  Ca2      1.0000 0.22620  0.22620  0.50000  Biso   1.000  Ca
  Ca3      1.0000 0.72620  0.27380  0.75000  Biso   1.000  Ca
  Ca4      1.0000 0.27380  0.72620  0.25000  Biso   1.000  Ca
