data_image0
_cell_length_a       19.1593
_cell_length_b       19.1593
_cell_length_c       37.391
_cell_angle_alpha    90
_cell_angle_beta     90
_cell_angle_gamma    120

_symmetry_space_group_name_H-M    "P 1"
_symmetry_int_tables_number       1

loop_
  _symmetry_equiv_pos_as_xyz
  'x, y, z'

loop_
  _atom_site_label
  _atom_site_occupancy
  _atom_site_fract_x
  _atom_site_fract_y
  _atom_site_fract_z
  _atom_site_thermal_displace_type
  _atom_site_B_iso_or_equiv
  _atom_site_type_symbol
  O1       1.0000 0.11349  0.62982  0.00677  Biso   1.000  O
  O2       1.0000 0.03713  0.59152  0.95746  Biso   1.000  O
  C1       1.0000 0.09820  0.64090  0.97540  Biso   1.000  C
  C2       1.0000 0.15550  0.71820  0.95804  Biso   1.000  C
  C3       1.0000 0.14100  0.73450  0.92276  Biso   1.000  C
  H1       1.0000 0.09360  0.69770  0.91130  Biso   1.000  H
  C4       1.0000 0.24170  0.85570  0.84540  Biso   1.000  C
  C5       1.0000 0.20610  0.89140  0.85630  Biso   1.000  C
  N1       1.0000 0.22473  0.87277  0.81037  Biso   1.000  N
  O3       1.0000 0.78016  0.96315  0.34010  Biso   1.000  O
  O4       1.0000 0.70380  0.92485  0.29079  Biso   1.000  O
  C6       1.0000 0.76487  0.97423  0.30873  Biso   1.000  C
  C7       1.0000 0.82217  0.05153  0.29137  Biso   1.000  C
  C8       1.0000 0.80767  0.06783  0.25609  Biso   1.000  C
  H2       1.0000 0.76027  0.03103  0.24463  Biso   1.000  H
  C9       1.0000 0.90837  0.18903  0.17873  Biso   1.000  C
  C10      1.0000 0.87277  0.22473  0.18963  Biso   1.000  C
  N2       1.0000 0.89140  0.20610  0.14370  Biso   1.000  N
  O5       1.0000 0.44682  0.29649  0.67344  Biso   1.000  O
  O6       1.0000 0.37046  0.25819  0.62413  Biso   1.000  O
  C11      1.0000 0.43153  0.30757  0.64207  Biso   1.000  C
  C12      1.0000 0.48883  0.38487  0.62471  Biso   1.000  C
  C13      1.0000 0.47433  0.40117  0.58943  Biso   1.000  C
  H3       1.0000 0.42693  0.36437  0.57797  Biso   1.000  H
  C14      1.0000 0.57503  0.52237  0.51207  Biso   1.000  C
  C15      1.0000 0.53943  0.55807  0.52297  Biso   1.000  C
  N3       1.0000 0.55807  0.53943  0.47703  Biso   1.000  N
  O7       1.0000 0.37018  0.48367  0.00677  Biso   1.000  O
  O8       1.0000 0.40848  0.44561  0.95746  Biso   1.000  O
  C16      1.0000 0.35910  0.45730  0.97540  Biso   1.000  C
  C17      1.0000 0.28180  0.43730  0.95804  Biso   1.000  C
  C18      1.0000 0.26550  0.40650  0.92276  Biso   1.000  C
  H4       1.0000 0.30230  0.39590  0.91130  Biso   1.000  H
  C19      1.0000 0.14430  0.38600  0.84540  Biso   1.000  C
  C20      1.0000 0.10860  0.31470  0.85630  Biso   1.000  C
  N4       1.0000 0.12723  0.35197  0.81037  Biso   1.000  N
  O9       1.0000 0.03685  0.81700  0.34010  Biso   1.000  O
  O10      1.0000 0.07515  0.77894  0.29079  Biso   1.000  O
  C21      1.0000 0.02577  0.79063  0.30873  Biso   1.000  C
  C22      1.0000 0.94847  0.77063  0.29137  Biso   1.000  C
  C23      1.0000 0.93217  0.73983  0.25609  Biso   1.000  C
  H5       1.0000 0.96897  0.72923  0.24463  Biso   1.000  H
  C24      1.0000 0.81097  0.71933  0.17873  Biso   1.000  C
  C25      1.0000 0.77527  0.64803  0.18963  Biso   1.000  C
  N5       1.0000 0.79390  0.68530  0.14370  Biso   1.000  N
  O11      1.0000 0.70351  0.15034  0.67344  Biso   1.000  O
  O12      1.0000 0.74181  0.11228  0.62413  Biso   1.000  O
  C26      1.0000 0.69243  0.12397  0.64207  Biso   1.000  C
  C27      1.0000 0.61513  0.10397  0.62471  Biso   1.000  C
  C28      1.0000 0.59883  0.07317  0.58943  Biso   1.000  C
  H6       1.0000 0.63563  0.06257  0.57797  Biso   1.000  H
  C29      1.0000 0.47763  0.05267  0.51207  Biso   1.000  C
  C30      1.0000 0.44193  0.98137  0.52297  Biso   1.000  C
  N6       1.0000 0.46057  0.01863  0.47703  Biso   1.000  N
  O13      1.0000 0.51633  0.88651  0.00677  Biso   1.000  O
  O14      1.0000 0.55439  0.96287  0.95746  Biso   1.000  O
  C31      1.0000 0.54270  0.90180  0.97540  Biso   1.000  C
  C32      1.0000 0.56270  0.84450  0.95804  Biso   1.000  C
  C33      1.0000 0.59350  0.85900  0.92276  Biso   1.000  C
  H7       1.0000 0.60410  0.90640  0.91130  Biso   1.000  H
  C34      1.0000 0.61400  0.75830  0.84540  Biso   1.000  C
  C35      1.0000 0.68530  0.79390  0.85630  Biso   1.000  C
  N7       1.0000 0.64803  0.77527  0.81037  Biso   1.000  N
  O15      1.0000 0.18300  0.21984  0.34010  Biso   1.000  O
  O16      1.0000 0.22106  0.29620  0.29079  Biso   1.000  O
  C36      1.0000 0.20937  0.23513  0.30873  Biso   1.000  C
  C37      1.0000 0.22937  0.17783  0.29137  Biso   1.000  C
  C38      1.0000 0.26017  0.19233  0.25609  Biso   1.000  C
  H8       1.0000 0.27077  0.23973  0.24463  Biso   1.000  H
  C39      1.0000 0.28067  0.09163  0.17873  Biso   1.000  C
  C40      1.0000 0.35197  0.12723  0.18963  Biso   1.000  C
  N8       1.0000 0.31470  0.10860  0.14370  Biso   1.000  N
  O17      1.0000 0.84966  0.55318  0.67344  Biso   1.000  O
  O18      1.0000 0.88772  0.62954  0.62413  Biso   1.000  O
  C41      1.0000 0.87603  0.56847  0.64207  Biso   1.000  C
  C42      1.0000 0.89603  0.51117  0.62471  Biso   1.000  C
  C43      1.0000 0.92683  0.52567  0.58943  Biso   1.000  C
  H9       1.0000 0.93743  0.57307  0.57797  Biso   1.000  H
  C44      1.0000 0.94733  0.42497  0.51207  Biso   1.000  C
  C45      1.0000 0.01863  0.46057  0.52297  Biso   1.000  C
  N9       1.0000 0.98137  0.44193  0.47703  Biso   1.000  N
  O19      1.0000 0.62982  0.11349  0.99323  Biso   1.000  O
  O20      1.0000 0.59152  0.03713  0.04254  Biso   1.000  O
  C46      1.0000 0.64090  0.09820  0.02460  Biso   1.000  C
  C47      1.0000 0.71820  0.15550  0.04196  Biso   1.000  C
  C48      1.0000 0.73450  0.14100  0.07724  Biso   1.000  C
  H10      1.0000 0.69770  0.09360  0.08870  Biso   1.000  H
  C49      1.0000 0.85570  0.24170  0.15460  Biso   1.000  C
  O21      1.0000 0.29649  0.44682  0.32656  Biso   1.000  O
  O22      1.0000 0.25819  0.37046  0.37587  Biso   1.000  O
  C50      1.0000 0.30757  0.43153  0.35793  Biso   1.000  C
  C51      1.0000 0.38487  0.48883  0.37529  Biso   1.000  C
  C52      1.0000 0.40117  0.47433  0.41057  Biso   1.000  C
  H11      1.0000 0.36437  0.42693  0.42203  Biso   1.000  H
  C53      1.0000 0.52237  0.57503  0.48793  Biso   1.000  C
  O23      1.0000 0.96315  0.78016  0.65990  Biso   1.000  O
  O24      1.0000 0.92485  0.70380  0.70921  Biso   1.000  O
  C54      1.0000 0.97423  0.76487  0.69127  Biso   1.000  C
  C55      1.0000 0.05153  0.82217  0.70863  Biso   1.000  C
  C56      1.0000 0.06783  0.80767  0.74391  Biso   1.000  C
  H12      1.0000 0.03103  0.76027  0.75537  Biso   1.000  H
  C57      1.0000 0.18903  0.90837  0.82127  Biso   1.000  C
  O25      1.0000 0.48367  0.37018  0.99323  Biso   1.000  O
  O26      1.0000 0.44561  0.40848  0.04254  Biso   1.000  O
  C58      1.0000 0.45730  0.35910  0.02460  Biso   1.000  C
  C59      1.0000 0.43730  0.28180  0.04196  Biso   1.000  C
  C60      1.0000 0.40650  0.26550  0.07724  Biso   1.000  C
  H13      1.0000 0.39590  0.30230  0.08870  Biso   1.000  H
  C61      1.0000 0.38600  0.14430  0.15460  Biso   1.000  C
  O27      1.0000 0.15034  0.70351  0.32656  Biso   1.000  O
  O28      1.0000 0.11228  0.74181  0.37587  Biso   1.000  O
  C62      1.0000 0.12397  0.69243  0.35793  Biso   1.000  C
  C63      1.0000 0.10397  0.61513  0.37529  Biso   1.000  C
  C64      1.0000 0.07317  0.59883  0.41057  Biso   1.000  C
  H14      1.0000 0.06257  0.63563  0.42203  Biso   1.000  H
  C65      1.0000 0.05267  0.47763  0.48793  Biso   1.000  C
  O29      1.0000 0.81700  0.03685  0.65990  Biso   1.000  O
  O30      1.0000 0.77894  0.07515  0.70921  Biso   1.000  O
  C66      1.0000 0.79063  0.02577  0.69127  Biso   1.000  C
  C67      1.0000 0.77063  0.94847  0.70863  Biso   1.000  C
  C68      1.0000 0.73983  0.93217  0.74391  Biso   1.000  C
  H15      1.0000 0.72923  0.96897  0.75537  Biso   1.000  H
  C69      1.0000 0.71933  0.81097  0.82127  Biso   1.000  C
  O31      1.0000 0.88651  0.51633  0.99323  Biso   1.000  O
  O32      1.0000 0.96287  0.55439  0.04254  Biso   1.000  O
  C70      1.0000 0.90180  0.54270  0.02460  Biso   1.000  C
  C71      1.0000 0.84450  0.56270  0.04196  Biso   1.000  C
  C72      1.0000 0.85900  0.59350  0.07724  Biso   1.000  C
  H16      1.0000 0.90640  0.60410  0.08870  Biso   1.000  H
  C73      1.0000 0.75830  0.61400  0.15460  Biso   1.000  C
  O33      1.0000 0.55318  0.84966  0.32656  Biso   1.000  O
  O34      1.0000 0.62954  0.88772  0.37587  Biso   1.000  O
  C74      1.0000 0.56847  0.87603  0.35793  Biso   1.000  C
  C75      1.0000 0.51117  0.89603  0.37529  Biso   1.000  C
  C76      1.0000 0.52567  0.92683  0.41057  Biso   1.000  C
  H17      1.0000 0.57307  0.93743  0.42203  Biso   1.000  H
  C77      1.0000 0.42497  0.94733  0.48793  Biso   1.000  C
  O35      1.0000 0.21984  0.18300  0.65990  Biso   1.000  O
  O36      1.0000 0.29620  0.22106  0.70921  Biso   1.000  O
  C78      1.0000 0.23513  0.20937  0.69127  Biso   1.000  C
  C79      1.0000 0.17783  0.22937  0.70863  Biso   1.000  C
  C80      1.0000 0.19233  0.26017  0.74391  Biso   1.000  C
  H18      1.0000 0.23973  0.27077  0.75537  Biso   1.000  H
  C81      1.0000 0.09163  0.28067  0.82127  Biso   1.000  C
  O37      1.0000 0.88651  0.37018  0.99323  Biso   1.000  O
  O38      1.0000 0.96287  0.40848  0.04254  Biso   1.000  O
  C82      1.0000 0.90180  0.35910  0.02460  Biso   1.000  C
  C83      1.0000 0.84450  0.28180  0.04196  Biso   1.000  C
  C84      1.0000 0.85900  0.26550  0.07724  Biso   1.000  C
  H19      1.0000 0.90640  0.30230  0.08870  Biso   1.000  H
  C85      1.0000 0.75830  0.14430  0.15460  Biso   1.000  C
  C86      1.0000 0.79390  0.10860  0.14370  Biso   1.000  C
  N10      1.0000 0.77527  0.12723  0.18963  Biso   1.000  N
  O39      1.0000 0.55318  0.70351  0.32656  Biso   1.000  O
  O40      1.0000 0.62954  0.74181  0.37587  Biso   1.000  O
  C87      1.0000 0.56847  0.69243  0.35793  Biso   1.000  C
  C88      1.0000 0.51117  0.61513  0.37529  Biso   1.000  C
  C89      1.0000 0.52567  0.59883  0.41057  Biso   1.000  C
  H20      1.0000 0.57307  0.63563  0.42203  Biso   1.000  H
  C90      1.0000 0.42497  0.47763  0.48793  Biso   1.000  C
  C91      1.0000 0.46057  0.44193  0.47703  Biso   1.000  C
  N11      1.0000 0.44193  0.46057  0.52297  Biso   1.000  N
  O41      1.0000 0.21984  0.03685  0.65990  Biso   1.000  O
  O42      1.0000 0.29620  0.07515  0.70921  Biso   1.000  O
  C92      1.0000 0.23513  0.02577  0.69127  Biso   1.000  C
  C93      1.0000 0.17783  0.94847  0.70863  Biso   1.000  C
  C94      1.0000 0.19233  0.93217  0.74391  Biso   1.000  C
  H21      1.0000 0.23973  0.96897  0.75537  Biso   1.000  H
  C95      1.0000 0.09163  0.81097  0.82127  Biso   1.000  C
  C96      1.0000 0.12723  0.77527  0.81037  Biso   1.000  C
  N12      1.0000 0.10860  0.79390  0.85630  Biso   1.000  N
  O43      1.0000 0.62982  0.51633  0.99323  Biso   1.000  O
  O44      1.0000 0.59152  0.55439  0.04254  Biso   1.000  O
  C97      1.0000 0.64090  0.54270  0.02460  Biso   1.000  C
  C98      1.0000 0.71820  0.56270  0.04196  Biso   1.000  C
  C99      1.0000 0.73450  0.59350  0.07724  Biso   1.000  C
  H22      1.0000 0.69770  0.60410  0.08870  Biso   1.000  H
  C100     1.0000 0.85570  0.61400  0.15460  Biso   1.000  C
  C101     1.0000 0.89140  0.68530  0.14370  Biso   1.000  C
  N13      1.0000 0.87277  0.64803  0.18963  Biso   1.000  N
  O45      1.0000 0.29649  0.84966  0.32656  Biso   1.000  O
  O46      1.0000 0.25819  0.88772  0.37587  Biso   1.000  O
  C102     1.0000 0.30757  0.87603  0.35793  Biso   1.000  C
  C103     1.0000 0.38487  0.89603  0.37529  Biso   1.000  C
  C104     1.0000 0.40117  0.92683  0.41057  Biso   1.000  C
  H23      1.0000 0.36437  0.93743  0.42203  Biso   1.000  H
  C105     1.0000 0.52237  0.94733  0.48793  Biso   1.000  C
  C106     1.0000 0.55807  0.01863  0.47703  Biso   1.000  C
  N14      1.0000 0.53943  0.98137  0.52297  Biso   1.000  N
  O47      1.0000 0.96315  0.18300  0.65990  Biso   1.000  O
  O48      1.0000 0.92485  0.22106  0.70921  Biso   1.000  O
  C107     1.0000 0.97423  0.20937  0.69127  Biso   1.000  C
  C108     1.0000 0.05153  0.22937  0.70863  Biso   1.000  C
  C109     1.0000 0.06783  0.26017  0.74391  Biso   1.000  C
  H24      1.0000 0.03103  0.27077  0.75537  Biso   1.000  H
  C110     1.0000 0.18903  0.28067  0.82127  Biso   1.000  C
  C111     1.0000 0.22473  0.35197  0.81037  Biso   1.000  C
  N15      1.0000 0.20610  0.31470  0.85630  Biso   1.000  N
  O49      1.0000 0.48367  0.11349  0.99323  Biso   1.000  O
  O50      1.0000 0.44561  0.03713  0.04254  Biso   1.000  O
  C112     1.0000 0.45730  0.09820  0.02460  Biso   1.000  C
  C113     1.0000 0.43730  0.15550  0.04196  Biso   1.000  C
  C114     1.0000 0.40650  0.14100  0.07724  Biso   1.000  C
  H25      1.0000 0.39590  0.09360  0.08870  Biso   1.000  H
  C115     1.0000 0.38600  0.24170  0.15460  Biso   1.000  C
  C116     1.0000 0.31470  0.20610  0.14370  Biso   1.000  C
  N16      1.0000 0.35197  0.22473  0.18963  Biso   1.000  N
  O51      1.0000 0.15034  0.44682  0.32656  Biso   1.000  O
  O52      1.0000 0.11228  0.37046  0.37587  Biso   1.000  O
  C117     1.0000 0.12397  0.43153  0.35793  Biso   1.000  C
  C118     1.0000 0.10397  0.48883  0.37529  Biso   1.000  C
  C119     1.0000 0.07317  0.47433  0.41057  Biso   1.000  C
  H26      1.0000 0.06257  0.42693  0.42203  Biso   1.000  H
  C120     1.0000 0.05267  0.57503  0.48793  Biso   1.000  C
  C121     1.0000 0.98137  0.53943  0.47703  Biso   1.000  C
  N17      1.0000 0.01863  0.55807  0.52297  Biso   1.000  N
  O53      1.0000 0.81700  0.78016  0.65990  Biso   1.000  O
  O54      1.0000 0.77894  0.70380  0.70921  Biso   1.000  O
  C122     1.0000 0.79063  0.76487  0.69127  Biso   1.000  C
  C123     1.0000 0.77063  0.82217  0.70863  Biso   1.000  C
  C124     1.0000 0.73983  0.80767  0.74391  Biso   1.000  C
  H27      1.0000 0.72923  0.76027  0.75537  Biso   1.000  H
  C125     1.0000 0.71933  0.90837  0.82127  Biso   1.000  C
  C126     1.0000 0.64803  0.87277  0.81037  Biso   1.000  C
  N18      1.0000 0.68530  0.89140  0.85630  Biso   1.000  N
  O55      1.0000 0.37018  0.88651  0.00677  Biso   1.000  O
  O56      1.0000 0.40848  0.96287  0.95746  Biso   1.000  O
  C127     1.0000 0.35910  0.90180  0.97540  Biso   1.000  C
  C128     1.0000 0.28180  0.84450  0.95804  Biso   1.000  C
  C129     1.0000 0.26550  0.85900  0.92276  Biso   1.000  C
  H28      1.0000 0.30230  0.90640  0.91130  Biso   1.000  H
  C130     1.0000 0.14430  0.75830  0.84540  Biso   1.000  C
  O57      1.0000 0.03685  0.21984  0.34010  Biso   1.000  O
  O58      1.0000 0.07515  0.29620  0.29079  Biso   1.000  O
  C131     1.0000 0.02577  0.23513  0.30873  Biso   1.000  C
  C132     1.0000 0.94847  0.17783  0.29137  Biso   1.000  C
  C133     1.0000 0.93217  0.19233  0.25609  Biso   1.000  C
  H29      1.0000 0.96897  0.23973  0.24463  Biso   1.000  H
  C134     1.0000 0.81097  0.09163  0.17873  Biso   1.000  C
  O59      1.0000 0.70351  0.55318  0.67344  Biso   1.000  O
  O60      1.0000 0.74181  0.62954  0.62413  Biso   1.000  O
  C135     1.0000 0.69243  0.56847  0.64207  Biso   1.000  C
  C136     1.0000 0.61513  0.51117  0.62471  Biso   1.000  C
  C137     1.0000 0.59883  0.52567  0.58943  Biso   1.000  C
  H30      1.0000 0.63563  0.57307  0.57797  Biso   1.000  H
  C138     1.0000 0.47763  0.42497  0.51207  Biso   1.000  C
  O61      1.0000 0.51633  0.62982  0.00677  Biso   1.000  O
  O62      1.0000 0.55439  0.59152  0.95746  Biso   1.000  O
  C139     1.0000 0.54270  0.64090  0.97540  Biso   1.000  C
  C140     1.0000 0.56270  0.71820  0.95804  Biso   1.000  C
  C141     1.0000 0.59350  0.73450  0.92276  Biso   1.000  C
  H31      1.0000 0.60410  0.69770  0.91130  Biso   1.000  H
  C142     1.0000 0.61400  0.85570  0.84540  Biso   1.000  C
  O63      1.0000 0.18300  0.96315  0.34010  Biso   1.000  O
  O64      1.0000 0.22106  0.92485  0.29079  Biso   1.000  O
  C143     1.0000 0.20937  0.97423  0.30873  Biso   1.000  C
  C144     1.0000 0.22937  0.05153  0.29137  Biso   1.000  C
  C145     1.0000 0.26017  0.06783  0.25609  Biso   1.000  C
  H32      1.0000 0.27077  0.03103  0.24463  Biso   1.000  H
  C146     1.0000 0.28067  0.18903  0.17873  Biso   1.000  C
  O65      1.0000 0.84966  0.29649  0.67344  Biso   1.000  O
  O66      1.0000 0.88772  0.25819  0.62413  Biso   1.000  O
  C147     1.0000 0.87603  0.30757  0.64207  Biso   1.000  C
  C148     1.0000 0.89603  0.38487  0.62471  Biso   1.000  C
  C149     1.0000 0.92683  0.40117  0.58943  Biso   1.000  C
  H33      1.0000 0.93743  0.36437  0.57797  Biso   1.000  H
  C150     1.0000 0.94733  0.52237  0.51207  Biso   1.000  C
  O67      1.0000 0.11349  0.48367  0.00677  Biso   1.000  O
  O68      1.0000 0.03713  0.44561  0.95746  Biso   1.000  O
  C151     1.0000 0.09820  0.45730  0.97540  Biso   1.000  C
  C152     1.0000 0.15550  0.43730  0.95804  Biso   1.000  C
  C153     1.0000 0.14100  0.40650  0.92276  Biso   1.000  C
  H34      1.0000 0.09360  0.39590  0.91130  Biso   1.000  H
  C154     1.0000 0.24170  0.38600  0.84540  Biso   1.000  C
  O69      1.0000 0.78016  0.81700  0.34010  Biso   1.000  O
  O70      1.0000 0.70380  0.77894  0.29079  Biso   1.000  O
  C155     1.0000 0.76487  0.79063  0.30873  Biso   1.000  C
  C156     1.0000 0.82217  0.77063  0.29137  Biso   1.000  C
  C157     1.0000 0.80767  0.73983  0.25609  Biso   1.000  C
  H35      1.0000 0.76027  0.72923  0.24463  Biso   1.000  H
  C158     1.0000 0.90837  0.71933  0.17873  Biso   1.000  C
  O71      1.0000 0.44682  0.15034  0.67344  Biso   1.000  O
  O72      1.0000 0.37046  0.11228  0.62413  Biso   1.000  O
  C159     1.0000 0.43153  0.12397  0.64207  Biso   1.000  C
  C160     1.0000 0.48883  0.10397  0.62471  Biso   1.000  C
  C161     1.0000 0.47433  0.07317  0.58943  Biso   1.000  C
  H36      1.0000 0.42693  0.06257  0.57797  Biso   1.000  H
  C162     1.0000 0.57503  0.05267  0.51207  Biso   1.000  C
  Zn1      1.0000 0.04867  0.52434  0.03353  Biso   1.000  Zn
  Zn2      1.0000 0.71534  0.85767  0.36686  Biso   1.000  Zn
  Zn3      1.0000 0.38200  0.19100  0.70019  Biso   1.000  Zn
  Zn4      1.0000 0.47567  0.52434  0.03353  Biso   1.000  Zn
  Zn5      1.0000 0.14233  0.85767  0.36686  Biso   1.000  Zn
  Zn6      1.0000 0.80900  0.19100  0.70019  Biso   1.000  Zn
  Zn7      1.0000 0.47566  0.95133  0.03353  Biso   1.000  Zn
  Zn8      1.0000 0.14233  0.28466  0.36686  Biso   1.000  Zn
  Zn9      1.0000 0.80900  0.61800  0.70019  Biso   1.000  Zn
  Zn10     1.0000 0.52434  0.04867  0.96647  Biso   1.000  Zn
  Zn11     1.0000 0.19100  0.38200  0.29981  Biso   1.000  Zn
  Zn12     1.0000 0.85767  0.71534  0.63314  Biso   1.000  Zn
  Zn13     1.0000 0.52434  0.47566  0.96647  Biso   1.000  Zn
  Zn14     1.0000 0.19100  0.80900  0.29981  Biso   1.000  Zn
  Zn15     1.0000 0.85767  0.14233  0.63314  Biso   1.000  Zn
  Zn16     1.0000 0.95133  0.47566  0.96647  Biso   1.000  Zn
  Zn17     1.0000 0.61800  0.80900  0.29981  Biso   1.000  Zn
  Zn18     1.0000 0.28466  0.14233  0.63314  Biso   1.000  Zn
  C163     1.0000 0.22526  0.77474  0.97530  Biso   1.000  C
  H37      1.0000 0.23430  0.76570  0.99890  Biso   1.000  H
  C164     1.0000 0.19590  0.80410  0.90478  Biso   1.000  C
  C165     1.0000 0.18080  0.81920  0.86803  Biso   1.000  C
  C166     1.0000 0.89193  0.10807  0.30863  Biso   1.000  C
  H38      1.0000 0.90097  0.09903  0.33223  Biso   1.000  H
  C167     1.0000 0.86257  0.13743  0.23811  Biso   1.000  C
  C168     1.0000 0.84747  0.15253  0.20136  Biso   1.000  C
  C169     1.0000 0.55859  0.44141  0.64197  Biso   1.000  C
  H39      1.0000 0.56763  0.43237  0.66557  Biso   1.000  H
  C170     1.0000 0.52923  0.47077  0.57145  Biso   1.000  C
  C171     1.0000 0.51413  0.48587  0.53470  Biso   1.000  C
  C172     1.0000 0.22526  0.45052  0.97530  Biso   1.000  C
  H40      1.0000 0.23430  0.46860  0.99890  Biso   1.000  H
  C173     1.0000 0.19590  0.39180  0.90478  Biso   1.000  C
  C174     1.0000 0.18080  0.36160  0.86803  Biso   1.000  C
  C175     1.0000 0.89193  0.78385  0.30863  Biso   1.000  C
  H41      1.0000 0.90097  0.80193  0.33223  Biso   1.000  H
  C176     1.0000 0.86257  0.72513  0.23811  Biso   1.000  C
  C177     1.0000 0.84747  0.69493  0.20136  Biso   1.000  C
  C178     1.0000 0.55859  0.11719  0.64197  Biso   1.000  C
  H42      1.0000 0.56763  0.13527  0.66557  Biso   1.000  H
  C179     1.0000 0.52923  0.05847  0.57145  Biso   1.000  C
  C180     1.0000 0.51413  0.02827  0.53470  Biso   1.000  C
  C181     1.0000 0.54948  0.77474  0.97530  Biso   1.000  C
  H43      1.0000 0.53140  0.76570  0.99890  Biso   1.000  H
  C182     1.0000 0.60820  0.80410  0.90478  Biso   1.000  C
  C183     1.0000 0.63840  0.81920  0.86803  Biso   1.000  C
  C184     1.0000 0.21615  0.10807  0.30863  Biso   1.000  C
  H44      1.0000 0.19807  0.09903  0.33223  Biso   1.000  H
  C185     1.0000 0.27487  0.13743  0.23811  Biso   1.000  C
  C186     1.0000 0.30507  0.15253  0.20136  Biso   1.000  C
  C187     1.0000 0.88281  0.44141  0.64197  Biso   1.000  C
  H45      1.0000 0.86473  0.43237  0.66557  Biso   1.000  H
  C188     1.0000 0.94153  0.47077  0.57145  Biso   1.000  C
  C189     1.0000 0.97173  0.48587  0.53470  Biso   1.000  C
  C190     1.0000 0.77474  0.22526  0.02470  Biso   1.000  C
  H46      1.0000 0.76570  0.23430  0.00110  Biso   1.000  H
  C191     1.0000 0.80410  0.19590  0.09522  Biso   1.000  C
  C192     1.0000 0.81920  0.18080  0.13197  Biso   1.000  C
  C193     1.0000 0.44141  0.55859  0.35803  Biso   1.000  C
  H47      1.0000 0.43237  0.56763  0.33443  Biso   1.000  H
  C194     1.0000 0.47077  0.52923  0.42855  Biso   1.000  C
  C195     1.0000 0.48587  0.51413  0.46530  Biso   1.000  C
  C196     1.0000 0.10807  0.89193  0.69137  Biso   1.000  C
  H48      1.0000 0.09903  0.90097  0.66777  Biso   1.000  H
  C197     1.0000 0.13743  0.86257  0.76189  Biso   1.000  C
  C198     1.0000 0.15253  0.84747  0.79864  Biso   1.000  C
  C199     1.0000 0.45052  0.22526  0.02470  Biso   1.000  C
  H49      1.0000 0.46860  0.23430  0.00110  Biso   1.000  H
  C200     1.0000 0.39180  0.19590  0.09522  Biso   1.000  C
  C201     1.0000 0.36160  0.18080  0.13197  Biso   1.000  C
  C202     1.0000 0.11719  0.55859  0.35803  Biso   1.000  C
  H50      1.0000 0.13527  0.56763  0.33443  Biso   1.000  H
  C203     1.0000 0.05847  0.52923  0.42855  Biso   1.000  C
  C204     1.0000 0.02827  0.51413  0.46530  Biso   1.000  C
  C205     1.0000 0.78385  0.89193  0.69137  Biso   1.000  C
  H51      1.0000 0.80193  0.90097  0.66777  Biso   1.000  H
  C206     1.0000 0.72513  0.86257  0.76189  Biso   1.000  C
  C207     1.0000 0.69493  0.84747  0.79864  Biso   1.000  C
  C208     1.0000 0.77474  0.54948  0.02470  Biso   1.000  C
  H52      1.0000 0.76570  0.53140  0.00110  Biso   1.000  H
  C209     1.0000 0.80410  0.60820  0.09522  Biso   1.000  C
  C210     1.0000 0.81920  0.63840  0.13197  Biso   1.000  C
  C211     1.0000 0.44141  0.88281  0.35803  Biso   1.000  C
  H53      1.0000 0.43237  0.86473  0.33443  Biso   1.000  H
  C212     1.0000 0.47077  0.94153  0.42855  Biso   1.000  C
  C213     1.0000 0.48587  0.97173  0.46530  Biso   1.000  C
  C214     1.0000 0.10807  0.21615  0.69137  Biso   1.000  C
  H54      1.0000 0.09903  0.19807  0.66777  Biso   1.000  H
  C215     1.0000 0.13743  0.27487  0.76189  Biso   1.000  C
  C216     1.0000 0.15253  0.30507  0.79864  Biso   1.000  C
