data_WUHJIT_clean
_audit_creation_date              2014-07-02
_audit_creation_method            'Materials Studio'
_symmetry_space_group_name_H-M    'P1'
_symmetry_Int_Tables_number       1
_symmetry_cell_setting            triclinic
loop_
_symmetry_equiv_pos_as_xyz
  x,y,z
_cell_length_a                    14.8730
_cell_length_b                    18.9293
_cell_length_c                    18.9293
_cell_angle_alpha                 66.6024
_cell_angle_beta                  74.8169
_cell_angle_gamma                 105.1830
loop_
_atom_site_label
_atom_site_type_symbol
_atom_site_fract_x
_atom_site_fract_y
_atom_site_fract_z
_atom_site_U_iso_or_equiv
_atom_site_adp_type
_atom_site_occupancy
Mg1    Mg    0.09877   0.71502   0.32577   0.01267  Uiso   1.00
Mg2    Mg    0.42454   0.32577   0.95921   0.01267  Uiso   1.00
Mg3    Mg    0.38375   0.95921   0.71502   0.01267  Uiso   1.00
Mg4    Mg    0.90123   0.28498   0.67423   0.01267  Uiso   1.00
Mg5    Mg    0.57546   0.67423   0.04079   0.01267  Uiso   1.00
Mg6    Mg    0.61625   0.04079   0.28498   0.01267  Uiso   1.00
Mg7    Mg    0.00000   0.50000   0.50000   0.01267  Uiso   1.00
Mg8    Mg    0.50000   0.50000   0.00000   0.01267  Uiso   1.00
Mg9    Mg    0.50000  -0.00000   0.50000   0.01267  Uiso   1.00
H1     H     0.28390   0.61900   0.19030   0.01267  Uiso   1.00
H2     H     0.18890   0.40110   0.18240   0.01267  Uiso   1.00
H3     H     0.00410   0.45250   0.34480   0.01267  Uiso   1.00
H4     H     0.02780   0.33870   0.18990   0.01267  Uiso   1.00
H5     H     0.87250   0.24210   0.22260   0.01267  Uiso   1.00
H6     H     0.77950   0.18360   0.45960   0.01267  Uiso   1.00
H7     H     0.93230   0.29150   0.40760   0.01267  Uiso   1.00
H8     H     0.47420   0.19030   0.19070   0.01267  Uiso   1.00
H9     H     0.37130   0.18240   0.41650   0.01267  Uiso   1.00
H10    H     0.34890   0.34480   0.20270   0.01267  Uiso   1.00
H11    H     0.21770   0.18990   0.47140   0.01267  Uiso   1.00
H12    H     0.09510   0.22260   0.53530   0.01267  Uiso   1.00
H13    H     0.23910   0.45960   0.35680   0.01267  Uiso   1.00
H14    H     0.33990   0.40760   0.30090   0.01267  Uiso   1.00
H15    H     0.66490   0.19070   0.61900   0.01267  Uiso   1.00
H16    H     0.78780   0.41650   0.40110   0.01267  Uiso   1.00
H17    H     0.55160   0.20270   0.45250   0.01267  Uiso   1.00
H18    H     0.68910   0.47140   0.33870   0.01267  Uiso   1.00
H19    H     0.63040   0.53530   0.24210   0.01267  Uiso   1.00
H20    H     0.59590   0.35680   0.18360   0.01267  Uiso   1.00
H21    H     0.64080   0.30090   0.29150   0.01267  Uiso   1.00
H22    H     0.71610   0.38100   0.80970   0.01267  Uiso   1.00
H23    H     0.81110   0.59890   0.81760   0.01267  Uiso   1.00
H24    H     0.99590   0.54750   0.65520   0.01267  Uiso   1.00
H25    H     0.97220   0.66130   0.81010   0.01267  Uiso   1.00
H26    H     0.12750   0.75790   0.77740   0.01267  Uiso   1.00
H27    H     0.22050   0.81640   0.54040   0.01267  Uiso   1.00
H28    H     0.06770   0.70850   0.59240   0.01267  Uiso   1.00
H29    H     0.52580   0.80970   0.80930   0.01267  Uiso   1.00
H30    H     0.62870   0.81760   0.58350   0.01267  Uiso   1.00
H31    H     0.65110   0.65520   0.79730   0.01267  Uiso   1.00
H32    H     0.78230   0.81010   0.52860   0.01267  Uiso   1.00
H33    H     0.90490   0.77740   0.46470   0.01267  Uiso   1.00
H34    H     0.76090   0.54040   0.64320   0.01267  Uiso   1.00
H35    H     0.66010   0.59240   0.69910   0.01267  Uiso   1.00
H36    H     0.33510   0.80930   0.38100   0.01267  Uiso   1.00
H37    H     0.21220   0.58350   0.59890   0.01267  Uiso   1.00
H38    H     0.44840   0.79730   0.54750   0.01267  Uiso   1.00
H39    H     0.31090   0.52860   0.66130   0.01267  Uiso   1.00
H40    H     0.36960   0.46470   0.75790   0.01267  Uiso   1.00
H41    H     0.40410   0.64320   0.81640   0.01267  Uiso   1.00
H42    H     0.35920   0.69910   0.70850   0.01267  Uiso   1.00
C1     C     0.14149   0.54425   0.26822   0.01267  Uiso   1.00
C2     C     0.23558   0.56868   0.20622   0.01267  Uiso   1.00
C3     C     0.25302   0.51548   0.17618   0.01267  Uiso   1.00
C4     C     0.17361   0.43878   0.20622   0.01267  Uiso   1.00
C5     C     0.07801   0.41384   0.26798   0.01267  Uiso   1.00
C6     C     0.06365   0.46591   0.30097   0.01267  Uiso   1.00
C7     C     0.12511   0.60475   0.29677   0.01267  Uiso   1.00
C8     C     0.35835   0.54254   0.11291   0.01267  Uiso   1.00
C9     C     0.99036   0.33483   0.29568   0.01267  Uiso   1.00
C10    C     0.97466   0.31425   0.23667   0.01267  Uiso   1.00
C11    C     0.88749   0.24678   0.25911   0.01267  Uiso   1.00
C12    C     0.81448   0.19775   0.34133   0.01267  Uiso   1.00
C13    C     0.83211   0.21626   0.40088   0.01267  Uiso   1.00
C14    C     0.91949   0.28396   0.37864   0.01267  Uiso   1.00
C15    C     0.71802   0.12729   0.36312   0.01267  Uiso   1.00
C16    C     0.40971   0.26822   0.18753   0.01267  Uiso   1.00
C17    C     0.44180   0.20622   0.22510   0.01267  Uiso   1.00
C18    C     0.42920   0.17618   0.30834   0.01267  Uiso   1.00
C19    C     0.37983   0.20622   0.35500   0.01267  Uiso   1.00
C20    C     0.34599   0.26798   0.31818   0.01267  Uiso   1.00
C21    C     0.36462   0.30097   0.23312   0.01267  Uiso   1.00
C22    C     0.42188   0.29677   0.09848   0.01267  Uiso   1.00
C23    C     0.47126   0.11291   0.34455   0.01267  Uiso   1.00
C24    C     0.28604   0.29568   0.36949   0.01267  Uiso   1.00
C25    C     0.21133   0.23667   0.44908   0.01267  Uiso   1.00
C26    C     0.14660   0.25911   0.49411   0.01267  Uiso   1.00
C27    C     0.15581   0.34133   0.46092   0.01267  Uiso   1.00
C28    C     0.23299   0.40088   0.38286   0.01267  Uiso   1.00
C29    C     0.29813   0.37864   0.33740   0.01267  Uiso   1.00
C30    C     0.08114   0.36312   0.50959   0.01267  Uiso   1.00
C31    C     0.59724   0.18753   0.54425   0.01267  Uiso   1.00
C32    C     0.66690   0.22510   0.56868   0.01267  Uiso   1.00
C33    C     0.73754   0.30834   0.51548   0.01267  Uiso   1.00
C34    C     0.73483   0.35500   0.43878   0.01267  Uiso   1.00
C35    C     0.66417   0.31818   0.41384   0.01267  Uiso   1.00
C36    C     0.59774   0.23312   0.46591   0.01267  Uiso   1.00
C37    C     0.52036   0.09848   0.60475   0.01267  Uiso   1.00
C38    C     0.81581   0.34455   0.54254   0.01267  Uiso   1.00
C39    C     0.65553   0.36949   0.33483   0.01267  Uiso   1.00
C40    C     0.66041   0.44908   0.31425   0.01267  Uiso   1.00
C41    C     0.64071   0.49411   0.24678   0.01267  Uiso   1.00
C42    C     0.61673   0.46092   0.19775   0.01267  Uiso   1.00
C43    C     0.61585   0.38286   0.21626   0.01267  Uiso   1.00
C44    C     0.63553   0.33740   0.28396   0.01267  Uiso   1.00
C45    C     0.59073   0.50959   0.12729   0.01267  Uiso   1.00
C46    C     0.85851   0.45575   0.73178   0.01267  Uiso   1.00
C47    C     0.76442   0.43132   0.79378   0.01267  Uiso   1.00
C48    C     0.74698   0.48452   0.82382   0.01267  Uiso   1.00
C49    C     0.82639   0.56122   0.79378   0.01267  Uiso   1.00
C50    C     0.92199   0.58616   0.73202   0.01267  Uiso   1.00
C51    C     0.93635   0.53409   0.69903   0.01267  Uiso   1.00
C52    C     0.87489   0.39525   0.70323   0.01267  Uiso   1.00
C53    C     0.64165   0.45746   0.88709   0.01267  Uiso   1.00
C54    C     0.00964   0.66517   0.70432   0.01267  Uiso   1.00
C55    C     0.02534   0.68575   0.76333   0.01267  Uiso   1.00
C56    C     0.11251   0.75322   0.74089   0.01267  Uiso   1.00
C57    C     0.18552   0.80225   0.65867   0.01267  Uiso   1.00
C58    C     0.16789   0.78374   0.59912   0.01267  Uiso   1.00
C59    C     0.08051   0.71604   0.62136   0.01267  Uiso   1.00
C60    C     0.28198   0.87271   0.63688   0.01267  Uiso   1.00
C61    C     0.59029   0.73178   0.81247   0.01267  Uiso   1.00
C62    C     0.55820   0.79378   0.77490   0.01267  Uiso   1.00
C63    C     0.57080   0.82382   0.69166   0.01267  Uiso   1.00
C64    C     0.62017   0.79378   0.64500   0.01267  Uiso   1.00
C65    C     0.65401   0.73202   0.68182   0.01267  Uiso   1.00
C66    C     0.63538   0.69903   0.76688   0.01267  Uiso   1.00
C67    C     0.57812   0.70323   0.90152   0.01267  Uiso   1.00
C68    C     0.52874   0.88709   0.65545   0.01267  Uiso   1.00
C69    C     0.71396   0.70432   0.63051   0.01267  Uiso   1.00
C70    C     0.78867   0.76333   0.55092   0.01267  Uiso   1.00
C71    C     0.85340   0.74089   0.50589   0.01267  Uiso   1.00
C72    C     0.84419   0.65867   0.53908   0.01267  Uiso   1.00
C73    C     0.76701   0.59912   0.61714   0.01267  Uiso   1.00
C74    C     0.70187   0.62136   0.66260   0.01267  Uiso   1.00
C75    C     0.91886   0.63688   0.49041   0.01267  Uiso   1.00
C76    C     0.40276   0.81247   0.45575   0.01267  Uiso   1.00
C77    C     0.33310   0.77490   0.43132   0.01267  Uiso   1.00
C78    C     0.26246   0.69166   0.48452   0.01267  Uiso   1.00
C79    C     0.26517   0.64500   0.56122   0.01267  Uiso   1.00
C80    C     0.33583   0.68182   0.58616   0.01267  Uiso   1.00
C81    C     0.40226   0.76688   0.53409   0.01267  Uiso   1.00
C82    C     0.47964   0.90152   0.39525   0.01267  Uiso   1.00
C83    C     0.18419   0.65545   0.45746   0.01267  Uiso   1.00
C84    C     0.34447   0.63051   0.66517   0.01267  Uiso   1.00
C85    C     0.33959   0.55092   0.68575   0.01267  Uiso   1.00
C86    C     0.35929   0.50589   0.75322   0.01267  Uiso   1.00
C87    C     0.38327   0.53908   0.80225   0.01267  Uiso   1.00
C88    C     0.38415   0.61714   0.78374   0.01267  Uiso   1.00
C89    C     0.36447   0.66260   0.71604   0.01267  Uiso   1.00
C90    C     0.40927   0.49041   0.87271   0.01267  Uiso   1.00
O1     O     0.05299   0.57969   0.36615   0.01267  Uiso   1.00
O2     O     0.18181   0.68221   0.24718   0.01267  Uiso   1.00
O3     O     0.37323   0.49503   0.08490   0.01267  Uiso   1.00
O4     O     0.42322   0.61275   0.09345   0.01267  Uiso   1.00
O5     O     0.65258   0.08448   0.43698   0.01267  Uiso   1.00
O6     O     0.71227   0.11834   0.30227   0.01267  Uiso   1.00
O7     O     0.41914   0.36615   0.05416   0.01267  Uiso   1.00
O8     O     0.42899   0.24718   0.07061   0.01267  Uiso   1.00
O9     O     0.45813   0.08490   0.42007   0.01267  Uiso   1.00
O10    O     0.51667   0.09345   0.29380   0.01267  Uiso   1.00
O11    O     0.08956   0.43698   0.47854   0.01267  Uiso   1.00
O12    O     0.01454   0.30227   0.57939   0.01267  Uiso   1.00
O13    O     0.47330   0.05416   0.57969   0.01267  Uiso   1.00
O14    O     0.49960   0.07061   0.68221   0.01267  Uiso   1.00
O15    O     0.87820   0.42007   0.49503   0.01267  Uiso   1.00
O16    O     0.81047   0.29380   0.61275   0.01267  Uiso   1.00
O17    O     0.56810   0.47854   0.08448   0.01267  Uiso   1.00
O18    O     0.59393   0.57939   0.11834   0.01267  Uiso   1.00
O19    O     0.94701   0.42031   0.63385   0.01267  Uiso   1.00
O20    O     0.81819   0.31779   0.75282   0.01267  Uiso   1.00
O21    O     0.62677   0.50497   0.91510   0.01267  Uiso   1.00
O22    O     0.57678   0.38725   0.90655   0.01267  Uiso   1.00
O23    O     0.34742   0.91552   0.56302   0.01267  Uiso   1.00
O24    O     0.28773   0.88166   0.69773   0.01267  Uiso   1.00
O25    O     0.58086   0.63385   0.94584   0.01267  Uiso   1.00
O26    O     0.57101   0.75282   0.92939   0.01267  Uiso   1.00
O27    O     0.54187   0.91510   0.57993   0.01267  Uiso   1.00
O28    O     0.48333   0.90655   0.70620   0.01267  Uiso   1.00
O29    O     0.91044   0.56302   0.52146   0.01267  Uiso   1.00
O30    O     0.98546   0.69773   0.42061   0.01267  Uiso   1.00
O31    O     0.52670   0.94584   0.42031   0.01267  Uiso   1.00
O32    O     0.50040   0.92939   0.31779   0.01267  Uiso   1.00
O33    O     0.12180   0.57993   0.50497   0.01267  Uiso   1.00
O34    O     0.18953   0.70620   0.38725   0.01267  Uiso   1.00
O35    O     0.43190   0.52146   0.91552   0.01267  Uiso   1.00
O36    O     0.40607   0.42061   0.88166   0.01267  Uiso   1.00
