data_image0
_cell_length_a       9.437
_cell_length_b       15.378
_cell_length_c       13.319
_cell_angle_alpha    90
_cell_angle_beta     106.383
_cell_angle_gamma    90

_symmetry_space_group_name_H-M    "P 1"
_symmetry_int_tables_number       1

loop_
  _symmetry_equiv_pos_as_xyz
  'x, y, z'

loop_
  _atom_site_label
  _atom_site_occupancy
  _atom_site_fract_x
  _atom_site_fract_y
  _atom_site_fract_z
  _atom_site_thermal_displace_type
  _atom_site_B_iso_or_equiv
  _atom_site_type_symbol
  C1       1.0000 0.06360  0.18910  0.13570  Biso   1.000  C
  C2       1.0000 0.06240  0.25590  0.21820  Biso   1.000  C
  C3       1.0000 0.93590  0.26490  0.25160  Biso   1.000  C
  H1       1.0000 0.85490  0.22910  0.22400  Biso   1.000  H
  C4       1.0000 0.93040  0.32750  0.32620  Biso   1.000  C
  C5       1.0000 0.79220  0.33440  0.36350  Biso   1.000  C
  C6       1.0000 0.05180  0.38010  0.36760  Biso   1.000  C
  H2       1.0000 0.04750  0.42280  0.41620  Biso   1.000  H
  C7       1.0000 0.18000  0.36950  0.33730  Biso   1.000  C
  C8       1.0000 0.18390  0.30810  0.26250  Biso   1.000  C
  H3       1.0000 0.26930  0.30160  0.24150  Biso   1.000  H
  C9       1.0000 0.31280  0.42390  0.38820  Biso   1.000  C
  O1       1.0000 0.96460  0.13360  0.11180  Biso   1.000  O
  O2       1.0000 0.16820  0.19220  0.09360  Biso   1.000  O
  O3       1.0000 0.43630  0.39650  0.38220  Biso   1.000  O
  O4       1.0000 0.29140  0.49040  0.43560  Biso   1.000  O
  O5       1.0000 0.78550  0.39940  0.42000  Biso   1.000  O
  O6       1.0000 0.69520  0.27840  0.33650  Biso   1.000  O
  Zn1      1.0000 0.12617  0.09632  0.98868  Biso   1.000  Zn
  C10      1.0000 0.43640  0.68910  0.36430  Biso   1.000  C
  C11      1.0000 0.43760  0.75590  0.28180  Biso   1.000  C
  C12      1.0000 0.56410  0.76490  0.24840  Biso   1.000  C
  H4       1.0000 0.64510  0.72910  0.27600  Biso   1.000  H
  C13      1.0000 0.56960  0.82750  0.17380  Biso   1.000  C
  C14      1.0000 0.70780  0.83440  0.13650  Biso   1.000  C
  C15      1.0000 0.44820  0.88010  0.13240  Biso   1.000  C
  H5       1.0000 0.45250  0.92280  0.08380  Biso   1.000  H
  C16      1.0000 0.32000  0.86950  0.16270  Biso   1.000  C
  C17      1.0000 0.31610  0.80810  0.23750  Biso   1.000  C
  H6       1.0000 0.23070  0.80160  0.25850  Biso   1.000  H
  C18      1.0000 0.18720  0.92390  0.11180  Biso   1.000  C
  O7       1.0000 0.53540  0.63360  0.38820  Biso   1.000  O
  O8       1.0000 0.33180  0.69220  0.40640  Biso   1.000  O
  O9       1.0000 0.06370  0.89650  0.11780  Biso   1.000  O
  O10      1.0000 0.20860  0.99040  0.06440  Biso   1.000  O
  O11      1.0000 0.71450  0.89940  0.08000  Biso   1.000  O
  O12      1.0000 0.80480  0.77840  0.16350  Biso   1.000  O
  Zn2      1.0000 0.37383  0.59632  0.51132  Biso   1.000  Zn
  C19      1.0000 0.93640  0.81090  0.86430  Biso   1.000  C
  C20      1.0000 0.93760  0.74410  0.78180  Biso   1.000  C
  C21      1.0000 0.06410  0.73510  0.74840  Biso   1.000  C
  H7       1.0000 0.14510  0.77090  0.77600  Biso   1.000  H
  C22      1.0000 0.06960  0.67250  0.67380  Biso   1.000  C
  C23      1.0000 0.20780  0.66560  0.63650  Biso   1.000  C
  C24      1.0000 0.94820  0.61990  0.63240  Biso   1.000  C
  H8       1.0000 0.95250  0.57720  0.58380  Biso   1.000  H
  C25      1.0000 0.82000  0.63050  0.66270  Biso   1.000  C
  C26      1.0000 0.81610  0.69190  0.73750  Biso   1.000  C
  H9       1.0000 0.73070  0.69840  0.75850  Biso   1.000  H
  C27      1.0000 0.68720  0.57610  0.61180  Biso   1.000  C
  O13      1.0000 0.03540  0.86640  0.88820  Biso   1.000  O
  O14      1.0000 0.83180  0.80780  0.90640  Biso   1.000  O
  O15      1.0000 0.56370  0.60350  0.61780  Biso   1.000  O
  O16      1.0000 0.70860  0.50960  0.56440  Biso   1.000  O
  O17      1.0000 0.21450  0.60060  0.58000  Biso   1.000  O
  O18      1.0000 0.30480  0.72160  0.66350  Biso   1.000  O
  Zn3      1.0000 0.87383  0.90368  0.01132  Biso   1.000  Zn
  C28      1.0000 0.56360  0.31090  0.63570  Biso   1.000  C
  C29      1.0000 0.56240  0.24410  0.71820  Biso   1.000  C
  C30      1.0000 0.43590  0.23510  0.75160  Biso   1.000  C
  H10      1.0000 0.35490  0.27090  0.72400  Biso   1.000  H
  C31      1.0000 0.43040  0.17250  0.82620  Biso   1.000  C
  C32      1.0000 0.29220  0.16560  0.86350  Biso   1.000  C
  C33      1.0000 0.55180  0.11990  0.86760  Biso   1.000  C
  H11      1.0000 0.54750  0.07720  0.91620  Biso   1.000  H
  C34      1.0000 0.68000  0.13050  0.83730  Biso   1.000  C
  C35      1.0000 0.68390  0.19190  0.76250  Biso   1.000  C
  H12      1.0000 0.76930  0.19840  0.74150  Biso   1.000  H
  C36      1.0000 0.81280  0.07610  0.88820  Biso   1.000  C
  O19      1.0000 0.46460  0.36640  0.61180  Biso   1.000  O
  O20      1.0000 0.66820  0.30780  0.59360  Biso   1.000  O
  O21      1.0000 0.93630  0.10350  0.88220  Biso   1.000  O
  O22      1.0000 0.79140  0.00960  0.93560  Biso   1.000  O
  O23      1.0000 0.28550  0.10060  0.92000  Biso   1.000  O
  O24      1.0000 0.19520  0.22160  0.83650  Biso   1.000  O
  Zn4      1.0000 0.62617  0.40368  0.48868  Biso   1.000  Zn
