data_image0
_cell_length_a       15.8774
_cell_length_b       15.8774
_cell_length_c       21.474
_cell_angle_alpha    90
_cell_angle_beta     90
_cell_angle_gamma    90

_symmetry_space_group_name_H-M    "P 1"
_symmetry_int_tables_number       1

loop_
  _symmetry_equiv_pos_as_xyz
  'x, y, z'

loop_
  _atom_site_label
  _atom_site_occupancy
  _atom_site_fract_x
  _atom_site_fract_y
  _atom_site_fract_z
  _atom_site_thermal_displace_type
  _atom_site_B_iso_or_equiv
  _atom_site_type_symbol
  C1       1.0000 0.03810  0.24360  0.71310  Biso   1.000  C
  H1       1.0000 0.00800  0.23780  0.67510  Biso   1.000  H
  C2       1.0000 0.09390  0.31010  0.71860  Biso   1.000  C
  H2       1.0000 0.10040  0.34900  0.68530  Biso   1.000  H
  C3       1.0000 0.13990  0.32000  0.77240  Biso   1.000  C
  C4       1.0000 0.12460  0.26260  0.81960  Biso   1.000  C
  H3       1.0000 0.15310  0.26760  0.85830  Biso   1.000  H
  C5       1.0000 0.06760  0.19790  0.81010  Biso   1.000  C
  H4       1.0000 0.05890  0.15870  0.84300  Biso   1.000  H
  C6       1.0000 0.20660  0.38640  0.77890  Biso   1.000  C
  C7       1.0000 0.20430  0.45970  0.74230  Biso   1.000  C
  H5       1.0000 0.15910  0.46850  0.71410  Biso   1.000  H
  C8       1.0000 0.26720  0.51870  0.74730  Biso   1.000  C
  H6       1.0000 0.26490  0.56820  0.72250  Biso   1.000  H
  C9       1.0000 0.33400  0.50700  0.78780  Biso   1.000  C
  H7       1.0000 0.37690  0.54840  0.79130  Biso   1.000  H
  C10      1.0000 0.33740  0.43400  0.82330  Biso   1.000  C
  C11      1.0000 0.27340  0.37540  0.81940  Biso   1.000  C
  H8       1.0000 0.27520  0.32670  0.84500  Biso   1.000  H
  C12      1.0000 0.40740  0.42580  0.86720  Biso   1.000  C
  C13      1.0000 0.50380  0.37470  0.93020  Biso   1.000  C
  C14      1.0000 0.55920  0.31240  0.96040  Biso   1.000  C
  C15      1.0000 0.54080  0.28100  0.01940  Biso   1.000  C
  H9       1.0000 0.49220  0.29920  0.04140  Biso   1.000  H
  C16      1.0000 0.59560  0.22240  0.04530  Biso   1.000  C
  H10      1.0000 0.58550  0.20230  0.08630  Biso   1.000  H
  C17      1.0000 0.66390  0.19290  0.01310  Biso   1.000  C
  H11      1.0000 0.69940  0.15170  0.03150  Biso   1.000  H
  C18      1.0000 0.68180  0.22280  0.95300  Biso   1.000  C
  C19      1.0000 0.62760  0.28340  0.92830  Biso   1.000  C
  H12      1.0000 0.63870  0.30520  0.88790  Biso   1.000  H
  C20      1.0000 0.75390  0.19250  0.91610  Biso   1.000  C
  C21      1.0000 0.79820  0.11850  0.93040  Biso   1.000  C
  H13      1.0000 0.78580  0.08850  0.96750  Biso   1.000  H
  C22      1.0000 0.85970  0.08930  0.89060  Biso   1.000  C
  H14      1.0000 0.88920  0.03960  0.90200  Biso   1.000  H
  C23      1.0000 0.84330  0.20120  0.82620  Biso   1.000  C
  H15      1.0000 0.86060  0.23170  0.79040  Biso   1.000  H
  C24      1.0000 0.78240  0.23560  0.86350  Biso   1.000  C
  H16      1.0000 0.75930  0.28910  0.85350  Biso   1.000  H
  N1       1.0000 0.02410  0.18740  0.75760  Biso   1.000  N
  N2       1.0000 0.44530  0.48990  0.89415  Biso   1.000  N
  N3       1.0000 0.50650  0.45690  0.93350  Biso   1.000  N
  N4       1.0000 0.44300  0.35250  0.88863  Biso   1.000  N
  N5       1.0000 0.42350  0.27110  0.86760  Biso   1.000  N
  H17      1.0000 0.47210  0.24390  0.85730  Biso   1.000  H
  H18      1.0000 0.39680  0.24230  0.89850  Biso   1.000  H
  N6       1.0000 0.88000  0.12640  0.83760  Biso   1.000  N
  C25      1.0000 0.96190  0.75640  0.21310  Biso   1.000  C
  H19      1.0000 0.99200  0.76220  0.17510  Biso   1.000  H
  C26      1.0000 0.90610  0.68990  0.21860  Biso   1.000  C
  H20      1.0000 0.89960  0.65100  0.18530  Biso   1.000  H
  C27      1.0000 0.86010  0.68000  0.27240  Biso   1.000  C
  C28      1.0000 0.87540  0.73740  0.31960  Biso   1.000  C
  H21      1.0000 0.84690  0.73240  0.35830  Biso   1.000  H
  C29      1.0000 0.93240  0.80210  0.31010  Biso   1.000  C
  H22      1.0000 0.94110  0.84130  0.34300  Biso   1.000  H
  C30      1.0000 0.79340  0.61360  0.27890  Biso   1.000  C
  C31      1.0000 0.79570  0.54030  0.24230  Biso   1.000  C
  H23      1.0000 0.84090  0.53150  0.21410  Biso   1.000  H
  C32      1.0000 0.73280  0.48130  0.24730  Biso   1.000  C
  H24      1.0000 0.73510  0.43180  0.22250  Biso   1.000  H
  C33      1.0000 0.66600  0.49300  0.28780  Biso   1.000  C
  H25      1.0000 0.62310  0.45160  0.29130  Biso   1.000  H
  C34      1.0000 0.66260  0.56600  0.32330  Biso   1.000  C
  C35      1.0000 0.72660  0.62460  0.31940  Biso   1.000  C
  H26      1.0000 0.72480  0.67330  0.34500  Biso   1.000  H
  C36      1.0000 0.59260  0.57420  0.36720  Biso   1.000  C
  C37      1.0000 0.49620  0.62530  0.43020  Biso   1.000  C
  C38      1.0000 0.44080  0.68760  0.46040  Biso   1.000  C
  C39      1.0000 0.45920  0.71900  0.51940  Biso   1.000  C
  H27      1.0000 0.50780  0.70080  0.54140  Biso   1.000  H
  C40      1.0000 0.40440  0.77760  0.54530  Biso   1.000  C
  H28      1.0000 0.41450  0.79770  0.58630  Biso   1.000  H
  C41      1.0000 0.33610  0.80710  0.51310  Biso   1.000  C
  H29      1.0000 0.30060  0.84830  0.53150  Biso   1.000  H
  C42      1.0000 0.31820  0.77720  0.45300  Biso   1.000  C
  C43      1.0000 0.37240  0.71660  0.42830  Biso   1.000  C
  H30      1.0000 0.36130  0.69480  0.38790  Biso   1.000  H
  C44      1.0000 0.24610  0.80750  0.41610  Biso   1.000  C
  C45      1.0000 0.20180  0.88150  0.43040  Biso   1.000  C
  H31      1.0000 0.21420  0.91150  0.46750  Biso   1.000  H
  C46      1.0000 0.14030  0.91070  0.39060  Biso   1.000  C
  H32      1.0000 0.11080  0.96040  0.40200  Biso   1.000  H
  C47      1.0000 0.15670  0.79880  0.32620  Biso   1.000  C
  H33      1.0000 0.13940  0.76830  0.29040  Biso   1.000  H
  C48      1.0000 0.21760  0.76440  0.36350  Biso   1.000  C
  H34      1.0000 0.24070  0.71090  0.35350  Biso   1.000  H
  N7       1.0000 0.97590  0.81260  0.25760  Biso   1.000  N
  N8       1.0000 0.55470  0.51010  0.39415  Biso   1.000  N
  N9       1.0000 0.49350  0.54310  0.43350  Biso   1.000  N
  N10      1.0000 0.55700  0.64750  0.38863  Biso   1.000  N
  N11      1.0000 0.57650  0.72890  0.36760  Biso   1.000  N
  H35      1.0000 0.52790  0.75610  0.35730  Biso   1.000  H
  H36      1.0000 0.60320  0.75770  0.39850  Biso   1.000  H
  N12      1.0000 0.12000  0.87360  0.33760  Biso   1.000  N
  C49      1.0000 0.25640  0.53810  0.46310  Biso   1.000  C
  H37      1.0000 0.26220  0.50800  0.42510  Biso   1.000  H
  C50      1.0000 0.18990  0.59390  0.46860  Biso   1.000  C
  H38      1.0000 0.15100  0.60040  0.43530  Biso   1.000  H
  C51      1.0000 0.18000  0.63990  0.52240  Biso   1.000  C
  C52      1.0000 0.23740  0.62460  0.56960  Biso   1.000  C
  H39      1.0000 0.23240  0.65310  0.60830  Biso   1.000  H
  C53      1.0000 0.30210  0.56760  0.56010  Biso   1.000  C
  H40      1.0000 0.34130  0.55890  0.59300  Biso   1.000  H
  C54      1.0000 0.11360  0.70660  0.52890  Biso   1.000  C
  C55      1.0000 0.04030  0.70430  0.49230  Biso   1.000  C
  H41      1.0000 0.03150  0.65910  0.46410  Biso   1.000  H
  C56      1.0000 0.98130  0.76720  0.49730  Biso   1.000  C
  H42      1.0000 0.93180  0.76490  0.47250  Biso   1.000  H
  C57      1.0000 0.99300  0.83400  0.53780  Biso   1.000  C
  H43      1.0000 0.95160  0.87690  0.54130  Biso   1.000  H
  C58      1.0000 0.06600  0.83740  0.57330  Biso   1.000  C
  C59      1.0000 0.12460  0.77340  0.56940  Biso   1.000  C
  H44      1.0000 0.17330  0.77520  0.59500  Biso   1.000  H
  C60      1.0000 0.07420  0.90740  0.61720  Biso   1.000  C
  C61      1.0000 0.12530  0.00380  0.68020  Biso   1.000  C
  C62      1.0000 0.18760  0.05920  0.71040  Biso   1.000  C
  C63      1.0000 0.21900  0.04080  0.76940  Biso   1.000  C
  H45      1.0000 0.20080  0.99220  0.79140  Biso   1.000  H
  C64      1.0000 0.27760  0.09560  0.79530  Biso   1.000  C
  H46      1.0000 0.29770  0.08550  0.83630  Biso   1.000  H
  C65      1.0000 0.30710  0.16390  0.76310  Biso   1.000  C
  H47      1.0000 0.34830  0.19940  0.78150  Biso   1.000  H
  C66      1.0000 0.27720  0.18180  0.70300  Biso   1.000  C
  C67      1.0000 0.21660  0.12760  0.67830  Biso   1.000  C
  H48      1.0000 0.19480  0.13870  0.63790  Biso   1.000  H
  C68      1.0000 0.30750  0.25390  0.66610  Biso   1.000  C
  C69      1.0000 0.38150  0.29820  0.68040  Biso   1.000  C
  H49      1.0000 0.41150  0.28580  0.71750  Biso   1.000  H
  C70      1.0000 0.41070  0.35970  0.64060  Biso   1.000  C
  H50      1.0000 0.46040  0.38920  0.65200  Biso   1.000  H
  C71      1.0000 0.29880  0.34330  0.57620  Biso   1.000  C
  H51      1.0000 0.26830  0.36060  0.54040  Biso   1.000  H
  C72      1.0000 0.26440  0.28240  0.61350  Biso   1.000  C
  H52      1.0000 0.21090  0.25930  0.60350  Biso   1.000  H
  N13      1.0000 0.31260  0.52410  0.50760  Biso   1.000  N
  N14      1.0000 0.01010  0.94530  0.64415  Biso   1.000  N
  N15      1.0000 0.04310  0.00650  0.68350  Biso   1.000  N
  N16      1.0000 0.14750  0.94300  0.63863  Biso   1.000  N
  N17      1.0000 0.22890  0.92350  0.61760  Biso   1.000  N
  H53      1.0000 0.25610  0.97210  0.60730  Biso   1.000  H
  H54      1.0000 0.25770  0.89680  0.64850  Biso   1.000  H
  N18      1.0000 0.37360  0.38000  0.58760  Biso   1.000  N
  C73      1.0000 0.74360  0.46190  0.96310  Biso   1.000  C
  H55      1.0000 0.73780  0.49200  0.92510  Biso   1.000  H
  C74      1.0000 0.81010  0.40610  0.96860  Biso   1.000  C
  H56      1.0000 0.84900  0.39960  0.93530  Biso   1.000  H
  C75      1.0000 0.82000  0.36010  0.02240  Biso   1.000  C
  C76      1.0000 0.76260  0.37540  0.06960  Biso   1.000  C
  H57      1.0000 0.76760  0.34690  0.10830  Biso   1.000  H
  C77      1.0000 0.69790  0.43240  0.06010  Biso   1.000  C
  H58      1.0000 0.65870  0.44110  0.09300  Biso   1.000  H
  C78      1.0000 0.88640  0.29340  0.02890  Biso   1.000  C
  C79      1.0000 0.95970  0.29570  0.99230  Biso   1.000  C
  H59      1.0000 0.96850  0.34090  0.96410  Biso   1.000  H
  C80      1.0000 0.01870  0.23280  0.99730  Biso   1.000  C
  H60      1.0000 0.06820  0.23510  0.97250  Biso   1.000  H
  C81      1.0000 0.00700  0.16600  0.03780  Biso   1.000  C
  H61      1.0000 0.04840  0.12310  0.04130  Biso   1.000  H
  C82      1.0000 0.93400  0.16260  0.07330  Biso   1.000  C
  C83      1.0000 0.87540  0.22660  0.06940  Biso   1.000  C
  H62      1.0000 0.82670  0.22480  0.09500  Biso   1.000  H
  C84      1.0000 0.92580  0.09260  0.11720  Biso   1.000  C
  C85      1.0000 0.87470  0.99620  0.18020  Biso   1.000  C
  C86      1.0000 0.81240  0.94080  0.21040  Biso   1.000  C
  C87      1.0000 0.78100  0.95920  0.26940  Biso   1.000  C
  H63      1.0000 0.79920  0.00780  0.29140  Biso   1.000  H
  C88      1.0000 0.72240  0.90440  0.29530  Biso   1.000  C
  H64      1.0000 0.70230  0.91450  0.33630  Biso   1.000  H
  C89      1.0000 0.69290  0.83610  0.26310  Biso   1.000  C
  H65      1.0000 0.65170  0.80060  0.28150  Biso   1.000  H
  C90      1.0000 0.72280  0.81820  0.20300  Biso   1.000  C
  C91      1.0000 0.78340  0.87240  0.17830  Biso   1.000  C
  H66      1.0000 0.80520  0.86130  0.13790  Biso   1.000  H
  C92      1.0000 0.69250  0.74610  0.16610  Biso   1.000  C
  C93      1.0000 0.61850  0.70180  0.18040  Biso   1.000  C
  H67      1.0000 0.58850  0.71420  0.21750  Biso   1.000  H
  C94      1.0000 0.58930  0.64030  0.14060  Biso   1.000  C
  H68      1.0000 0.53960  0.61080  0.15200  Biso   1.000  H
  C95      1.0000 0.70120  0.65670  0.07620  Biso   1.000  C
  H69      1.0000 0.73170  0.63940  0.04040  Biso   1.000  H
  C96      1.0000 0.73560  0.71760  0.11350  Biso   1.000  C
  H70      1.0000 0.78910  0.74070  0.10350  Biso   1.000  H
  N19      1.0000 0.68740  0.47590  0.00760  Biso   1.000  N
  N20      1.0000 0.98990  0.05470  0.14415  Biso   1.000  N
  N21      1.0000 0.95690  0.99350  0.18350  Biso   1.000  N
  N22      1.0000 0.85250  0.05700  0.13863  Biso   1.000  N
  N23      1.0000 0.77110  0.07650  0.11760  Biso   1.000  N
  H71      1.0000 0.74390  0.02790  0.10730  Biso   1.000  H
  H72      1.0000 0.74230  0.10320  0.14850  Biso   1.000  H
  N24      1.0000 0.62640  0.62000  0.08760  Biso   1.000  N
  C97      1.0000 0.46190  0.74360  0.03690  Biso   1.000  C
  H73      1.0000 0.49200  0.73780  0.07490  Biso   1.000  H
  C98      1.0000 0.40610  0.81010  0.03140  Biso   1.000  C
  H74      1.0000 0.39960  0.84900  0.06470  Biso   1.000  H
  C99      1.0000 0.36010  0.82000  0.97760  Biso   1.000  C
  C100     1.0000 0.37540  0.76260  0.93040  Biso   1.000  C
  H75      1.0000 0.34690  0.76760  0.89170  Biso   1.000  H
  C101     1.0000 0.43240  0.69790  0.93990  Biso   1.000  C
  H76      1.0000 0.44110  0.65870  0.90700  Biso   1.000  H
  C102     1.0000 0.29340  0.88640  0.97110  Biso   1.000  C
  C103     1.0000 0.29570  0.95970  0.00770  Biso   1.000  C
  H77      1.0000 0.34090  0.96850  0.03590  Biso   1.000  H
  C104     1.0000 0.23280  0.01870  0.00270  Biso   1.000  C
  H78      1.0000 0.23510  0.06820  0.02750  Biso   1.000  H
  C105     1.0000 0.16600  0.00700  0.96220  Biso   1.000  C
  H79      1.0000 0.12310  0.04840  0.95870  Biso   1.000  H
  C106     1.0000 0.16260  0.93400  0.92670  Biso   1.000  C
  C107     1.0000 0.22660  0.87540  0.93060  Biso   1.000  C
  H80      1.0000 0.22480  0.82670  0.90500  Biso   1.000  H
  C108     1.0000 0.09260  0.92580  0.88280  Biso   1.000  C
  C109     1.0000 0.99620  0.87470  0.81980  Biso   1.000  C
  C110     1.0000 0.94080  0.81240  0.78960  Biso   1.000  C
  C111     1.0000 0.95920  0.78100  0.73060  Biso   1.000  C
  H81      1.0000 0.00780  0.79920  0.70860  Biso   1.000  H
  C112     1.0000 0.90440  0.72240  0.70470  Biso   1.000  C
  H82      1.0000 0.91450  0.70230  0.66370  Biso   1.000  H
  C113     1.0000 0.83610  0.69290  0.73690  Biso   1.000  C
  H83      1.0000 0.80060  0.65170  0.71850  Biso   1.000  H
  C114     1.0000 0.81820  0.72280  0.79700  Biso   1.000  C
  C115     1.0000 0.87240  0.78340  0.82170  Biso   1.000  C
  H84      1.0000 0.86130  0.80520  0.86210  Biso   1.000  H
  C116     1.0000 0.74610  0.69250  0.83390  Biso   1.000  C
  C117     1.0000 0.70180  0.61850  0.81960  Biso   1.000  C
  H85      1.0000 0.71420  0.58850  0.78250  Biso   1.000  H
  C118     1.0000 0.64030  0.58930  0.85940  Biso   1.000  C
  H86      1.0000 0.61080  0.53960  0.84800  Biso   1.000  H
  C119     1.0000 0.65670  0.70120  0.92380  Biso   1.000  C
  H87      1.0000 0.63940  0.73170  0.95960  Biso   1.000  H
  C120     1.0000 0.71760  0.73560  0.88650  Biso   1.000  C
  H88      1.0000 0.74070  0.78910  0.89650  Biso   1.000  H
  N25      1.0000 0.47590  0.68740  0.99240  Biso   1.000  N
  N26      1.0000 0.05470  0.98990  0.85585  Biso   1.000  N
  N27      1.0000 0.99350  0.95690  0.81650  Biso   1.000  N
  N28      1.0000 0.05700  0.85250  0.86137  Biso   1.000  N
  N29      1.0000 0.07650  0.77110  0.88240  Biso   1.000  N
  H89      1.0000 0.02790  0.74390  0.89270  Biso   1.000  H
  H90      1.0000 0.10320  0.74230  0.85150  Biso   1.000  H
  N30      1.0000 0.62000  0.62640  0.91240  Biso   1.000  N
  C121     1.0000 0.53810  0.25640  0.53690  Biso   1.000  C
  H91      1.0000 0.50800  0.26220  0.57490  Biso   1.000  H
  C122     1.0000 0.59390  0.18990  0.53140  Biso   1.000  C
  H92      1.0000 0.60040  0.15100  0.56470  Biso   1.000  H
  C123     1.0000 0.63990  0.18000  0.47760  Biso   1.000  C
  C124     1.0000 0.62460  0.23740  0.43040  Biso   1.000  C
  H93      1.0000 0.65310  0.23240  0.39170  Biso   1.000  H
  C125     1.0000 0.56760  0.30210  0.43990  Biso   1.000  C
  H94      1.0000 0.55890  0.34130  0.40700  Biso   1.000  H
  C126     1.0000 0.70660  0.11360  0.47110  Biso   1.000  C
  C127     1.0000 0.70430  0.04030  0.50770  Biso   1.000  C
  H95      1.0000 0.65910  0.03150  0.53590  Biso   1.000  H
  C128     1.0000 0.76720  0.98130  0.50270  Biso   1.000  C
  H96      1.0000 0.76490  0.93180  0.52750  Biso   1.000  H
  C129     1.0000 0.83400  0.99300  0.46220  Biso   1.000  C
  H97      1.0000 0.87690  0.95160  0.45870  Biso   1.000  H
  C130     1.0000 0.83740  0.06600  0.42670  Biso   1.000  C
  C131     1.0000 0.77340  0.12460  0.43060  Biso   1.000  C
  H98      1.0000 0.77520  0.17330  0.40500  Biso   1.000  H
  C132     1.0000 0.90740  0.07420  0.38280  Biso   1.000  C
  C133     1.0000 0.00380  0.12530  0.31980  Biso   1.000  C
  C134     1.0000 0.05920  0.18760  0.28960  Biso   1.000  C
  C135     1.0000 0.04080  0.21900  0.23060  Biso   1.000  C
  H99      1.0000 0.99220  0.20080  0.20860  Biso   1.000  H
  C136     1.0000 0.09560  0.27760  0.20470  Biso   1.000  C
  H100     1.0000 0.08550  0.29770  0.16370  Biso   1.000  H
  C137     1.0000 0.16390  0.30710  0.23690  Biso   1.000  C
  H101     1.0000 0.19940  0.34830  0.21850  Biso   1.000  H
  C138     1.0000 0.18180  0.27720  0.29700  Biso   1.000  C
  C139     1.0000 0.12760  0.21660  0.32170  Biso   1.000  C
  H102     1.0000 0.13870  0.19480  0.36210  Biso   1.000  H
  C140     1.0000 0.25390  0.30750  0.33390  Biso   1.000  C
  C141     1.0000 0.29820  0.38150  0.31960  Biso   1.000  C
  H103     1.0000 0.28580  0.41150  0.28250  Biso   1.000  H
  C142     1.0000 0.35970  0.41070  0.35940  Biso   1.000  C
  H104     1.0000 0.38920  0.46040  0.34800  Biso   1.000  H
  C143     1.0000 0.34330  0.29880  0.42380  Biso   1.000  C
  H105     1.0000 0.36060  0.26830  0.45960  Biso   1.000  H
  C144     1.0000 0.28240  0.26440  0.38650  Biso   1.000  C
  H106     1.0000 0.25930  0.21090  0.39650  Biso   1.000  H
  N31      1.0000 0.52410  0.31260  0.49240  Biso   1.000  N
  N32      1.0000 0.94530  0.01010  0.35585  Biso   1.000  N
  N33      1.0000 0.00650  0.04310  0.31650  Biso   1.000  N
  N34      1.0000 0.94300  0.14750  0.36137  Biso   1.000  N
  N35      1.0000 0.92350  0.22890  0.38240  Biso   1.000  N
  H107     1.0000 0.97210  0.25610  0.39270  Biso   1.000  H
  H108     1.0000 0.89680  0.25770  0.35150  Biso   1.000  H
  N36      1.0000 0.38000  0.37360  0.41240  Biso   1.000  N
  C145     1.0000 0.24360  0.03810  0.28690  Biso   1.000  C
  H109     1.0000 0.23780  0.00800  0.32490  Biso   1.000  H
  C146     1.0000 0.31010  0.09390  0.28140  Biso   1.000  C
  H110     1.0000 0.34900  0.10040  0.31470  Biso   1.000  H
  C147     1.0000 0.32000  0.13990  0.22760  Biso   1.000  C
  C148     1.0000 0.26260  0.12460  0.18040  Biso   1.000  C
  H111     1.0000 0.26760  0.15310  0.14170  Biso   1.000  H
  C149     1.0000 0.19790  0.06760  0.18990  Biso   1.000  C
  H112     1.0000 0.15870  0.05890  0.15700  Biso   1.000  H
  C150     1.0000 0.38640  0.20660  0.22110  Biso   1.000  C
  C151     1.0000 0.45970  0.20430  0.25770  Biso   1.000  C
  H113     1.0000 0.46850  0.15910  0.28590  Biso   1.000  H
  C152     1.0000 0.51870  0.26720  0.25270  Biso   1.000  C
  H114     1.0000 0.56820  0.26490  0.27750  Biso   1.000  H
  C153     1.0000 0.50700  0.33400  0.21220  Biso   1.000  C
  H115     1.0000 0.54840  0.37690  0.20870  Biso   1.000  H
  C154     1.0000 0.43400  0.33740  0.17670  Biso   1.000  C
  C155     1.0000 0.37540  0.27340  0.18060  Biso   1.000  C
  H116     1.0000 0.32670  0.27520  0.15500  Biso   1.000  H
  C156     1.0000 0.42580  0.40740  0.13280  Biso   1.000  C
  C157     1.0000 0.37470  0.50380  0.06980  Biso   1.000  C
  C158     1.0000 0.31240  0.55920  0.03960  Biso   1.000  C
  C159     1.0000 0.28100  0.54080  0.98060  Biso   1.000  C
  H117     1.0000 0.29920  0.49220  0.95860  Biso   1.000  H
  C160     1.0000 0.22240  0.59560  0.95470  Biso   1.000  C
  H118     1.0000 0.20230  0.58550  0.91370  Biso   1.000  H
  C161     1.0000 0.19290  0.66390  0.98690  Biso   1.000  C
  H119     1.0000 0.15170  0.69940  0.96850  Biso   1.000  H
  C162     1.0000 0.22280  0.68180  0.04700  Biso   1.000  C
  C163     1.0000 0.28340  0.62760  0.07170  Biso   1.000  C
  H120     1.0000 0.30520  0.63870  0.11210  Biso   1.000  H
  C164     1.0000 0.19250  0.75390  0.08390  Biso   1.000  C
  C165     1.0000 0.11850  0.79820  0.06960  Biso   1.000  C
  H121     1.0000 0.08850  0.78580  0.03250  Biso   1.000  H
  C166     1.0000 0.08930  0.85970  0.10940  Biso   1.000  C
  H122     1.0000 0.03960  0.88920  0.09800  Biso   1.000  H
  C167     1.0000 0.20120  0.84330  0.17380  Biso   1.000  C
  H123     1.0000 0.23170  0.86060  0.20960  Biso   1.000  H
  C168     1.0000 0.23560  0.78240  0.13650  Biso   1.000  C
  H124     1.0000 0.28910  0.75930  0.14650  Biso   1.000  H
  N37      1.0000 0.18740  0.02410  0.24240  Biso   1.000  N
  N38      1.0000 0.48990  0.44530  0.10585  Biso   1.000  N
  N39      1.0000 0.45690  0.50650  0.06650  Biso   1.000  N
  N40      1.0000 0.35250  0.44300  0.11137  Biso   1.000  N
  N41      1.0000 0.27110  0.42350  0.13240  Biso   1.000  N
  H125     1.0000 0.24390  0.47210  0.14270  Biso   1.000  H
  H126     1.0000 0.24230  0.39680  0.10150  Biso   1.000  H
  N42      1.0000 0.12640  0.88000  0.16240  Biso   1.000  N
  C169     1.0000 0.75640  0.96190  0.78690  Biso   1.000  C
  H127     1.0000 0.76220  0.99200  0.82490  Biso   1.000  H
  C170     1.0000 0.68990  0.90610  0.78140  Biso   1.000  C
  H128     1.0000 0.65100  0.89960  0.81470  Biso   1.000  H
  C171     1.0000 0.68000  0.86010  0.72760  Biso   1.000  C
  C172     1.0000 0.73740  0.87540  0.68040  Biso   1.000  C
  H129     1.0000 0.73240  0.84690  0.64170  Biso   1.000  H
  C173     1.0000 0.80210  0.93240  0.68990  Biso   1.000  C
  H130     1.0000 0.84130  0.94110  0.65700  Biso   1.000  H
  C174     1.0000 0.61360  0.79340  0.72110  Biso   1.000  C
  C175     1.0000 0.54030  0.79570  0.75770  Biso   1.000  C
  H131     1.0000 0.53150  0.84090  0.78590  Biso   1.000  H
  C176     1.0000 0.48130  0.73280  0.75270  Biso   1.000  C
  H132     1.0000 0.43180  0.73510  0.77750  Biso   1.000  H
  C177     1.0000 0.49300  0.66600  0.71220  Biso   1.000  C
  H133     1.0000 0.45160  0.62310  0.70870  Biso   1.000  H
  C178     1.0000 0.56600  0.66260  0.67670  Biso   1.000  C
  C179     1.0000 0.62460  0.72660  0.68060  Biso   1.000  C
  H134     1.0000 0.67330  0.72480  0.65500  Biso   1.000  H
  C180     1.0000 0.57420  0.59260  0.63280  Biso   1.000  C
  C181     1.0000 0.62530  0.49620  0.56980  Biso   1.000  C
  C182     1.0000 0.68760  0.44080  0.53960  Biso   1.000  C
  C183     1.0000 0.71900  0.45920  0.48060  Biso   1.000  C
  H135     1.0000 0.70080  0.50780  0.45860  Biso   1.000  H
  C184     1.0000 0.77760  0.40440  0.45470  Biso   1.000  C
  H136     1.0000 0.79770  0.41450  0.41370  Biso   1.000  H
  C185     1.0000 0.80710  0.33610  0.48690  Biso   1.000  C
  H137     1.0000 0.84830  0.30060  0.46850  Biso   1.000  H
  C186     1.0000 0.77720  0.31820  0.54700  Biso   1.000  C
  C187     1.0000 0.71660  0.37240  0.57170  Biso   1.000  C
  H138     1.0000 0.69480  0.36130  0.61210  Biso   1.000  H
  C188     1.0000 0.80750  0.24610  0.58390  Biso   1.000  C
  C189     1.0000 0.88150  0.20180  0.56960  Biso   1.000  C
  H139     1.0000 0.91150  0.21420  0.53250  Biso   1.000  H
  C190     1.0000 0.91070  0.14030  0.60940  Biso   1.000  C
  H140     1.0000 0.96040  0.11080  0.59800  Biso   1.000  H
  C191     1.0000 0.79880  0.15670  0.67380  Biso   1.000  C
  H141     1.0000 0.76830  0.13940  0.70960  Biso   1.000  H
  C192     1.0000 0.76440  0.21760  0.63650  Biso   1.000  C
  H142     1.0000 0.71090  0.24070  0.64650  Biso   1.000  H
  N43      1.0000 0.81260  0.97590  0.74240  Biso   1.000  N
  N44      1.0000 0.51010  0.55470  0.60585  Biso   1.000  N
  N45      1.0000 0.54310  0.49350  0.56650  Biso   1.000  N
  N46      1.0000 0.64750  0.55700  0.61137  Biso   1.000  N
  N47      1.0000 0.72890  0.57650  0.63240  Biso   1.000  N
  H143     1.0000 0.75610  0.52790  0.64270  Biso   1.000  H
  H144     1.0000 0.75770  0.60320  0.60150  Biso   1.000  H
  N48      1.0000 0.87360  0.12000  0.66240  Biso   1.000  N
  Cd1      1.0000 0.94079  0.05921  0.75000  Biso   1.000  Cd
  Cd2      1.0000 0.05921  0.94079  0.25000  Biso   1.000  Cd
  Cd3      1.0000 0.44079  0.44079  0.50000  Biso   1.000  Cd
  Cd4      1.0000 0.55921  0.55921  0.00000  Biso   1.000  Cd
