data_image0
_cell_length_a       15.8698
_cell_length_b       15.8698
_cell_length_c       21.641
_cell_angle_alpha    90
_cell_angle_beta     90
_cell_angle_gamma    90

_symmetry_space_group_name_H-M    "P 1"
_symmetry_int_tables_number       1

loop_
  _symmetry_equiv_pos_as_xyz
  'x, y, z'

loop_
  _atom_site_label
  _atom_site_occupancy
  _atom_site_fract_x
  _atom_site_fract_y
  _atom_site_fract_z
  _atom_site_thermal_displace_type
  _atom_site_B_iso_or_equiv
  _atom_site_type_symbol
  C1       1.0000 0.46290  0.74580  0.03580  Biso   1.000  C
  H1       1.0000 0.49260  0.74050  0.07260  Biso   1.000  H
  C2       1.0000 0.40700  0.81260  0.03030  Biso   1.000  C
  H2       1.0000 0.40110  0.85100  0.06240  Biso   1.000  H
  C3       1.0000 0.36010  0.82180  0.97680  Biso   1.000  C
  C4       1.0000 0.37630  0.76360  0.93030  Biso   1.000  C
  H3       1.0000 0.34840  0.76790  0.89270  Biso   1.000  H
  C5       1.0000 0.43370  0.69930  0.93990  Biso   1.000  C
  H4       1.0000 0.44260  0.66110  0.90800  Biso   1.000  H
  C6       1.0000 0.29360  0.88790  0.97060  Biso   1.000  C
  C7       1.0000 0.29420  0.95900  0.00740  Biso   1.000  C
  H5       1.0000 0.33750  0.96690  0.03580  Biso   1.000  H
  C8       1.0000 0.23110  0.01850  0.00240  Biso   1.000  C
  H6       1.0000 0.23320  0.06700  0.02640  Biso   1.000  H
  C9       1.0000 0.16500  0.00640  0.96210  Biso   1.000  C
  H7       1.0000 0.12220  0.04630  0.95930  Biso   1.000  H
  C10      1.0000 0.16220  0.93420  0.92550  Biso   1.000  C
  C11      1.0000 0.22640  0.87580  0.93000  Biso   1.000  C
  H8       1.0000 0.22480  0.82760  0.90560  Biso   1.000  H
  C12      1.0000 0.09200  0.92600  0.88171  Biso   1.000  C
  C13      1.0000 0.99580  0.87520  0.81976  Biso   1.000  C
  C14      1.0000 0.94040  0.81320  0.78924  Biso   1.000  C
  C15      1.0000 0.95670  0.78230  0.73000  Biso   1.000  C
  H9       1.0000 0.00410  0.80000  0.70830  Biso   1.000  H
  C16      1.0000 0.90160  0.72540  0.70410  Biso   1.000  C
  H10      1.0000 0.91120  0.70620  0.66410  Biso   1.000  H
  C17      1.0000 0.83240  0.69620  0.73630  Biso   1.000  C
  H11      1.0000 0.79650  0.65690  0.71820  Biso   1.000  H
  C18      1.0000 0.81610  0.72540  0.79600  Biso   1.000  C
  C19      1.0000 0.87040  0.78410  0.82140  Biso   1.000  C
  H12      1.0000 0.85980  0.80470  0.86090  Biso   1.000  H
  C20      1.0000 0.74370  0.69340  0.83350  Biso   1.000  C
  C21      1.0000 0.71630  0.73700  0.88550  Biso   1.000  C
  H13      1.0000 0.73830  0.78990  0.89460  Biso   1.000  H
  C22      1.0000 0.65720  0.70200  0.92300  Biso   1.000  C
  H14      1.0000 0.64120  0.73190  0.95800  Biso   1.000  H
  C23      1.0000 0.64120  0.58830  0.85980  Biso   1.000  C
  H15      1.0000 0.61350  0.53870  0.84940  Biso   1.000  H
  C24      1.0000 0.70150  0.61830  0.81980  Biso   1.000  C
  H16      1.0000 0.71420  0.58880  0.78390  Biso   1.000  H
  N1       1.0000 0.05370  0.98990  0.85555  Biso   1.000  N
  N2       1.0000 0.99330  0.95770  0.81631  Biso   1.000  N
  N3       1.0000 0.05710  0.85290  0.86048  Biso   1.000  N
  N4       1.0000 0.07720  0.77090  0.88030  Biso   1.000  N
  H17      1.0000 0.09650  0.74140  0.84830  Biso   1.000  H
  H18      1.0000 0.03120  0.74610  0.89530  Biso   1.000  H
  N5       1.0000 0.47670  0.68870  0.99175  Biso   1.000  N
  N6       1.0000 0.62010  0.62650  0.91276  Biso   1.000  N
  C25      1.0000 0.53710  0.25420  0.53580  Biso   1.000  C
  H19      1.0000 0.50740  0.25950  0.57260  Biso   1.000  H
  C26      1.0000 0.59300  0.18740  0.53030  Biso   1.000  C
  H20      1.0000 0.59890  0.14900  0.56240  Biso   1.000  H
  C27      1.0000 0.63990  0.17820  0.47680  Biso   1.000  C
  C28      1.0000 0.62370  0.23640  0.43030  Biso   1.000  C
  H21      1.0000 0.65160  0.23210  0.39270  Biso   1.000  H
  C29      1.0000 0.56630  0.30070  0.43990  Biso   1.000  C
  H22      1.0000 0.55740  0.33890  0.40800  Biso   1.000  H
  C30      1.0000 0.70640  0.11210  0.47060  Biso   1.000  C
  C31      1.0000 0.70580  0.04100  0.50740  Biso   1.000  C
  H23      1.0000 0.66250  0.03310  0.53580  Biso   1.000  H
  C32      1.0000 0.76890  0.98150  0.50240  Biso   1.000  C
  H24      1.0000 0.76680  0.93300  0.52640  Biso   1.000  H
  C33      1.0000 0.83500  0.99360  0.46210  Biso   1.000  C
  H25      1.0000 0.87780  0.95370  0.45930  Biso   1.000  H
  C34      1.0000 0.83780  0.06580  0.42550  Biso   1.000  C
  C35      1.0000 0.77360  0.12420  0.43000  Biso   1.000  C
  H26      1.0000 0.77520  0.17240  0.40560  Biso   1.000  H
  C36      1.0000 0.90800  0.07400  0.38171  Biso   1.000  C
  C37      1.0000 0.00420  0.12480  0.31976  Biso   1.000  C
  C38      1.0000 0.05960  0.18680  0.28924  Biso   1.000  C
  C39      1.0000 0.04330  0.21770  0.23000  Biso   1.000  C
  H27      1.0000 0.99590  0.20000  0.20830  Biso   1.000  H
  C40      1.0000 0.09840  0.27460  0.20410  Biso   1.000  C
  H28      1.0000 0.08880  0.29380  0.16410  Biso   1.000  H
  C41      1.0000 0.16760  0.30380  0.23630  Biso   1.000  C
  H29      1.0000 0.20350  0.34310  0.21820  Biso   1.000  H
  C42      1.0000 0.18390  0.27460  0.29600  Biso   1.000  C
  C43      1.0000 0.12960  0.21590  0.32140  Biso   1.000  C
  H30      1.0000 0.14020  0.19530  0.36090  Biso   1.000  H
  C44      1.0000 0.25630  0.30660  0.33350  Biso   1.000  C
  C45      1.0000 0.28370  0.26300  0.38550  Biso   1.000  C
  H31      1.0000 0.26170  0.21010  0.39460  Biso   1.000  H
  C46      1.0000 0.34280  0.29800  0.42300  Biso   1.000  C
  H32      1.0000 0.35880  0.26810  0.45800  Biso   1.000  H
  C47      1.0000 0.35880  0.41170  0.35980  Biso   1.000  C
  H33      1.0000 0.38650  0.46130  0.34940  Biso   1.000  H
  C48      1.0000 0.29850  0.38170  0.31980  Biso   1.000  C
  H34      1.0000 0.28580  0.41120  0.28390  Biso   1.000  H
  N7       1.0000 0.94630  0.01010  0.35555  Biso   1.000  N
  N8       1.0000 0.00670  0.04230  0.31631  Biso   1.000  N
  N9       1.0000 0.94290  0.14710  0.36048  Biso   1.000  N
  N10      1.0000 0.92280  0.22910  0.38030  Biso   1.000  N
  H35      1.0000 0.90350  0.25860  0.34830  Biso   1.000  H
  H36      1.0000 0.96880  0.25390  0.39530  Biso   1.000  H
  N11      1.0000 0.52330  0.31130  0.49175  Biso   1.000  N
  N12      1.0000 0.37990  0.37350  0.41276  Biso   1.000  N
  C49      1.0000 0.75420  0.96290  0.78580  Biso   1.000  C
  H37      1.0000 0.75950  0.99260  0.82260  Biso   1.000  H
  C50      1.0000 0.68740  0.90700  0.78030  Biso   1.000  C
  H38      1.0000 0.64900  0.90110  0.81240  Biso   1.000  H
  C51      1.0000 0.67820  0.86010  0.72680  Biso   1.000  C
  C52      1.0000 0.73640  0.87630  0.68030  Biso   1.000  C
  H39      1.0000 0.73210  0.84840  0.64270  Biso   1.000  H
  C53      1.0000 0.80070  0.93370  0.68990  Biso   1.000  C
  H40      1.0000 0.83890  0.94260  0.65800  Biso   1.000  H
  C54      1.0000 0.61210  0.79360  0.72060  Biso   1.000  C
  C55      1.0000 0.54100  0.79420  0.75740  Biso   1.000  C
  H41      1.0000 0.53310  0.83750  0.78580  Biso   1.000  H
  C56      1.0000 0.48150  0.73110  0.75240  Biso   1.000  C
  H42      1.0000 0.43300  0.73320  0.77640  Biso   1.000  H
  C57      1.0000 0.49360  0.66500  0.71210  Biso   1.000  C
  H43      1.0000 0.45370  0.62220  0.70930  Biso   1.000  H
  C58      1.0000 0.56580  0.66220  0.67550  Biso   1.000  C
  C59      1.0000 0.62420  0.72640  0.68000  Biso   1.000  C
  H44      1.0000 0.67240  0.72480  0.65560  Biso   1.000  H
  C60      1.0000 0.57400  0.59200  0.63171  Biso   1.000  C
  C61      1.0000 0.62480  0.49580  0.56976  Biso   1.000  C
  C62      1.0000 0.68680  0.44040  0.53924  Biso   1.000  C
  C63      1.0000 0.71770  0.45670  0.48000  Biso   1.000  C
  H45      1.0000 0.70000  0.50410  0.45830  Biso   1.000  H
  C64      1.0000 0.77460  0.40160  0.45410  Biso   1.000  C
  H46      1.0000 0.79380  0.41120  0.41410  Biso   1.000  H
  C65      1.0000 0.80380  0.33240  0.48630  Biso   1.000  C
  H47      1.0000 0.84310  0.29650  0.46820  Biso   1.000  H
  C66      1.0000 0.77460  0.31610  0.54600  Biso   1.000  C
  C67      1.0000 0.71590  0.37040  0.57140  Biso   1.000  C
  H48      1.0000 0.69530  0.35980  0.61090  Biso   1.000  H
  C68      1.0000 0.80660  0.24370  0.58350  Biso   1.000  C
  C69      1.0000 0.76300  0.21630  0.63550  Biso   1.000  C
  H49      1.0000 0.71010  0.23830  0.64460  Biso   1.000  H
  C70      1.0000 0.79800  0.15720  0.67300  Biso   1.000  C
  H50      1.0000 0.76810  0.14120  0.70800  Biso   1.000  H
  C71      1.0000 0.91170  0.14120  0.60980  Biso   1.000  C
  H51      1.0000 0.96130  0.11350  0.59940  Biso   1.000  H
  C72      1.0000 0.88170  0.20150  0.56980  Biso   1.000  C
  H52      1.0000 0.91120  0.21420  0.53390  Biso   1.000  H
  N13      1.0000 0.51010  0.55370  0.60555  Biso   1.000  N
  N14      1.0000 0.54230  0.49330  0.56631  Biso   1.000  N
  N15      1.0000 0.64710  0.55710  0.61048  Biso   1.000  N
  N16      1.0000 0.72910  0.57720  0.63030  Biso   1.000  N
  H53      1.0000 0.75860  0.59650  0.59830  Biso   1.000  H
  H54      1.0000 0.75390  0.53120  0.64530  Biso   1.000  H
  N17      1.0000 0.81130  0.97670  0.74175  Biso   1.000  N
  N18      1.0000 0.87350  0.12010  0.66276  Biso   1.000  N
  C73      1.0000 0.24580  0.03710  0.28580  Biso   1.000  C
  H55      1.0000 0.24050  0.00740  0.32260  Biso   1.000  H
  C74      1.0000 0.31260  0.09300  0.28030  Biso   1.000  C
  H56      1.0000 0.35100  0.09890  0.31240  Biso   1.000  H
  C75      1.0000 0.32180  0.13990  0.22680  Biso   1.000  C
  C76      1.0000 0.26360  0.12370  0.18030  Biso   1.000  C
  H57      1.0000 0.26790  0.15160  0.14270  Biso   1.000  H
  C77      1.0000 0.19930  0.06630  0.18990  Biso   1.000  C
  H58      1.0000 0.16110  0.05740  0.15800  Biso   1.000  H
  C78      1.0000 0.38790  0.20640  0.22060  Biso   1.000  C
  C79      1.0000 0.45900  0.20580  0.25740  Biso   1.000  C
  H59      1.0000 0.46690  0.16250  0.28580  Biso   1.000  H
  C80      1.0000 0.51850  0.26890  0.25240  Biso   1.000  C
  H60      1.0000 0.56700  0.26680  0.27640  Biso   1.000  H
  C81      1.0000 0.50640  0.33500  0.21210  Biso   1.000  C
  H61      1.0000 0.54630  0.37780  0.20930  Biso   1.000  H
  C82      1.0000 0.43420  0.33780  0.17550  Biso   1.000  C
  C83      1.0000 0.37580  0.27360  0.18000  Biso   1.000  C
  H62      1.0000 0.32760  0.27520  0.15560  Biso   1.000  H
  C84      1.0000 0.42600  0.40800  0.13171  Biso   1.000  C
  C85      1.0000 0.37520  0.50420  0.06976  Biso   1.000  C
  C86      1.0000 0.31320  0.55960  0.03924  Biso   1.000  C
  C87      1.0000 0.28230  0.54330  0.98000  Biso   1.000  C
  H63      1.0000 0.30000  0.49590  0.95830  Biso   1.000  H
  C88      1.0000 0.22540  0.59840  0.95410  Biso   1.000  C
  H64      1.0000 0.20620  0.58880  0.91410  Biso   1.000  H
  C89      1.0000 0.19620  0.66760  0.98630  Biso   1.000  C
  H65      1.0000 0.15690  0.70350  0.96820  Biso   1.000  H
  C90      1.0000 0.22540  0.68390  0.04600  Biso   1.000  C
  C91      1.0000 0.28410  0.62960  0.07140  Biso   1.000  C
  H66      1.0000 0.30470  0.64020  0.11090  Biso   1.000  H
  C92      1.0000 0.19340  0.75630  0.08350  Biso   1.000  C
  C93      1.0000 0.23700  0.78370  0.13550  Biso   1.000  C
  H67      1.0000 0.28990  0.76170  0.14460  Biso   1.000  H
  C94      1.0000 0.20200  0.84280  0.17300  Biso   1.000  C
  H68      1.0000 0.23190  0.85880  0.20800  Biso   1.000  H
  C95      1.0000 0.08830  0.85880  0.10980  Biso   1.000  C
  H69      1.0000 0.03870  0.88650  0.09940  Biso   1.000  H
  C96      1.0000 0.11830  0.79850  0.06980  Biso   1.000  C
  H70      1.0000 0.08880  0.78580  0.03390  Biso   1.000  H
  N19      1.0000 0.48990  0.44630  0.10555  Biso   1.000  N
  N20      1.0000 0.45770  0.50670  0.06631  Biso   1.000  N
  N21      1.0000 0.35290  0.44290  0.11048  Biso   1.000  N
  N22      1.0000 0.27090  0.42280  0.13030  Biso   1.000  N
  H71      1.0000 0.24140  0.40350  0.09830  Biso   1.000  H
  H72      1.0000 0.24610  0.46880  0.14530  Biso   1.000  H
  N23      1.0000 0.18870  0.02330  0.24175  Biso   1.000  N
  N24      1.0000 0.12650  0.87990  0.16276  Biso   1.000  N
  C97      1.0000 0.03710  0.24580  0.71420  Biso   1.000  C
  H73      1.0000 0.00740  0.24050  0.67740  Biso   1.000  H
  C98      1.0000 0.09300  0.31260  0.71970  Biso   1.000  C
  H74      1.0000 0.09890  0.35100  0.68760  Biso   1.000  H
  C99      1.0000 0.13990  0.32180  0.77320  Biso   1.000  C
  C100     1.0000 0.12370  0.26360  0.81970  Biso   1.000  C
  H75      1.0000 0.15160  0.26790  0.85730  Biso   1.000  H
  C101     1.0000 0.06630  0.19930  0.81010  Biso   1.000  C
  H76      1.0000 0.05740  0.16110  0.84200  Biso   1.000  H
  C102     1.0000 0.20640  0.38790  0.77940  Biso   1.000  C
  C103     1.0000 0.20580  0.45900  0.74260  Biso   1.000  C
  H77      1.0000 0.16250  0.46690  0.71420  Biso   1.000  H
  C104     1.0000 0.26890  0.51850  0.74760  Biso   1.000  C
  H78      1.0000 0.26680  0.56700  0.72360  Biso   1.000  H
  C105     1.0000 0.33500  0.50640  0.78790  Biso   1.000  C
  H79      1.0000 0.37780  0.54630  0.79070  Biso   1.000  H
  C106     1.0000 0.33780  0.43420  0.82450  Biso   1.000  C
  C107     1.0000 0.27360  0.37580  0.82000  Biso   1.000  C
  H80      1.0000 0.27520  0.32760  0.84440  Biso   1.000  H
  C108     1.0000 0.40800  0.42600  0.86829  Biso   1.000  C
  C109     1.0000 0.50420  0.37520  0.93024  Biso   1.000  C
  C110     1.0000 0.55960  0.31320  0.96076  Biso   1.000  C
  C111     1.0000 0.54330  0.28230  0.02000  Biso   1.000  C
  H81      1.0000 0.49590  0.30000  0.04170  Biso   1.000  H
  C112     1.0000 0.59840  0.22540  0.04590  Biso   1.000  C
  H82      1.0000 0.58880  0.20620  0.08590  Biso   1.000  H
  C113     1.0000 0.66760  0.19620  0.01370  Biso   1.000  C
  H83      1.0000 0.70350  0.15690  0.03180  Biso   1.000  H
  C114     1.0000 0.68390  0.22540  0.95400  Biso   1.000  C
  C115     1.0000 0.62960  0.28410  0.92860  Biso   1.000  C
  H84      1.0000 0.64020  0.30470  0.88910  Biso   1.000  H
  C116     1.0000 0.75630  0.19340  0.91650  Biso   1.000  C
  C117     1.0000 0.78370  0.23700  0.86450  Biso   1.000  C
  H85      1.0000 0.76170  0.28990  0.85540  Biso   1.000  H
  C118     1.0000 0.84280  0.20200  0.82700  Biso   1.000  C
  H86      1.0000 0.85880  0.23190  0.79200  Biso   1.000  H
  C119     1.0000 0.85880  0.08830  0.89020  Biso   1.000  C
  H87      1.0000 0.88650  0.03870  0.90060  Biso   1.000  H
  C120     1.0000 0.79850  0.11830  0.93020  Biso   1.000  C
  H88      1.0000 0.78580  0.08880  0.96610  Biso   1.000  H
  N25      1.0000 0.44630  0.48990  0.89445  Biso   1.000  N
  N26      1.0000 0.50670  0.45770  0.93369  Biso   1.000  N
  N27      1.0000 0.44290  0.35290  0.88952  Biso   1.000  N
  N28      1.0000 0.42280  0.27090  0.86970  Biso   1.000  N
  H89      1.0000 0.40350  0.24140  0.90170  Biso   1.000  H
  H90      1.0000 0.46880  0.24610  0.85470  Biso   1.000  H
  N29      1.0000 0.02330  0.18870  0.75825  Biso   1.000  N
  N30      1.0000 0.87990  0.12650  0.83724  Biso   1.000  N
  C121     1.0000 0.96290  0.75420  0.21420  Biso   1.000  C
  H91      1.0000 0.99260  0.75950  0.17740  Biso   1.000  H
  C122     1.0000 0.90700  0.68740  0.21970  Biso   1.000  C
  H92      1.0000 0.90110  0.64900  0.18760  Biso   1.000  H
  C123     1.0000 0.86010  0.67820  0.27320  Biso   1.000  C
  C124     1.0000 0.87630  0.73640  0.31970  Biso   1.000  C
  H93      1.0000 0.84840  0.73210  0.35730  Biso   1.000  H
  C125     1.0000 0.93370  0.80070  0.31010  Biso   1.000  C
  H94      1.0000 0.94260  0.83890  0.34200  Biso   1.000  H
  C126     1.0000 0.79360  0.61210  0.27940  Biso   1.000  C
  C127     1.0000 0.79420  0.54100  0.24260  Biso   1.000  C
  H95      1.0000 0.83750  0.53310  0.21420  Biso   1.000  H
  C128     1.0000 0.73110  0.48150  0.24760  Biso   1.000  C
  H96      1.0000 0.73320  0.43300  0.22360  Biso   1.000  H
  C129     1.0000 0.66500  0.49360  0.28790  Biso   1.000  C
  H97      1.0000 0.62220  0.45370  0.29070  Biso   1.000  H
  C130     1.0000 0.66220  0.56580  0.32450  Biso   1.000  C
  C131     1.0000 0.72640  0.62420  0.32000  Biso   1.000  C
  H98      1.0000 0.72480  0.67240  0.34440  Biso   1.000  H
  C132     1.0000 0.59200  0.57400  0.36829  Biso   1.000  C
  C133     1.0000 0.49580  0.62480  0.43024  Biso   1.000  C
  C134     1.0000 0.44040  0.68680  0.46076  Biso   1.000  C
  C135     1.0000 0.45670  0.71770  0.52000  Biso   1.000  C
  H99      1.0000 0.50410  0.70000  0.54170  Biso   1.000  H
  C136     1.0000 0.40160  0.77460  0.54590  Biso   1.000  C
  H100     1.0000 0.41120  0.79380  0.58590  Biso   1.000  H
  C137     1.0000 0.33240  0.80380  0.51370  Biso   1.000  C
  H101     1.0000 0.29650  0.84310  0.53180  Biso   1.000  H
  C138     1.0000 0.31610  0.77460  0.45400  Biso   1.000  C
  C139     1.0000 0.37040  0.71590  0.42860  Biso   1.000  C
  H102     1.0000 0.35980  0.69530  0.38910  Biso   1.000  H
  C140     1.0000 0.24370  0.80660  0.41650  Biso   1.000  C
  C141     1.0000 0.21630  0.76300  0.36450  Biso   1.000  C
  H103     1.0000 0.23830  0.71010  0.35540  Biso   1.000  H
  C142     1.0000 0.15720  0.79800  0.32700  Biso   1.000  C
  H104     1.0000 0.14120  0.76810  0.29200  Biso   1.000  H
  C143     1.0000 0.14120  0.91170  0.39020  Biso   1.000  C
  H105     1.0000 0.11350  0.96130  0.40060  Biso   1.000  H
  C144     1.0000 0.20150  0.88170  0.43020  Biso   1.000  C
  H106     1.0000 0.21420  0.91120  0.46610  Biso   1.000  H
  N31      1.0000 0.55370  0.51010  0.39445  Biso   1.000  N
  N32      1.0000 0.49330  0.54230  0.43369  Biso   1.000  N
  N33      1.0000 0.55710  0.64710  0.38952  Biso   1.000  N
  N34      1.0000 0.57720  0.72910  0.36970  Biso   1.000  N
  H107     1.0000 0.59650  0.75860  0.40170  Biso   1.000  H
  H108     1.0000 0.53120  0.75390  0.35470  Biso   1.000  H
  N35      1.0000 0.97670  0.81130  0.25825  Biso   1.000  N
  N36      1.0000 0.12010  0.87350  0.33724  Biso   1.000  N
  C145     1.0000 0.74580  0.46290  0.96420  Biso   1.000  C
  H109     1.0000 0.74050  0.49260  0.92740  Biso   1.000  H
  C146     1.0000 0.81260  0.40700  0.96970  Biso   1.000  C
  H110     1.0000 0.85100  0.40110  0.93760  Biso   1.000  H
  C147     1.0000 0.82180  0.36010  0.02320  Biso   1.000  C
  C148     1.0000 0.76360  0.37630  0.06970  Biso   1.000  C
  H111     1.0000 0.76790  0.34840  0.10730  Biso   1.000  H
  C149     1.0000 0.69930  0.43370  0.06010  Biso   1.000  C
  H112     1.0000 0.66110  0.44260  0.09200  Biso   1.000  H
  C150     1.0000 0.88790  0.29360  0.02940  Biso   1.000  C
  C151     1.0000 0.95900  0.29420  0.99260  Biso   1.000  C
  H113     1.0000 0.96690  0.33750  0.96420  Biso   1.000  H
  C152     1.0000 0.01850  0.23110  0.99760  Biso   1.000  C
  H114     1.0000 0.06700  0.23320  0.97360  Biso   1.000  H
  C153     1.0000 0.00640  0.16500  0.03790  Biso   1.000  C
  H115     1.0000 0.04630  0.12220  0.04070  Biso   1.000  H
  C154     1.0000 0.93420  0.16220  0.07450  Biso   1.000  C
  C155     1.0000 0.87580  0.22640  0.07000  Biso   1.000  C
  H116     1.0000 0.82760  0.22480  0.09440  Biso   1.000  H
  C156     1.0000 0.92600  0.09200  0.11829  Biso   1.000  C
  C157     1.0000 0.87520  0.99580  0.18024  Biso   1.000  C
  C158     1.0000 0.81320  0.94040  0.21076  Biso   1.000  C
  C159     1.0000 0.78230  0.95670  0.27000  Biso   1.000  C
  H117     1.0000 0.80000  0.00410  0.29170  Biso   1.000  H
  C160     1.0000 0.72540  0.90160  0.29590  Biso   1.000  C
  H118     1.0000 0.70620  0.91120  0.33590  Biso   1.000  H
  C161     1.0000 0.69620  0.83240  0.26370  Biso   1.000  C
  H119     1.0000 0.65690  0.79650  0.28180  Biso   1.000  H
  C162     1.0000 0.72540  0.81610  0.20400  Biso   1.000  C
  C163     1.0000 0.78410  0.87040  0.17860  Biso   1.000  C
  H120     1.0000 0.80470  0.85980  0.13910  Biso   1.000  H
  C164     1.0000 0.69340  0.74370  0.16650  Biso   1.000  C
  C165     1.0000 0.73700  0.71630  0.11450  Biso   1.000  C
  H121     1.0000 0.78990  0.73830  0.10540  Biso   1.000  H
  C166     1.0000 0.70200  0.65720  0.07700  Biso   1.000  C
  H122     1.0000 0.73190  0.64120  0.04200  Biso   1.000  H
  C167     1.0000 0.58830  0.64120  0.14020  Biso   1.000  C
  H123     1.0000 0.53870  0.61350  0.15060  Biso   1.000  H
  C168     1.0000 0.61830  0.70150  0.18020  Biso   1.000  C
  H124     1.0000 0.58880  0.71420  0.21610  Biso   1.000  H
  N37      1.0000 0.98990  0.05370  0.14445  Biso   1.000  N
  N38      1.0000 0.95770  0.99330  0.18369  Biso   1.000  N
  N39      1.0000 0.85290  0.05710  0.13952  Biso   1.000  N
  N40      1.0000 0.77090  0.07720  0.11970  Biso   1.000  N
  H125     1.0000 0.74140  0.09650  0.15170  Biso   1.000  H
  H126     1.0000 0.74610  0.03120  0.10470  Biso   1.000  H
  N41      1.0000 0.68870  0.47670  0.00825  Biso   1.000  N
  N42      1.0000 0.62650  0.62010  0.08724  Biso   1.000  N
  C169     1.0000 0.25420  0.53710  0.46420  Biso   1.000  C
  H127     1.0000 0.25950  0.50740  0.42740  Biso   1.000  H
  C170     1.0000 0.18740  0.59300  0.46970  Biso   1.000  C
  H128     1.0000 0.14900  0.59890  0.43760  Biso   1.000  H
  C171     1.0000 0.17820  0.63990  0.52320  Biso   1.000  C
  C172     1.0000 0.23640  0.62370  0.56970  Biso   1.000  C
  H129     1.0000 0.23210  0.65160  0.60730  Biso   1.000  H
  C173     1.0000 0.30070  0.56630  0.56010  Biso   1.000  C
  H130     1.0000 0.33890  0.55740  0.59200  Biso   1.000  H
  C174     1.0000 0.11210  0.70640  0.52940  Biso   1.000  C
  C175     1.0000 0.04100  0.70580  0.49260  Biso   1.000  C
  H131     1.0000 0.03310  0.66250  0.46420  Biso   1.000  H
  C176     1.0000 0.98150  0.76890  0.49760  Biso   1.000  C
  H132     1.0000 0.93300  0.76680  0.47360  Biso   1.000  H
  C177     1.0000 0.99360  0.83500  0.53790  Biso   1.000  C
  H133     1.0000 0.95370  0.87780  0.54070  Biso   1.000  H
  C178     1.0000 0.06580  0.83780  0.57450  Biso   1.000  C
  C179     1.0000 0.12420  0.77360  0.57000  Biso   1.000  C
  H134     1.0000 0.17240  0.77520  0.59440  Biso   1.000  H
  C180     1.0000 0.07400  0.90800  0.61829  Biso   1.000  C
  C181     1.0000 0.12480  0.00420  0.68024  Biso   1.000  C
  C182     1.0000 0.18680  0.05960  0.71076  Biso   1.000  C
  C183     1.0000 0.21770  0.04330  0.77000  Biso   1.000  C
  H135     1.0000 0.20000  0.99590  0.79170  Biso   1.000  H
  C184     1.0000 0.27460  0.09840  0.79590  Biso   1.000  C
  H136     1.0000 0.29380  0.08880  0.83590  Biso   1.000  H
  C185     1.0000 0.30380  0.16760  0.76370  Biso   1.000  C
  H137     1.0000 0.34310  0.20350  0.78180  Biso   1.000  H
  C186     1.0000 0.27460  0.18390  0.70400  Biso   1.000  C
  C187     1.0000 0.21590  0.12960  0.67860  Biso   1.000  C
  H138     1.0000 0.19530  0.14020  0.63910  Biso   1.000  H
  C188     1.0000 0.30660  0.25630  0.66650  Biso   1.000  C
  C189     1.0000 0.26300  0.28370  0.61450  Biso   1.000  C
  H139     1.0000 0.21010  0.26170  0.60540  Biso   1.000  H
  C190     1.0000 0.29800  0.34280  0.57700  Biso   1.000  C
  H140     1.0000 0.26810  0.35880  0.54200  Biso   1.000  H
  C191     1.0000 0.41170  0.35880  0.64020  Biso   1.000  C
  H141     1.0000 0.46130  0.38650  0.65060  Biso   1.000  H
  C192     1.0000 0.38170  0.29850  0.68020  Biso   1.000  C
  H142     1.0000 0.41120  0.28580  0.71610  Biso   1.000  H
  N43      1.0000 0.01010  0.94630  0.64445  Biso   1.000  N
  N44      1.0000 0.04230  0.00670  0.68369  Biso   1.000  N
  N45      1.0000 0.14710  0.94290  0.63952  Biso   1.000  N
  N46      1.0000 0.22910  0.92280  0.61970  Biso   1.000  N
  H143     1.0000 0.25860  0.90350  0.65170  Biso   1.000  H
  H144     1.0000 0.25390  0.96880  0.60470  Biso   1.000  H
  N47      1.0000 0.31130  0.52330  0.50825  Biso   1.000  N
  N48      1.0000 0.37350  0.37990  0.58724  Biso   1.000  N
  Cd1      1.0000 0.94014  0.05986  0.75000  Biso   1.000  Cd
  Cd2      1.0000 0.05986  0.94014  0.25000  Biso   1.000  Cd
  Cd3      1.0000 0.44014  0.44014  0.50000  Biso   1.000  Cd
  Cd4      1.0000 0.55986  0.55986  0.00000  Biso   1.000  Cd
