data_image0
_cell_length_a       15.905
_cell_length_b       15.905
_cell_length_c       21.548
_cell_angle_alpha    90
_cell_angle_beta     90
_cell_angle_gamma    90

_symmetry_space_group_name_H-M    "P 1"
_symmetry_int_tables_number       1

loop_
  _symmetry_equiv_pos_as_xyz
  'x, y, z'

loop_
  _atom_site_label
  _atom_site_occupancy
  _atom_site_fract_x
  _atom_site_fract_y
  _atom_site_fract_z
  _atom_site_thermal_displace_type
  _atom_site_B_iso_or_equiv
  _atom_site_type_symbol
  C1       1.0000 0.03700  0.75640  0.53600  Biso   1.000  C
  H1       1.0000 0.00500  0.76070  0.57310  Biso   1.000  H
  C2       1.0000 0.09430  0.69000  0.53090  Biso   1.000  C
  H2       1.0000 0.10070  0.65080  0.56380  Biso   1.000  H
  C3       1.0000 0.14220  0.68190  0.47660  Biso   1.000  C
  C4       1.0000 0.12650  0.74060  0.43050  Biso   1.000  C
  H3       1.0000 0.15530  0.73650  0.39190  Biso   1.000  H
  C5       1.0000 0.06930  0.80480  0.43980  Biso   1.000  C
  H4       1.0000 0.06120  0.84480  0.40760  Biso   1.000  H
  C6       1.0000 0.20780  0.61680  0.47080  Biso   1.000  C
  C7       1.0000 0.20660  0.54390  0.50670  Biso   1.000  C
  H5       1.0000 0.16160  0.53510  0.53490  Biso   1.000  H
  C8       1.0000 0.26930  0.48440  0.50200  Biso   1.000  C
  H6       1.0000 0.26720  0.43530  0.52710  Biso   1.000  H
  C9       1.0000 0.33450  0.49560  0.46160  Biso   1.000  C
  H7       1.0000 0.37710  0.45400  0.45820  Biso   1.000  H
  C10      1.0000 0.33850  0.56790  0.42540  Biso   1.000  C
  C11      1.0000 0.27500  0.62680  0.43040  Biso   1.000  C
  H8       1.0000 0.27740  0.67590  0.40530  Biso   1.000  H
  C12      1.0000 0.40830  0.57660  0.38170  Biso   1.000  C
  C13      1.0000 0.12630  0.99510  0.56980  Biso   1.000  C
  C14      1.0000 0.18840  0.93980  0.53980  Biso   1.000  C
  C15      1.0000 0.21870  0.95640  0.47950  Biso   1.000  C
  H9       1.0000 0.20000  0.00430  0.45710  Biso   1.000  H
  C16      1.0000 0.27670  0.90080  0.45360  Biso   1.000  C
  H10      1.0000 0.29590  0.90980  0.41240  Biso   1.000  H
  C17      1.0000 0.30670  0.83240  0.48700  Biso   1.000  C
  H11      1.0000 0.34720  0.79600  0.46880  Biso   1.000  H
  C18      1.0000 0.27810  0.81670  0.54680  Biso   1.000  C
  C19      1.0000 0.21800  0.87110  0.57230  Biso   1.000  C
  H12      1.0000 0.19720  0.86040  0.61290  Biso   1.000  H
  C20      1.0000 0.30800  0.74420  0.58350  Biso   1.000  C
  C21      1.0000 0.26530  0.71680  0.63650  Biso   1.000  C
  H13      1.0000 0.21190  0.74000  0.64650  Biso   1.000  H
  C22      1.0000 0.30040  0.65660  0.67400  Biso   1.000  C
  H14      1.0000 0.27030  0.63990  0.71000  Biso   1.000  H
  C23      1.0000 0.41280  0.64050  0.61020  Biso   1.000  C
  H15      1.0000 0.46330  0.61200  0.59970  Biso   1.000  H
  C24      1.0000 0.38310  0.70130  0.56980  Biso   1.000  C
  H16      1.0000 0.41330  0.71390  0.53290  Biso   1.000  H
  N1       1.0000 0.02460  0.81330  0.49240  Biso   1.000  N
  N2       1.0000 0.44600  0.51220  0.35530  Biso   1.000  N
  N3       1.0000 0.04460  0.99310  0.56640  Biso   1.000  N
  N4       1.0000 0.44360  0.64900  0.36030  Biso   1.000  N
  N5       1.0000 0.42500  0.73110  0.38100  Biso   1.000  N
  H17      1.0000 0.47350  0.75860  0.39030  Biso   1.000  H
  H18      1.0000 0.39740  0.75920  0.35020  Biso   1.000  H
  N6       1.0000 0.88000  0.87460  0.41270  Biso   1.000  N
  C25      1.0000 0.96300  0.24360  0.03600  Biso   1.000  C
  H19      1.0000 0.99500  0.23930  0.07310  Biso   1.000  H
  C26      1.0000 0.90570  0.31000  0.03090  Biso   1.000  C
  H20      1.0000 0.89930  0.34920  0.06380  Biso   1.000  H
  C27      1.0000 0.85780  0.31810  0.97660  Biso   1.000  C
  C28      1.0000 0.87350  0.25940  0.93050  Biso   1.000  C
  H21      1.0000 0.84470  0.26350  0.89190  Biso   1.000  H
  C29      1.0000 0.93070  0.19520  0.93980  Biso   1.000  C
  H22      1.0000 0.93880  0.15520  0.90760  Biso   1.000  H
  C30      1.0000 0.79220  0.38320  0.97080  Biso   1.000  C
  C31      1.0000 0.79340  0.45610  0.00670  Biso   1.000  C
  H23      1.0000 0.83840  0.46490  0.03490  Biso   1.000  H
  C32      1.0000 0.73070  0.51560  0.00200  Biso   1.000  C
  H24      1.0000 0.73280  0.56470  0.02710  Biso   1.000  H
  C33      1.0000 0.66550  0.50440  0.96160  Biso   1.000  C
  H25      1.0000 0.62290  0.54600  0.95820  Biso   1.000  H
  C34      1.0000 0.66150  0.43210  0.92540  Biso   1.000  C
  C35      1.0000 0.72500  0.37320  0.93040  Biso   1.000  C
  H26      1.0000 0.72260  0.32410  0.90530  Biso   1.000  H
  C36      1.0000 0.59170  0.42340  0.88170  Biso   1.000  C
  C37      1.0000 0.87370  0.00490  0.06980  Biso   1.000  C
  C38      1.0000 0.81160  0.06020  0.03980  Biso   1.000  C
  C39      1.0000 0.78130  0.04360  0.97950  Biso   1.000  C
  H27      1.0000 0.80000  0.99570  0.95710  Biso   1.000  H
  C40      1.0000 0.72330  0.09920  0.95360  Biso   1.000  C
  H28      1.0000 0.70410  0.09020  0.91240  Biso   1.000  H
  C41      1.0000 0.69330  0.16760  0.98700  Biso   1.000  C
  H29      1.0000 0.65280  0.20400  0.96880  Biso   1.000  H
  C42      1.0000 0.72190  0.18330  0.04680  Biso   1.000  C
  C43      1.0000 0.78200  0.12890  0.07230  Biso   1.000  C
  H30      1.0000 0.80280  0.13960  0.11290  Biso   1.000  H
  C44      1.0000 0.69200  0.25580  0.08350  Biso   1.000  C
  C45      1.0000 0.73470  0.28320  0.13650  Biso   1.000  C
  H31      1.0000 0.78810  0.26000  0.14650  Biso   1.000  H
  C46      1.0000 0.69960  0.34340  0.17400  Biso   1.000  C
  H32      1.0000 0.72970  0.36010  0.21000  Biso   1.000  H
  C47      1.0000 0.58720  0.35950  0.11020  Biso   1.000  C
  H33      1.0000 0.53670  0.38800  0.09970  Biso   1.000  H
  C48      1.0000 0.61690  0.29870  0.06980  Biso   1.000  C
  H34      1.0000 0.58670  0.28610  0.03290  Biso   1.000  H
  N7       1.0000 0.97540  0.18670  0.99240  Biso   1.000  N
  N8       1.0000 0.55400  0.48780  0.85530  Biso   1.000  N
  N9       1.0000 0.95540  0.00690  0.06640  Biso   1.000  N
  N10      1.0000 0.55640  0.35100  0.86030  Biso   1.000  N
  N11      1.0000 0.57500  0.26890  0.88100  Biso   1.000  N
  H35      1.0000 0.52650  0.24140  0.89030  Biso   1.000  H
  H36      1.0000 0.60260  0.24080  0.85020  Biso   1.000  H
  N12      1.0000 0.12000  0.12540  0.91270  Biso   1.000  N
  C49      1.0000 0.74360  0.53700  0.28600  Biso   1.000  C
  H37      1.0000 0.73930  0.50500  0.32310  Biso   1.000  H
  C50      1.0000 0.81000  0.59430  0.28090  Biso   1.000  C
  H38      1.0000 0.84920  0.60070  0.31380  Biso   1.000  H
  C51      1.0000 0.81810  0.64220  0.22660  Biso   1.000  C
  C52      1.0000 0.75940  0.62650  0.18050  Biso   1.000  C
  H39      1.0000 0.76350  0.65530  0.14190  Biso   1.000  H
  C53      1.0000 0.69520  0.56930  0.18980  Biso   1.000  C
  H40      1.0000 0.65520  0.56120  0.15760  Biso   1.000  H
  C54      1.0000 0.88320  0.70780  0.22080  Biso   1.000  C
  C55      1.0000 0.95610  0.70660  0.25670  Biso   1.000  C
  H41      1.0000 0.96490  0.66160  0.28490  Biso   1.000  H
  C56      1.0000 0.01560  0.76930  0.25200  Biso   1.000  C
  H42      1.0000 0.06470  0.76720  0.27710  Biso   1.000  H
  C57      1.0000 0.00440  0.83450  0.21160  Biso   1.000  C
  H43      1.0000 0.04600  0.87710  0.20820  Biso   1.000  H
  C58      1.0000 0.93210  0.83850  0.17540  Biso   1.000  C
  C59      1.0000 0.87320  0.77500  0.18040  Biso   1.000  C
  H44      1.0000 0.82410  0.77740  0.15530  Biso   1.000  H
  C60      1.0000 0.92340  0.90830  0.13170  Biso   1.000  C
  C61      1.0000 0.50490  0.62630  0.31980  Biso   1.000  C
  C62      1.0000 0.56020  0.68840  0.28980  Biso   1.000  C
  C63      1.0000 0.54360  0.71870  0.22950  Biso   1.000  C
  H45      1.0000 0.49570  0.70000  0.20710  Biso   1.000  H
  C64      1.0000 0.59920  0.77670  0.20360  Biso   1.000  C
  H46      1.0000 0.59020  0.79590  0.16240  Biso   1.000  H
  C65      1.0000 0.66760  0.80670  0.23700  Biso   1.000  C
  H47      1.0000 0.70400  0.84720  0.21880  Biso   1.000  H
  C66      1.0000 0.68330  0.77810  0.29680  Biso   1.000  C
  C67      1.0000 0.62890  0.71800  0.32230  Biso   1.000  C
  H48      1.0000 0.63960  0.69720  0.36290  Biso   1.000  H
  C68      1.0000 0.75580  0.80800  0.33350  Biso   1.000  C
  C69      1.0000 0.78320  0.76530  0.38650  Biso   1.000  C
  H49      1.0000 0.76000  0.71190  0.39650  Biso   1.000  H
  C70      1.0000 0.84340  0.80040  0.42400  Biso   1.000  C
  H50      1.0000 0.86010  0.77030  0.46000  Biso   1.000  H
  C71      1.0000 0.85950  0.91280  0.36020  Biso   1.000  C
  H51      1.0000 0.88800  0.96330  0.34970  Biso   1.000  H
  C72      1.0000 0.79870  0.88310  0.31980  Biso   1.000  C
  H52      1.0000 0.78610  0.91330  0.28290  Biso   1.000  H
  N13      1.0000 0.68670  0.52460  0.24240  Biso   1.000  N
  N14      1.0000 0.98780  0.94600  0.10530  Biso   1.000  N
  N15      1.0000 0.50690  0.54460  0.31640  Biso   1.000  N
  N16      1.0000 0.85100  0.94360  0.11030  Biso   1.000  N
  N17      1.0000 0.76890  0.92500  0.13100  Biso   1.000  N
  H53      1.0000 0.74140  0.97350  0.14030  Biso   1.000  H
  H54      1.0000 0.74080  0.89740  0.10020  Biso   1.000  H
  N18      1.0000 0.62540  0.38000  0.16270  Biso   1.000  N
  C73      1.0000 0.25640  0.46300  0.78600  Biso   1.000  C
  H55      1.0000 0.26070  0.49500  0.82310  Biso   1.000  H
  C74      1.0000 0.19000  0.40570  0.78090  Biso   1.000  C
  H56      1.0000 0.15080  0.39930  0.81380  Biso   1.000  H
  C75      1.0000 0.18190  0.35780  0.72660  Biso   1.000  C
  C76      1.0000 0.24060  0.37350  0.68050  Biso   1.000  C
  H57      1.0000 0.23650  0.34470  0.64190  Biso   1.000  H
  C77      1.0000 0.30480  0.43070  0.68980  Biso   1.000  C
  H58      1.0000 0.34480  0.43880  0.65760  Biso   1.000  H
  C78      1.0000 0.11680  0.29220  0.72080  Biso   1.000  C
  C79      1.0000 0.04390  0.29340  0.75670  Biso   1.000  C
  H59      1.0000 0.03510  0.33840  0.78490  Biso   1.000  H
  C80      1.0000 0.98440  0.23070  0.75200  Biso   1.000  C
  H60      1.0000 0.93530  0.23280  0.77710  Biso   1.000  H
  C81      1.0000 0.99560  0.16550  0.71160  Biso   1.000  C
  H61      1.0000 0.95400  0.12290  0.70820  Biso   1.000  H
  C82      1.0000 0.06790  0.16150  0.67540  Biso   1.000  C
  C83      1.0000 0.12680  0.22500  0.68040  Biso   1.000  C
  H62      1.0000 0.17590  0.22260  0.65530  Biso   1.000  H
  C84      1.0000 0.07660  0.09170  0.63170  Biso   1.000  C
  C85      1.0000 0.49510  0.37370  0.81980  Biso   1.000  C
  C86      1.0000 0.43980  0.31160  0.78980  Biso   1.000  C
  C87      1.0000 0.45640  0.28130  0.72950  Biso   1.000  C
  H63      1.0000 0.50430  0.30000  0.70710  Biso   1.000  H
  C88      1.0000 0.40080  0.22330  0.70360  Biso   1.000  C
  H64      1.0000 0.40980  0.20410  0.66240  Biso   1.000  H
  C89      1.0000 0.33240  0.19330  0.73700  Biso   1.000  C
  H65      1.0000 0.29600  0.15280  0.71880  Biso   1.000  H
  C90      1.0000 0.31670  0.22190  0.79680  Biso   1.000  C
  C91      1.0000 0.37110  0.28200  0.82230  Biso   1.000  C
  H66      1.0000 0.36040  0.30280  0.86290  Biso   1.000  H
  C92      1.0000 0.24420  0.19200  0.83350  Biso   1.000  C
  C93      1.0000 0.21680  0.23470  0.88650  Biso   1.000  C
  H67      1.0000 0.24000  0.28810  0.89650  Biso   1.000  H
  C94      1.0000 0.15660  0.19960  0.92400  Biso   1.000  C
  H68      1.0000 0.13990  0.22970  0.96000  Biso   1.000  H
  C95      1.0000 0.14050  0.08720  0.86020  Biso   1.000  C
  H69      1.0000 0.11200  0.03670  0.84970  Biso   1.000  H
  C96      1.0000 0.20130  0.11690  0.81980  Biso   1.000  C
  H70      1.0000 0.21390  0.08670  0.78290  Biso   1.000  H
  N19      1.0000 0.31330  0.47540  0.74240  Biso   1.000  N
  N20      1.0000 0.01220  0.05400  0.60530  Biso   1.000  N
  N21      1.0000 0.49310  0.45540  0.81640  Biso   1.000  N
  N22      1.0000 0.14900  0.05640  0.61030  Biso   1.000  N
  N23      1.0000 0.23110  0.07500  0.63100  Biso   1.000  N
  H71      1.0000 0.25860  0.02650  0.64030  Biso   1.000  H
  H72      1.0000 0.25920  0.10260  0.60020  Biso   1.000  H
  N24      1.0000 0.37460  0.62000  0.66270  Biso   1.000  N
  C97      1.0000 0.46300  0.25640  0.21400  Biso   1.000  C
  H73      1.0000 0.49500  0.26070  0.17690  Biso   1.000  H
  C98      1.0000 0.40570  0.19000  0.21910  Biso   1.000  C
  H74      1.0000 0.39930  0.15080  0.18620  Biso   1.000  H
  C99      1.0000 0.35780  0.18190  0.27340  Biso   1.000  C
  C100     1.0000 0.37350  0.24060  0.31950  Biso   1.000  C
  H75      1.0000 0.34470  0.23650  0.35810  Biso   1.000  H
  C101     1.0000 0.43070  0.30480  0.31020  Biso   1.000  C
  H76      1.0000 0.43880  0.34480  0.34240  Biso   1.000  H
  C102     1.0000 0.29220  0.11680  0.27920  Biso   1.000  C
  C103     1.0000 0.29340  0.04390  0.24330  Biso   1.000  C
  H77      1.0000 0.33840  0.03510  0.21510  Biso   1.000  H
  C104     1.0000 0.23070  0.98440  0.24800  Biso   1.000  C
  H78      1.0000 0.23280  0.93530  0.22290  Biso   1.000  H
  C105     1.0000 0.16550  0.99560  0.28840  Biso   1.000  C
  H79      1.0000 0.12290  0.95400  0.29180  Biso   1.000  H
  C106     1.0000 0.16150  0.06790  0.32460  Biso   1.000  C
  C107     1.0000 0.22500  0.12680  0.31960  Biso   1.000  C
  H80      1.0000 0.22260  0.17590  0.34470  Biso   1.000  H
  C108     1.0000 0.09170  0.07660  0.36830  Biso   1.000  C
  C109     1.0000 0.37370  0.49510  0.18020  Biso   1.000  C
  C110     1.0000 0.31160  0.43980  0.21020  Biso   1.000  C
  C111     1.0000 0.28130  0.45640  0.27050  Biso   1.000  C
  H81      1.0000 0.30000  0.50430  0.29290  Biso   1.000  H
  C112     1.0000 0.22330  0.40080  0.29640  Biso   1.000  C
  H82      1.0000 0.20410  0.40980  0.33760  Biso   1.000  H
  C113     1.0000 0.19330  0.33240  0.26300  Biso   1.000  C
  H83      1.0000 0.15280  0.29600  0.28120  Biso   1.000  H
  C114     1.0000 0.22190  0.31670  0.20320  Biso   1.000  C
  C115     1.0000 0.28200  0.37110  0.17770  Biso   1.000  C
  H84      1.0000 0.30280  0.36040  0.13710  Biso   1.000  H
  C116     1.0000 0.19200  0.24420  0.16650  Biso   1.000  C
  C117     1.0000 0.23470  0.21680  0.11350  Biso   1.000  C
  H85      1.0000 0.28810  0.24000  0.10350  Biso   1.000  H
  C118     1.0000 0.19960  0.15660  0.07600  Biso   1.000  C
  H86      1.0000 0.22970  0.13990  0.04000  Biso   1.000  H
  C119     1.0000 0.08720  0.14050  0.13980  Biso   1.000  C
  H87      1.0000 0.03670  0.11200  0.15030  Biso   1.000  H
  C120     1.0000 0.11690  0.20130  0.18020  Biso   1.000  C
  H88      1.0000 0.08670  0.21390  0.21710  Biso   1.000  H
  N25      1.0000 0.47540  0.31330  0.25760  Biso   1.000  N
  N26      1.0000 0.05400  0.01220  0.39470  Biso   1.000  N
  N27      1.0000 0.45540  0.49310  0.18360  Biso   1.000  N
  N28      1.0000 0.05640  0.14900  0.38970  Biso   1.000  N
  N29      1.0000 0.07500  0.23110  0.36900  Biso   1.000  N
  H89      1.0000 0.02650  0.25860  0.35970  Biso   1.000  H
  H90      1.0000 0.10260  0.25920  0.39980  Biso   1.000  H
  N30      1.0000 0.62000  0.37460  0.33730  Biso   1.000  N
  C121     1.0000 0.53700  0.74360  0.71400  Biso   1.000  C
  H91      1.0000 0.50500  0.73930  0.67690  Biso   1.000  H
  C122     1.0000 0.59430  0.81000  0.71910  Biso   1.000  C
  H92      1.0000 0.60070  0.84920  0.68620  Biso   1.000  H
  C123     1.0000 0.64220  0.81810  0.77340  Biso   1.000  C
  C124     1.0000 0.62650  0.75940  0.81950  Biso   1.000  C
  H93      1.0000 0.65530  0.76350  0.85810  Biso   1.000  H
  C125     1.0000 0.56930  0.69520  0.81020  Biso   1.000  C
  H94      1.0000 0.56120  0.65520  0.84240  Biso   1.000  H
  C126     1.0000 0.70780  0.88320  0.77920  Biso   1.000  C
  C127     1.0000 0.70660  0.95610  0.74330  Biso   1.000  C
  H95      1.0000 0.66160  0.96490  0.71510  Biso   1.000  H
  C128     1.0000 0.76930  0.01560  0.74800  Biso   1.000  C
  H96      1.0000 0.76720  0.06470  0.72290  Biso   1.000  H
  C129     1.0000 0.83450  0.00440  0.78840  Biso   1.000  C
  H97      1.0000 0.87710  0.04600  0.79180  Biso   1.000  H
  C130     1.0000 0.83850  0.93210  0.82460  Biso   1.000  C
  C131     1.0000 0.77500  0.87320  0.81960  Biso   1.000  C
  H98      1.0000 0.77740  0.82410  0.84470  Biso   1.000  H
  C132     1.0000 0.90830  0.92340  0.86830  Biso   1.000  C
  C133     1.0000 0.62630  0.50490  0.68020  Biso   1.000  C
  C134     1.0000 0.68840  0.56020  0.71020  Biso   1.000  C
  C135     1.0000 0.71870  0.54360  0.77050  Biso   1.000  C
  H99      1.0000 0.70000  0.49570  0.79290  Biso   1.000  H
  C136     1.0000 0.77670  0.59920  0.79640  Biso   1.000  C
  H100     1.0000 0.79590  0.59020  0.83760  Biso   1.000  H
  C137     1.0000 0.80670  0.66760  0.76300  Biso   1.000  C
  H101     1.0000 0.84720  0.70400  0.78120  Biso   1.000  H
  C138     1.0000 0.77810  0.68330  0.70320  Biso   1.000  C
  C139     1.0000 0.71800  0.62890  0.67770  Biso   1.000  C
  H102     1.0000 0.69720  0.63960  0.63710  Biso   1.000  H
  C140     1.0000 0.80800  0.75580  0.66650  Biso   1.000  C
  C141     1.0000 0.76530  0.78320  0.61350  Biso   1.000  C
  H103     1.0000 0.71190  0.76000  0.60350  Biso   1.000  H
  C142     1.0000 0.80040  0.84340  0.57600  Biso   1.000  C
  H104     1.0000 0.77030  0.86010  0.54000  Biso   1.000  H
  C143     1.0000 0.91280  0.85950  0.63980  Biso   1.000  C
  H105     1.0000 0.96330  0.88800  0.65030  Biso   1.000  H
  C144     1.0000 0.88310  0.79870  0.68020  Biso   1.000  C
  H106     1.0000 0.91330  0.78610  0.71710  Biso   1.000  H
  N31      1.0000 0.52460  0.68670  0.75760  Biso   1.000  N
  N32      1.0000 0.94600  0.98780  0.89470  Biso   1.000  N
  N33      1.0000 0.54460  0.50690  0.68360  Biso   1.000  N
  N34      1.0000 0.94360  0.85100  0.88970  Biso   1.000  N
  N35      1.0000 0.92500  0.76890  0.86900  Biso   1.000  N
  H107     1.0000 0.97350  0.74140  0.85970  Biso   1.000  H
  H108     1.0000 0.89740  0.74080  0.89980  Biso   1.000  H
  N36      1.0000 0.38000  0.62540  0.83730  Biso   1.000  N
  C145     1.0000 0.75640  0.03700  0.46400  Biso   1.000  C
  H109     1.0000 0.76070  0.00500  0.42690  Biso   1.000  H
  C146     1.0000 0.69000  0.09430  0.46910  Biso   1.000  C
  H110     1.0000 0.65080  0.10070  0.43620  Biso   1.000  H
  C147     1.0000 0.68190  0.14220  0.52340  Biso   1.000  C
  C148     1.0000 0.74060  0.12650  0.56950  Biso   1.000  C
  H111     1.0000 0.73650  0.15530  0.60810  Biso   1.000  H
  C149     1.0000 0.80480  0.06930  0.56020  Biso   1.000  C
  H112     1.0000 0.84480  0.06120  0.59240  Biso   1.000  H
  C150     1.0000 0.61680  0.20780  0.52920  Biso   1.000  C
  C151     1.0000 0.54390  0.20660  0.49330  Biso   1.000  C
  H113     1.0000 0.53510  0.16160  0.46510  Biso   1.000  H
  C152     1.0000 0.48440  0.26930  0.49800  Biso   1.000  C
  H114     1.0000 0.43530  0.26720  0.47290  Biso   1.000  H
  C153     1.0000 0.49560  0.33450  0.53840  Biso   1.000  C
  H115     1.0000 0.45400  0.37710  0.54180  Biso   1.000  H
  C154     1.0000 0.56790  0.33850  0.57460  Biso   1.000  C
  C155     1.0000 0.62680  0.27500  0.56960  Biso   1.000  C
  H116     1.0000 0.67590  0.27740  0.59470  Biso   1.000  H
  C156     1.0000 0.57660  0.40830  0.61830  Biso   1.000  C
  C157     1.0000 0.99510  0.12630  0.43020  Biso   1.000  C
  C158     1.0000 0.93980  0.18840  0.46020  Biso   1.000  C
  C159     1.0000 0.95640  0.21870  0.52050  Biso   1.000  C
  H117     1.0000 0.00430  0.20000  0.54290  Biso   1.000  H
  C160     1.0000 0.90080  0.27670  0.54640  Biso   1.000  C
  H118     1.0000 0.90980  0.29590  0.58760  Biso   1.000  H
  C161     1.0000 0.83240  0.30670  0.51300  Biso   1.000  C
  H119     1.0000 0.79600  0.34720  0.53120  Biso   1.000  H
  C162     1.0000 0.81670  0.27810  0.45320  Biso   1.000  C
  C163     1.0000 0.87110  0.21800  0.42770  Biso   1.000  C
  H120     1.0000 0.86040  0.19720  0.38710  Biso   1.000  H
  C164     1.0000 0.74420  0.30800  0.41650  Biso   1.000  C
  C165     1.0000 0.71680  0.26530  0.36350  Biso   1.000  C
  H121     1.0000 0.74000  0.21190  0.35350  Biso   1.000  H
  C166     1.0000 0.65660  0.30040  0.32600  Biso   1.000  C
  H122     1.0000 0.63990  0.27030  0.29000  Biso   1.000  H
  C167     1.0000 0.64050  0.41280  0.38980  Biso   1.000  C
  H123     1.0000 0.61200  0.46330  0.40030  Biso   1.000  H
  C168     1.0000 0.70130  0.38310  0.43020  Biso   1.000  C
  H124     1.0000 0.71390  0.41330  0.46710  Biso   1.000  H
  N37      1.0000 0.81330  0.02460  0.50760  Biso   1.000  N
  N38      1.0000 0.51220  0.44600  0.64470  Biso   1.000  N
  N39      1.0000 0.99310  0.04460  0.43360  Biso   1.000  N
  N40      1.0000 0.64900  0.44360  0.63970  Biso   1.000  N
  N41      1.0000 0.73110  0.42500  0.61900  Biso   1.000  N
  H125     1.0000 0.75860  0.47350  0.60970  Biso   1.000  H
  H126     1.0000 0.75920  0.39740  0.64980  Biso   1.000  H
  N42      1.0000 0.87460  0.88000  0.58730  Biso   1.000  N
  C169     1.0000 0.24360  0.96300  0.96400  Biso   1.000  C
  H127     1.0000 0.23930  0.99500  0.92690  Biso   1.000  H
  C170     1.0000 0.31000  0.90570  0.96910  Biso   1.000  C
  H128     1.0000 0.34920  0.89930  0.93620  Biso   1.000  H
  C171     1.0000 0.31810  0.85780  0.02340  Biso   1.000  C
  C172     1.0000 0.25940  0.87350  0.06950  Biso   1.000  C
  H129     1.0000 0.26350  0.84470  0.10810  Biso   1.000  H
  C173     1.0000 0.19520  0.93070  0.06020  Biso   1.000  C
  H130     1.0000 0.15520  0.93880  0.09240  Biso   1.000  H
  C174     1.0000 0.38320  0.79220  0.02920  Biso   1.000  C
  C175     1.0000 0.45610  0.79340  0.99330  Biso   1.000  C
  H131     1.0000 0.46490  0.83840  0.96510  Biso   1.000  H
  C176     1.0000 0.51560  0.73070  0.99800  Biso   1.000  C
  H132     1.0000 0.56470  0.73280  0.97290  Biso   1.000  H
  C177     1.0000 0.50440  0.66550  0.03840  Biso   1.000  C
  H133     1.0000 0.54600  0.62290  0.04180  Biso   1.000  H
  C178     1.0000 0.43210  0.66150  0.07460  Biso   1.000  C
  C179     1.0000 0.37320  0.72500  0.06960  Biso   1.000  C
  H134     1.0000 0.32410  0.72260  0.09470  Biso   1.000  H
  C180     1.0000 0.42340  0.59170  0.11830  Biso   1.000  C
  C181     1.0000 0.00490  0.87370  0.93020  Biso   1.000  C
  C182     1.0000 0.06020  0.81160  0.96020  Biso   1.000  C
  C183     1.0000 0.04360  0.78130  0.02050  Biso   1.000  C
  H135     1.0000 0.99570  0.80000  0.04290  Biso   1.000  H
  C184     1.0000 0.09920  0.72330  0.04640  Biso   1.000  C
  H136     1.0000 0.09020  0.70410  0.08760  Biso   1.000  H
  C185     1.0000 0.16760  0.69330  0.01300  Biso   1.000  C
  H137     1.0000 0.20400  0.65280  0.03120  Biso   1.000  H
  C186     1.0000 0.18330  0.72190  0.95320  Biso   1.000  C
  C187     1.0000 0.12890  0.78200  0.92770  Biso   1.000  C
  H138     1.0000 0.13960  0.80280  0.88710  Biso   1.000  H
  C188     1.0000 0.25580  0.69200  0.91650  Biso   1.000  C
  C189     1.0000 0.28320  0.73470  0.86350  Biso   1.000  C
  H139     1.0000 0.26000  0.78810  0.85350  Biso   1.000  H
  C190     1.0000 0.34340  0.69960  0.82600  Biso   1.000  C
  H140     1.0000 0.36010  0.72970  0.79000  Biso   1.000  H
  C191     1.0000 0.35950  0.58720  0.88980  Biso   1.000  C
  H141     1.0000 0.38800  0.53670  0.90030  Biso   1.000  H
  C192     1.0000 0.29870  0.61690  0.93020  Biso   1.000  C
  H142     1.0000 0.28610  0.58670  0.96710  Biso   1.000  H
  N43      1.0000 0.18670  0.97540  0.00760  Biso   1.000  N
  N44      1.0000 0.48780  0.55400  0.14470  Biso   1.000  N
  N45      1.0000 0.00690  0.95540  0.93360  Biso   1.000  N
  N46      1.0000 0.35100  0.55640  0.13970  Biso   1.000  N
  N47      1.0000 0.26890  0.57500  0.11900  Biso   1.000  N
  H143     1.0000 0.24140  0.52650  0.10970  Biso   1.000  H
  H144     1.0000 0.24080  0.60260  0.14980  Biso   1.000  H
  N48      1.0000 0.12540  0.12000  0.08730  Biso   1.000  N
  Cd1      1.0000 0.94113  0.94113  0.50000  Biso   1.000  Cd
  Cd2      1.0000 0.05887  0.05887  0.00000  Biso   1.000  Cd
  Cd3      1.0000 0.55887  0.44113  0.25000  Biso   1.000  Cd
  Cd4      1.0000 0.44113  0.55887  0.75000  Biso   1.000  Cd
