data_image0
_cell_length_a       15.884
_cell_length_b       15.884
_cell_length_c       21.44
_cell_angle_alpha    90
_cell_angle_beta     90
_cell_angle_gamma    90

_symmetry_space_group_name_H-M    "P 1"
_symmetry_int_tables_number       1

loop_
  _symmetry_equiv_pos_as_xyz
  'x, y, z'

loop_
  _atom_site_label
  _atom_site_occupancy
  _atom_site_fract_x
  _atom_site_fract_y
  _atom_site_fract_z
  _atom_site_thermal_displace_type
  _atom_site_B_iso_or_equiv
  _atom_site_type_symbol
  C1       1.0000 0.93170  0.80260  0.80990  Biso   1.000  C
  H1       1.0000 0.93970  0.84140  0.84190  Biso   1.000  H
  C2       1.0000 0.87480  0.73890  0.81930  Biso   1.000  C
  H2       1.0000 0.84650  0.73510  0.85720  Biso   1.000  H
  C3       1.0000 0.85900  0.68020  0.77290  Biso   1.000  C
  C4       1.0000 0.90750  0.68870  0.71940  Biso   1.000  C
  H3       1.0000 0.90220  0.64980  0.68720  Biso   1.000  H
  C5       1.0000 0.96410  0.75530  0.71390  Biso   1.000  C
  H4       1.0000 0.99510  0.75970  0.67720  Biso   1.000  H
  C6       1.0000 0.79380  0.61440  0.77860  Biso   1.000  C
  C7       1.0000 0.79260  0.54270  0.74120  Biso   1.000  C
  H5       1.0000 0.83460  0.53520  0.71150  Biso   1.000  H
  C8       1.0000 0.73040  0.48270  0.74740  Biso   1.000  C
  H6       1.0000 0.73350  0.43340  0.72420  Biso   1.000  H
  C9       1.0000 0.66380  0.49510  0.78740  Biso   1.000  C
  H7       1.0000 0.62070  0.45560  0.79000  Biso   1.000  H
  C10      1.0000 0.66160  0.56720  0.82370  Biso   1.000  C
  C11      1.0000 0.72580  0.62580  0.81940  Biso   1.000  C
  H8       1.0000 0.72370  0.67390  0.84420  Biso   1.000  H
  C12      1.0000 0.59210  0.57560  0.86810  Biso   1.000  C
  C13      1.0000 0.49520  0.62570  0.93100  Biso   1.000  C
  C14      1.0000 0.44000  0.68830  0.96120  Biso   1.000  C
  C15      1.0000 0.45850  0.72000  0.02050  Biso   1.000  C
  H9       1.0000 0.50640  0.70260  0.04180  Biso   1.000  H
  C16      1.0000 0.40360  0.77830  0.04690  Biso   1.000  C
  H10      1.0000 0.41360  0.79820  0.08700  Biso   1.000  H
  C17      1.0000 0.33380  0.80720  0.01380  Biso   1.000  C
  H11      1.0000 0.29810  0.84670  0.03190  Biso   1.000  H
  C18      1.0000 0.31700  0.77840  0.95500  Biso   1.000  C
  C19      1.0000 0.37120  0.71630  0.92930  Biso   1.000  C
  H12      1.0000 0.35950  0.69430  0.89010  Biso   1.000  H
  C20      1.0000 0.24550  0.80880  0.91710  Biso   1.000  C
  C21      1.0000 0.20180  0.88310  0.93040  Biso   1.000  C
  H13      1.0000 0.21420  0.91280  0.96670  Biso   1.000  H
  C22      1.0000 0.14080  0.91290  0.89060  Biso   1.000  C
  H14      1.0000 0.11290  0.96250  0.90090  Biso   1.000  H
  C23      1.0000 0.15630  0.79980  0.82690  Biso   1.000  C
  H15      1.0000 0.13960  0.76980  0.79170  Biso   1.000  H
  C24      1.0000 0.21660  0.76530  0.86410  Biso   1.000  C
  H16      1.0000 0.23890  0.71280  0.85440  Biso   1.000  H
  N1       1.0000 0.49310  0.54420  0.93350  Biso   1.000  N
  N2       1.0000 0.55350  0.51140  0.89410  Biso   1.000  N
  N3       1.0000 0.55670  0.64900  0.89020  Biso   1.000  N
  N4       1.0000 0.57730  0.73050  0.87000  Biso   1.000  N
  H17      1.0000 0.53300  0.75310  0.85090  Biso   1.000  H
  H18      1.0000 0.59110  0.76190  0.90290  Biso   1.000  H
  N5       1.0000 0.97630  0.81240  0.75770  Biso   1.000  N
  N6       1.0000 0.11990  0.87370  0.83780  Biso   1.000  N
  C25      1.0000 0.06830  0.19740  0.30990  Biso   1.000  C
  H19      1.0000 0.06030  0.15860  0.34190  Biso   1.000  H
  C26      1.0000 0.12520  0.26110  0.31930  Biso   1.000  C
  H20      1.0000 0.15350  0.26490  0.35720  Biso   1.000  H
  C27      1.0000 0.14100  0.31980  0.27290  Biso   1.000  C
  C28      1.0000 0.09250  0.31130  0.21940  Biso   1.000  C
  H21      1.0000 0.09780  0.35020  0.18720  Biso   1.000  H
  C29      1.0000 0.03590  0.24470  0.21390  Biso   1.000  C
  H22      1.0000 0.00490  0.24030  0.17720  Biso   1.000  H
  C30      1.0000 0.20620  0.38560  0.27860  Biso   1.000  C
  C31      1.0000 0.20740  0.45730  0.24120  Biso   1.000  C
  H23      1.0000 0.16540  0.46480  0.21150  Biso   1.000  H
  C32      1.0000 0.26960  0.51730  0.24740  Biso   1.000  C
  H24      1.0000 0.26650  0.56660  0.22420  Biso   1.000  H
  C33      1.0000 0.33620  0.50490  0.28740  Biso   1.000  C
  H25      1.0000 0.37930  0.54440  0.29000  Biso   1.000  H
  C34      1.0000 0.33840  0.43280  0.32370  Biso   1.000  C
  C35      1.0000 0.27420  0.37420  0.31940  Biso   1.000  C
  H26      1.0000 0.27630  0.32610  0.34420  Biso   1.000  H
  C36      1.0000 0.40790  0.42440  0.36810  Biso   1.000  C
  C37      1.0000 0.50480  0.37430  0.43100  Biso   1.000  C
  C38      1.0000 0.56000  0.31170  0.46120  Biso   1.000  C
  C39      1.0000 0.54150  0.28000  0.52050  Biso   1.000  C
  H27      1.0000 0.49360  0.29740  0.54180  Biso   1.000  H
  C40      1.0000 0.59640  0.22170  0.54690  Biso   1.000  C
  H28      1.0000 0.58640  0.20180  0.58700  Biso   1.000  H
  C41      1.0000 0.66620  0.19280  0.51380  Biso   1.000  C
  H29      1.0000 0.70190  0.15330  0.53190  Biso   1.000  H
  C42      1.0000 0.68300  0.22160  0.45500  Biso   1.000  C
  C43      1.0000 0.62880  0.28370  0.42930  Biso   1.000  C
  H30      1.0000 0.64050  0.30570  0.39010  Biso   1.000  H
  C44      1.0000 0.75450  0.19120  0.41710  Biso   1.000  C
  C45      1.0000 0.79820  0.11690  0.43040  Biso   1.000  C
  H31      1.0000 0.78580  0.08720  0.46670  Biso   1.000  H
  C46      1.0000 0.85920  0.08710  0.39060  Biso   1.000  C
  H32      1.0000 0.88710  0.03750  0.40090  Biso   1.000  H
  C47      1.0000 0.84370  0.20020  0.32690  Biso   1.000  C
  H33      1.0000 0.86040  0.23020  0.29170  Biso   1.000  H
  C48      1.0000 0.78340  0.23470  0.36410  Biso   1.000  C
  H34      1.0000 0.76110  0.28720  0.35440  Biso   1.000  H
  N7       1.0000 0.50690  0.45580  0.43350  Biso   1.000  N
  N8       1.0000 0.44650  0.48860  0.39410  Biso   1.000  N
  N9       1.0000 0.44330  0.35100  0.39020  Biso   1.000  N
  N10      1.0000 0.42270  0.26950  0.37000  Biso   1.000  N
  H35      1.0000 0.46700  0.24690  0.35090  Biso   1.000  H
  H36      1.0000 0.40890  0.23810  0.40290  Biso   1.000  H
  N11      1.0000 0.02370  0.18760  0.25770  Biso   1.000  N
  N12      1.0000 0.88010  0.12630  0.33780  Biso   1.000  N
  C49      1.0000 0.69740  0.43170  0.55990  Biso   1.000  C
  H37      1.0000 0.65860  0.43970  0.59190  Biso   1.000  H
  C50      1.0000 0.76110  0.37480  0.56930  Biso   1.000  C
  H38      1.0000 0.76490  0.34650  0.60720  Biso   1.000  H
  C51      1.0000 0.81980  0.35900  0.52290  Biso   1.000  C
  C52      1.0000 0.81130  0.40750  0.46940  Biso   1.000  C
  H39      1.0000 0.85020  0.40220  0.43720  Biso   1.000  H
  C53      1.0000 0.74470  0.46410  0.46390  Biso   1.000  C
  H40      1.0000 0.74030  0.49510  0.42720  Biso   1.000  H
  C54      1.0000 0.88560  0.29380  0.52860  Biso   1.000  C
  C55      1.0000 0.95730  0.29260  0.49120  Biso   1.000  C
  H41      1.0000 0.96480  0.33460  0.46150  Biso   1.000  H
  C56      1.0000 0.01730  0.23040  0.49740  Biso   1.000  C
  H42      1.0000 0.06660  0.23350  0.47420  Biso   1.000  H
  C57      1.0000 0.00490  0.16380  0.53740  Biso   1.000  C
  H43      1.0000 0.04440  0.12070  0.54000  Biso   1.000  H
  C58      1.0000 0.93280  0.16160  0.57370  Biso   1.000  C
  C59      1.0000 0.87420  0.22580  0.56940  Biso   1.000  C
  H44      1.0000 0.82610  0.22370  0.59420  Biso   1.000  H
  C60      1.0000 0.92440  0.09210  0.61810  Biso   1.000  C
  C61      1.0000 0.87430  0.99520  0.68100  Biso   1.000  C
  C62      1.0000 0.81170  0.94000  0.71120  Biso   1.000  C
  C63      1.0000 0.78000  0.95850  0.77050  Biso   1.000  C
  H45      1.0000 0.79740  0.00640  0.79180  Biso   1.000  H
  C64      1.0000 0.72170  0.90360  0.79690  Biso   1.000  C
  H46      1.0000 0.70180  0.91360  0.83700  Biso   1.000  H
  C65      1.0000 0.69280  0.83380  0.76380  Biso   1.000  C
  H47      1.0000 0.65330  0.79810  0.78190  Biso   1.000  H
  C66      1.0000 0.72160  0.81700  0.70500  Biso   1.000  C
  C67      1.0000 0.78370  0.87120  0.67930  Biso   1.000  C
  H48      1.0000 0.80570  0.85950  0.64010  Biso   1.000  H
  C68      1.0000 0.69120  0.74550  0.66710  Biso   1.000  C
  C69      1.0000 0.61690  0.70180  0.68040  Biso   1.000  C
  H49      1.0000 0.58720  0.71420  0.71670  Biso   1.000  H
  C70      1.0000 0.58710  0.64080  0.64060  Biso   1.000  C
  H50      1.0000 0.53750  0.61290  0.65090  Biso   1.000  H
  C71      1.0000 0.70020  0.65630  0.57690  Biso   1.000  C
  H51      1.0000 0.73020  0.63960  0.54170  Biso   1.000  H
  C72      1.0000 0.73470  0.71660  0.61410  Biso   1.000  C
  H52      1.0000 0.78720  0.73890  0.60440  Biso   1.000  H
  N13      1.0000 0.95580  0.99310  0.68350  Biso   1.000  N
  N14      1.0000 0.98860  0.05350  0.64410  Biso   1.000  N
  N15      1.0000 0.85100  0.05670  0.64020  Biso   1.000  N
  N16      1.0000 0.76950  0.07730  0.62000  Biso   1.000  N
  H53      1.0000 0.74690  0.03300  0.60090  Biso   1.000  H
  H54      1.0000 0.73810  0.09110  0.65290  Biso   1.000  H
  N17      1.0000 0.68760  0.47630  0.50770  Biso   1.000  N
  N18      1.0000 0.62630  0.61990  0.58780  Biso   1.000  N
  C73      1.0000 0.30260  0.56830  0.05990  Biso   1.000  C
  H55      1.0000 0.34140  0.56030  0.09190  Biso   1.000  H
  C74      1.0000 0.23890  0.62520  0.06930  Biso   1.000  C
  H56      1.0000 0.23510  0.65350  0.10720  Biso   1.000  H
  C75      1.0000 0.18020  0.64100  0.02290  Biso   1.000  C
  C76      1.0000 0.18870  0.59250  0.96940  Biso   1.000  C
  H57      1.0000 0.14980  0.59780  0.93720  Biso   1.000  H
  C77      1.0000 0.25530  0.53590  0.96390  Biso   1.000  C
  H58      1.0000 0.25970  0.50490  0.92720  Biso   1.000  H
  C78      1.0000 0.11440  0.70620  0.02860  Biso   1.000  C
  C79      1.0000 0.04270  0.70740  0.99120  Biso   1.000  C
  H59      1.0000 0.03520  0.66540  0.96150  Biso   1.000  H
  C80      1.0000 0.98270  0.76960  0.99740  Biso   1.000  C
  H60      1.0000 0.93340  0.76650  0.97420  Biso   1.000  H
  C81      1.0000 0.99510  0.83620  0.03740  Biso   1.000  C
  H61      1.0000 0.95560  0.87930  0.04000  Biso   1.000  H
  C82      1.0000 0.06720  0.83840  0.07370  Biso   1.000  C
  C83      1.0000 0.12580  0.77420  0.06940  Biso   1.000  C
  H62      1.0000 0.17390  0.77630  0.09420  Biso   1.000  H
  C84      1.0000 0.07560  0.90790  0.11810  Biso   1.000  C
  C85      1.0000 0.12570  0.00480  0.18100  Biso   1.000  C
  C86      1.0000 0.18830  0.06000  0.21120  Biso   1.000  C
  C87      1.0000 0.22000  0.04150  0.27050  Biso   1.000  C
  H63      1.0000 0.20260  0.99360  0.29180  Biso   1.000  H
  C88      1.0000 0.27830  0.09640  0.29690  Biso   1.000  C
  H64      1.0000 0.29820  0.08640  0.33700  Biso   1.000  H
  C89      1.0000 0.30720  0.16620  0.26380  Biso   1.000  C
  H65      1.0000 0.34670  0.20190  0.28190  Biso   1.000  H
  C90      1.0000 0.27840  0.18300  0.20500  Biso   1.000  C
  C91      1.0000 0.21630  0.12880  0.17930  Biso   1.000  C
  H66      1.0000 0.19430  0.14050  0.14010  Biso   1.000  H
  C92      1.0000 0.30880  0.25450  0.16710  Biso   1.000  C
  C93      1.0000 0.38310  0.29820  0.18040  Biso   1.000  C
  H67      1.0000 0.41280  0.28580  0.21670  Biso   1.000  H
  C94      1.0000 0.41290  0.35920  0.14060  Biso   1.000  C
  H68      1.0000 0.46250  0.38710  0.15090  Biso   1.000  H
  C95      1.0000 0.29980  0.34370  0.07690  Biso   1.000  C
  H69      1.0000 0.26980  0.36040  0.04170  Biso   1.000  H
  C96      1.0000 0.26530  0.28340  0.11410  Biso   1.000  C
  H70      1.0000 0.21280  0.26110  0.10440  Biso   1.000  H
  N19      1.0000 0.04420  0.00690  0.18350  Biso   1.000  N
  N20      1.0000 0.01140  0.94650  0.14410  Biso   1.000  N
  N21      1.0000 0.14900  0.94330  0.14020  Biso   1.000  N
  N22      1.0000 0.23050  0.92270  0.12000  Biso   1.000  N
  H71      1.0000 0.25310  0.96700  0.10090  Biso   1.000  H
  H72      1.0000 0.26190  0.90890  0.15290  Biso   1.000  H
  N23      1.0000 0.31240  0.52370  0.00770  Biso   1.000  N
  N24      1.0000 0.37370  0.38010  0.08780  Biso   1.000  N
  C97      1.0000 0.56830  0.30260  0.94010  Biso   1.000  C
  H73      1.0000 0.56030  0.34140  0.90810  Biso   1.000  H
  C98      1.0000 0.62520  0.23890  0.93070  Biso   1.000  C
  H74      1.0000 0.65350  0.23510  0.89280  Biso   1.000  H
  C99      1.0000 0.64100  0.18020  0.97710  Biso   1.000  C
  C100     1.0000 0.59250  0.18870  0.03060  Biso   1.000  C
  H75      1.0000 0.59780  0.14980  0.06280  Biso   1.000  H
  C101     1.0000 0.53590  0.25530  0.03610  Biso   1.000  C
  H76      1.0000 0.50490  0.25970  0.07280  Biso   1.000  H
  C102     1.0000 0.70620  0.11440  0.97140  Biso   1.000  C
  C103     1.0000 0.70740  0.04270  0.00880  Biso   1.000  C
  H77      1.0000 0.66540  0.03520  0.03850  Biso   1.000  H
  C104     1.0000 0.76960  0.98270  0.00260  Biso   1.000  C
  H78      1.0000 0.76650  0.93340  0.02580  Biso   1.000  H
  C105     1.0000 0.83620  0.99510  0.96260  Biso   1.000  C
  H79      1.0000 0.87930  0.95560  0.96000  Biso   1.000  H
  C106     1.0000 0.83840  0.06720  0.92630  Biso   1.000  C
  C107     1.0000 0.77420  0.12580  0.93060  Biso   1.000  C
  H80      1.0000 0.77630  0.17390  0.90580  Biso   1.000  H
  C108     1.0000 0.90790  0.07560  0.88190  Biso   1.000  C
  C109     1.0000 0.00480  0.12570  0.81900  Biso   1.000  C
  C110     1.0000 0.06000  0.18830  0.78880  Biso   1.000  C
  C111     1.0000 0.04150  0.22000  0.72950  Biso   1.000  C
  H81      1.0000 0.99360  0.20260  0.70820  Biso   1.000  H
  C112     1.0000 0.09640  0.27830  0.70310  Biso   1.000  C
  H82      1.0000 0.08640  0.29820  0.66300  Biso   1.000  H
  C113     1.0000 0.16620  0.30720  0.73620  Biso   1.000  C
  H83      1.0000 0.20190  0.34670  0.71810  Biso   1.000  H
  C114     1.0000 0.18300  0.27840  0.79500  Biso   1.000  C
  C115     1.0000 0.12880  0.21630  0.82070  Biso   1.000  C
  H84      1.0000 0.14050  0.19430  0.85990  Biso   1.000  H
  C116     1.0000 0.25450  0.30880  0.83290  Biso   1.000  C
  C117     1.0000 0.29820  0.38310  0.81960  Biso   1.000  C
  H85      1.0000 0.28580  0.41280  0.78330  Biso   1.000  H
  C118     1.0000 0.35920  0.41290  0.85940  Biso   1.000  C
  H86      1.0000 0.38710  0.46250  0.84910  Biso   1.000  H
  C119     1.0000 0.34370  0.29980  0.92310  Biso   1.000  C
  H87      1.0000 0.36040  0.26980  0.95830  Biso   1.000  H
  C120     1.0000 0.28340  0.26530  0.88590  Biso   1.000  C
  H88      1.0000 0.26110  0.21280  0.89560  Biso   1.000  H
  N25      1.0000 0.00690  0.04420  0.81650  Biso   1.000  N
  N26      1.0000 0.94650  0.01140  0.85590  Biso   1.000  N
  N27      1.0000 0.94330  0.14900  0.85980  Biso   1.000  N
  N28      1.0000 0.92270  0.23050  0.88000  Biso   1.000  N
  H89      1.0000 0.96700  0.25310  0.89910  Biso   1.000  H
  H90      1.0000 0.90890  0.26190  0.84710  Biso   1.000  H
  N29      1.0000 0.52370  0.31240  0.99230  Biso   1.000  N
  N30      1.0000 0.38010  0.37370  0.91220  Biso   1.000  N
  C121     1.0000 0.43170  0.69740  0.44010  Biso   1.000  C
  H91      1.0000 0.43970  0.65860  0.40810  Biso   1.000  H
  C122     1.0000 0.37480  0.76110  0.43070  Biso   1.000  C
  H92      1.0000 0.34650  0.76490  0.39280  Biso   1.000  H
  C123     1.0000 0.35900  0.81980  0.47710  Biso   1.000  C
  C124     1.0000 0.40750  0.81130  0.53060  Biso   1.000  C
  H93      1.0000 0.40220  0.85020  0.56280  Biso   1.000  H
  C125     1.0000 0.46410  0.74470  0.53610  Biso   1.000  C
  H94      1.0000 0.49510  0.74030  0.57280  Biso   1.000  H
  C126     1.0000 0.29380  0.88560  0.47140  Biso   1.000  C
  C127     1.0000 0.29260  0.95730  0.50880  Biso   1.000  C
  H95      1.0000 0.33460  0.96480  0.53850  Biso   1.000  H
  C128     1.0000 0.23040  0.01730  0.50260  Biso   1.000  C
  H96      1.0000 0.23350  0.06660  0.52580  Biso   1.000  H
  C129     1.0000 0.16380  0.00490  0.46260  Biso   1.000  C
  H97      1.0000 0.12070  0.04440  0.46000  Biso   1.000  H
  C130     1.0000 0.16160  0.93280  0.42630  Biso   1.000  C
  C131     1.0000 0.22580  0.87420  0.43060  Biso   1.000  C
  H98      1.0000 0.22370  0.82610  0.40580  Biso   1.000  H
  C132     1.0000 0.09210  0.92440  0.38190  Biso   1.000  C
  C133     1.0000 0.99520  0.87430  0.31900  Biso   1.000  C
  C134     1.0000 0.94000  0.81170  0.28880  Biso   1.000  C
  C135     1.0000 0.95850  0.78000  0.22950  Biso   1.000  C
  H99      1.0000 0.00640  0.79740  0.20820  Biso   1.000  H
  C136     1.0000 0.90360  0.72170  0.20310  Biso   1.000  C
  H100     1.0000 0.91360  0.70180  0.16300  Biso   1.000  H
  C137     1.0000 0.83380  0.69280  0.23620  Biso   1.000  C
  H101     1.0000 0.79810  0.65330  0.21810  Biso   1.000  H
  C138     1.0000 0.81700  0.72160  0.29500  Biso   1.000  C
  C139     1.0000 0.87120  0.78370  0.32070  Biso   1.000  C
  H102     1.0000 0.85950  0.80570  0.35990  Biso   1.000  H
  C140     1.0000 0.74550  0.69120  0.33290  Biso   1.000  C
  C141     1.0000 0.70180  0.61690  0.31960  Biso   1.000  C
  H103     1.0000 0.71420  0.58720  0.28330  Biso   1.000  H
  C142     1.0000 0.64080  0.58710  0.35940  Biso   1.000  C
  H104     1.0000 0.61290  0.53750  0.34910  Biso   1.000  H
  C143     1.0000 0.65630  0.70020  0.42310  Biso   1.000  C
  H105     1.0000 0.63960  0.73020  0.45830  Biso   1.000  H
  C144     1.0000 0.71660  0.73470  0.38590  Biso   1.000  C
  H106     1.0000 0.73890  0.78720  0.39560  Biso   1.000  H
  N31      1.0000 0.99310  0.95580  0.31650  Biso   1.000  N
  N32      1.0000 0.05350  0.98860  0.35590  Biso   1.000  N
  N33      1.0000 0.05670  0.85100  0.35980  Biso   1.000  N
  N34      1.0000 0.07730  0.76950  0.38000  Biso   1.000  N
  H107     1.0000 0.03300  0.74690  0.39910  Biso   1.000  H
  H108     1.0000 0.09110  0.73810  0.34710  Biso   1.000  H
  N35      1.0000 0.47630  0.68760  0.49230  Biso   1.000  N
  N36      1.0000 0.61990  0.62630  0.41220  Biso   1.000  N
  C145     1.0000 0.80260  0.93170  0.19010  Biso   1.000  C
  H109     1.0000 0.84140  0.93970  0.15810  Biso   1.000  H
  C146     1.0000 0.73890  0.87480  0.18070  Biso   1.000  C
  H110     1.0000 0.73510  0.84650  0.14280  Biso   1.000  H
  C147     1.0000 0.68020  0.85900  0.22710  Biso   1.000  C
  C148     1.0000 0.68870  0.90750  0.28060  Biso   1.000  C
  H111     1.0000 0.64980  0.90220  0.31280  Biso   1.000  H
  C149     1.0000 0.75530  0.96410  0.28610  Biso   1.000  C
  H112     1.0000 0.75970  0.99510  0.32280  Biso   1.000  H
  C150     1.0000 0.61440  0.79380  0.22140  Biso   1.000  C
  C151     1.0000 0.54270  0.79260  0.25880  Biso   1.000  C
  H113     1.0000 0.53520  0.83460  0.28850  Biso   1.000  H
  C152     1.0000 0.48270  0.73040  0.25260  Biso   1.000  C
  H114     1.0000 0.43340  0.73350  0.27580  Biso   1.000  H
  C153     1.0000 0.49510  0.66380  0.21260  Biso   1.000  C
  H115     1.0000 0.45560  0.62070  0.21000  Biso   1.000  H
  C154     1.0000 0.56720  0.66160  0.17630  Biso   1.000  C
  C155     1.0000 0.62580  0.72580  0.18060  Biso   1.000  C
  H116     1.0000 0.67390  0.72370  0.15580  Biso   1.000  H
  C156     1.0000 0.57560  0.59210  0.13190  Biso   1.000  C
  C157     1.0000 0.62570  0.49520  0.06900  Biso   1.000  C
  C158     1.0000 0.68830  0.44000  0.03880  Biso   1.000  C
  C159     1.0000 0.72000  0.45850  0.97950  Biso   1.000  C
  H117     1.0000 0.70260  0.50640  0.95820  Biso   1.000  H
  C160     1.0000 0.77830  0.40360  0.95310  Biso   1.000  C
  H118     1.0000 0.79820  0.41360  0.91300  Biso   1.000  H
  C161     1.0000 0.80720  0.33380  0.98620  Biso   1.000  C
  H119     1.0000 0.84670  0.29810  0.96810  Biso   1.000  H
  C162     1.0000 0.77840  0.31700  0.04500  Biso   1.000  C
  C163     1.0000 0.71630  0.37120  0.07070  Biso   1.000  C
  H120     1.0000 0.69430  0.35950  0.10990  Biso   1.000  H
  C164     1.0000 0.80880  0.24550  0.08290  Biso   1.000  C
  C165     1.0000 0.88310  0.20180  0.06960  Biso   1.000  C
  H121     1.0000 0.91280  0.21420  0.03330  Biso   1.000  H
  C166     1.0000 0.91290  0.14080  0.10940  Biso   1.000  C
  H122     1.0000 0.96250  0.11290  0.09910  Biso   1.000  H
  C167     1.0000 0.79980  0.15630  0.17310  Biso   1.000  C
  H123     1.0000 0.76980  0.13960  0.20830  Biso   1.000  H
  C168     1.0000 0.76530  0.21660  0.13590  Biso   1.000  C
  H124     1.0000 0.71280  0.23890  0.14560  Biso   1.000  H
  N37      1.0000 0.54420  0.49310  0.06650  Biso   1.000  N
  N38      1.0000 0.51140  0.55350  0.10590  Biso   1.000  N
  N39      1.0000 0.64900  0.55670  0.10980  Biso   1.000  N
  N40      1.0000 0.73050  0.57730  0.13000  Biso   1.000  N
  H125     1.0000 0.75310  0.53300  0.14910  Biso   1.000  H
  H126     1.0000 0.76190  0.59110  0.09710  Biso   1.000  H
  N41      1.0000 0.81240  0.97630  0.24230  Biso   1.000  N
  N42      1.0000 0.87370  0.11990  0.16220  Biso   1.000  N
  C169     1.0000 0.19740  0.06830  0.69010  Biso   1.000  C
  H127     1.0000 0.15860  0.06030  0.65810  Biso   1.000  H
  C170     1.0000 0.26110  0.12520  0.68070  Biso   1.000  C
  H128     1.0000 0.26490  0.15350  0.64280  Biso   1.000  H
  C171     1.0000 0.31980  0.14100  0.72710  Biso   1.000  C
  C172     1.0000 0.31130  0.09250  0.78060  Biso   1.000  C
  H129     1.0000 0.35020  0.09780  0.81280  Biso   1.000  H
  C173     1.0000 0.24470  0.03590  0.78610  Biso   1.000  C
  H130     1.0000 0.24030  0.00490  0.82280  Biso   1.000  H
  C174     1.0000 0.38560  0.20620  0.72140  Biso   1.000  C
  C175     1.0000 0.45730  0.20740  0.75880  Biso   1.000  C
  H131     1.0000 0.46480  0.16540  0.78850  Biso   1.000  H
  C176     1.0000 0.51730  0.26960  0.75260  Biso   1.000  C
  H132     1.0000 0.56660  0.26650  0.77580  Biso   1.000  H
  C177     1.0000 0.50490  0.33620  0.71260  Biso   1.000  C
  H133     1.0000 0.54440  0.37930  0.71000  Biso   1.000  H
  C178     1.0000 0.43280  0.33840  0.67630  Biso   1.000  C
  C179     1.0000 0.37420  0.27420  0.68060  Biso   1.000  C
  H134     1.0000 0.32610  0.27630  0.65580  Biso   1.000  H
  C180     1.0000 0.42440  0.40790  0.63190  Biso   1.000  C
  C181     1.0000 0.37430  0.50480  0.56900  Biso   1.000  C
  C182     1.0000 0.31170  0.56000  0.53880  Biso   1.000  C
  C183     1.0000 0.28000  0.54150  0.47950  Biso   1.000  C
  H135     1.0000 0.29740  0.49360  0.45820  Biso   1.000  H
  C184     1.0000 0.22170  0.59640  0.45310  Biso   1.000  C
  H136     1.0000 0.20180  0.58640  0.41300  Biso   1.000  H
  C185     1.0000 0.19280  0.66620  0.48620  Biso   1.000  C
  H137     1.0000 0.15330  0.70190  0.46810  Biso   1.000  H
  C186     1.0000 0.22160  0.68300  0.54500  Biso   1.000  C
  C187     1.0000 0.28370  0.62880  0.57070  Biso   1.000  C
  H138     1.0000 0.30570  0.64050  0.60990  Biso   1.000  H
  C188     1.0000 0.19120  0.75450  0.58290  Biso   1.000  C
  C189     1.0000 0.11690  0.79820  0.56960  Biso   1.000  C
  H139     1.0000 0.08720  0.78580  0.53330  Biso   1.000  H
  C190     1.0000 0.08710  0.85920  0.60940  Biso   1.000  C
  H140     1.0000 0.03750  0.88710  0.59910  Biso   1.000  H
  C191     1.0000 0.20020  0.84370  0.67310  Biso   1.000  C
  H141     1.0000 0.23020  0.86040  0.70830  Biso   1.000  H
  C192     1.0000 0.23470  0.78340  0.63590  Biso   1.000  C
  H142     1.0000 0.28720  0.76110  0.64560  Biso   1.000  H
  N43      1.0000 0.45580  0.50690  0.56650  Biso   1.000  N
  N44      1.0000 0.48860  0.44650  0.60590  Biso   1.000  N
  N45      1.0000 0.35100  0.44330  0.60980  Biso   1.000  N
  N46      1.0000 0.26950  0.42270  0.63000  Biso   1.000  N
  H143     1.0000 0.24690  0.46700  0.64910  Biso   1.000  H
  H144     1.0000 0.23810  0.40890  0.59710  Biso   1.000  H
  N47      1.0000 0.18760  0.02370  0.74230  Biso   1.000  N
  N48      1.0000 0.12630  0.88010  0.66220  Biso   1.000  N
  Cd1      1.0000 0.44041  0.44041  0.00000  Biso   1.000  Cd
  Cd2      1.0000 0.55959  0.55959  0.50000  Biso   1.000  Cd
  Cd3      1.0000 0.05959  0.94041  0.75000  Biso   1.000  Cd
  Cd4      1.0000 0.94041  0.05959  0.25000  Biso   1.000  Cd
