data_image0
_cell_length_a       15.903
_cell_length_b       15.903
_cell_length_c       21.396
_cell_angle_alpha    90
_cell_angle_beta     90
_cell_angle_gamma    90

_symmetry_space_group_name_H-M    "P 1"
_symmetry_int_tables_number       1

loop_
  _symmetry_equiv_pos_as_xyz
  'x, y, z'

loop_
  _atom_site_label
  _atom_site_occupancy
  _atom_site_fract_x
  _atom_site_fract_y
  _atom_site_fract_z
  _atom_site_thermal_displace_type
  _atom_site_B_iso_or_equiv
  _atom_site_type_symbol
  C1       1.0000 0.15530  0.79940  0.82760  Biso   1.000  C
  H1       1.0000 0.13710  0.76860  0.79320  Biso   1.000  H
  C2       1.0000 0.21580  0.76550  0.86520  Biso   1.000  C
  H2       1.0000 0.23700  0.71250  0.85600  Biso   1.000  H
  C3       1.0000 0.24630  0.80890  0.91710  Biso   1.000  C
  C4       1.0000 0.20250  0.88460  0.93070  Biso   1.000  C
  H3       1.0000 0.21490  0.91450  0.96690  Biso   1.000  H
  C5       1.0000 0.14220  0.91350  0.89050  Biso   1.000  C
  H4       1.0000 0.11460  0.96320  0.90090  Biso   1.000  H
  C6       1.0000 0.31750  0.77920  0.95420  Biso   1.000  C
  C7       1.0000 0.33560  0.80940  0.01430  Biso   1.000  C
  H5       1.0000 0.30110  0.85020  0.03210  Biso   1.000  H
  C8       1.0000 0.40350  0.77970  0.04710  Biso   1.000  C
  H6       1.0000 0.41350  0.79940  0.08730  Biso   1.000  H
  C9       1.0000 0.45770  0.72050  0.02090  Biso   1.000  C
  H7       1.0000 0.50510  0.70260  0.04260  Biso   1.000  H
  C10      1.0000 0.43980  0.68870  0.96200  Biso   1.000  C
  C11      1.0000 0.37040  0.71790  0.92970  Biso   1.000  C
  H8       1.0000 0.35890  0.69590  0.89030  Biso   1.000  H
  C12      1.0000 0.49470  0.62620  0.93160  Biso   1.000  C
  C13      1.0000 0.59180  0.57630  0.86800  Biso   1.000  C
  C14      1.0000 0.66080  0.56830  0.82390  Biso   1.000  C
  C15      1.0000 0.66330  0.49670  0.78740  Biso   1.000  C
  H9       1.0000 0.62060  0.45690  0.79000  Biso   1.000  H
  C16      1.0000 0.73050  0.48470  0.74680  Biso   1.000  C
  H10      1.0000 0.73320  0.43590  0.72290  Biso   1.000  H
  C17      1.0000 0.79270  0.54400  0.74160  Biso   1.000  C
  H11      1.0000 0.83600  0.53620  0.71290  Biso   1.000  H
  C18      1.0000 0.79150  0.61560  0.77890  Biso   1.000  C
  C19      1.0000 0.72520  0.62720  0.81960  Biso   1.000  C
  H12      1.0000 0.72350  0.67510  0.84460  Biso   1.000  H
  C20      1.0000 0.85860  0.68160  0.77300  Biso   1.000  C
  C21      1.0000 0.87290  0.74080  0.81940  Biso   1.000  C
  H13      1.0000 0.84360  0.73760  0.85690  Biso   1.000  H
  C22      1.0000 0.93070  0.80450  0.81010  Biso   1.000  C
  H14      1.0000 0.93810  0.84390  0.84170  Biso   1.000  H
  C23      1.0000 0.96430  0.75520  0.71440  Biso   1.000  C
  H15      1.0000 0.99540  0.75950  0.67770  Biso   1.000  H
  C24      1.0000 0.90780  0.68870  0.71990  Biso   1.000  C
  H16      1.0000 0.90310  0.64920  0.68810  Biso   1.000  H
  N1       1.0000 0.12060  0.87570  0.83820  Biso   1.000  N
  N2       1.0000 0.49260  0.54440  0.93400  Biso   1.000  N
  N3       1.0000 0.55330  0.51240  0.89490  Biso   1.000  N
  N4       1.0000 0.55590  0.64920  0.89040  Biso   1.000  N
  N5       1.0000 0.57570  0.73130  0.86990  Biso   1.000  N
  H17      1.0000 0.52830  0.75880  0.86150  Biso   1.000  H
  H18      1.0000 0.60360  0.75800  0.90000  Biso   1.000  H
  N6       1.0000 0.97630  0.81240  0.75810  Biso   1.000  N
  C25      1.0000 0.84470  0.20060  0.32760  Biso   1.000  C
  H19      1.0000 0.86290  0.23140  0.29320  Biso   1.000  H
  C26      1.0000 0.78420  0.23450  0.36520  Biso   1.000  C
  H20      1.0000 0.76300  0.28750  0.35600  Biso   1.000  H
  C27      1.0000 0.75370  0.19110  0.41710  Biso   1.000  C
  C28      1.0000 0.79750  0.11540  0.43070  Biso   1.000  C
  H21      1.0000 0.78510  0.08550  0.46690  Biso   1.000  H
  C29      1.0000 0.85780  0.08650  0.39050  Biso   1.000  C
  H22      1.0000 0.88540  0.03680  0.40090  Biso   1.000  H
  C30      1.0000 0.68250  0.22080  0.45420  Biso   1.000  C
  C31      1.0000 0.66440  0.19060  0.51430  Biso   1.000  C
  H23      1.0000 0.69890  0.14980  0.53210  Biso   1.000  H
  C32      1.0000 0.59650  0.22030  0.54710  Biso   1.000  C
  H24      1.0000 0.58650  0.20060  0.58730  Biso   1.000  H
  C33      1.0000 0.54230  0.27950  0.52090  Biso   1.000  C
  H25      1.0000 0.49490  0.29740  0.54260  Biso   1.000  H
  C34      1.0000 0.56020  0.31130  0.46200  Biso   1.000  C
  C35      1.0000 0.62960  0.28210  0.42970  Biso   1.000  C
  H26      1.0000 0.64110  0.30410  0.39030  Biso   1.000  H
  C36      1.0000 0.50530  0.37380  0.43160  Biso   1.000  C
  C37      1.0000 0.40820  0.42370  0.36800  Biso   1.000  C
  C38      1.0000 0.33920  0.43170  0.32390  Biso   1.000  C
  C39      1.0000 0.33670  0.50330  0.28740  Biso   1.000  C
  H27      1.0000 0.37940  0.54310  0.29000  Biso   1.000  H
  C40      1.0000 0.26950  0.51530  0.24680  Biso   1.000  C
  H28      1.0000 0.26680  0.56410  0.22290  Biso   1.000  H
  C41      1.0000 0.20730  0.45600  0.24160  Biso   1.000  C
  H29      1.0000 0.16400  0.46380  0.21290  Biso   1.000  H
  C42      1.0000 0.20850  0.38440  0.27890  Biso   1.000  C
  C43      1.0000 0.27480  0.37280  0.31960  Biso   1.000  C
  H30      1.0000 0.27650  0.32490  0.34460  Biso   1.000  H
  C44      1.0000 0.14140  0.31840  0.27300  Biso   1.000  C
  C45      1.0000 0.12710  0.25920  0.31940  Biso   1.000  C
  H31      1.0000 0.15640  0.26240  0.35690  Biso   1.000  H
  C46      1.0000 0.06930  0.19550  0.31010  Biso   1.000  C
  H32      1.0000 0.06190  0.15610  0.34170  Biso   1.000  H
  C47      1.0000 0.03570  0.24480  0.21440  Biso   1.000  C
  H33      1.0000 0.00460  0.24050  0.17770  Biso   1.000  H
  C48      1.0000 0.09220  0.31130  0.21990  Biso   1.000  C
  H34      1.0000 0.09690  0.35080  0.18810  Biso   1.000  H
  N7       1.0000 0.87940  0.12430  0.33820  Biso   1.000  N
  N8       1.0000 0.50740  0.45560  0.43400  Biso   1.000  N
  N9       1.0000 0.44670  0.48760  0.39490  Biso   1.000  N
  N10      1.0000 0.44410  0.35080  0.39040  Biso   1.000  N
  N11      1.0000 0.42430  0.26870  0.36990  Biso   1.000  N
  H35      1.0000 0.47170  0.24120  0.36150  Biso   1.000  H
  H36      1.0000 0.39640  0.24200  0.40000  Biso   1.000  H
  N12      1.0000 0.02370  0.18760  0.25810  Biso   1.000  N
  C49      1.0000 0.70060  0.65530  0.57760  Biso   1.000  C
  H37      1.0000 0.73140  0.63710  0.54320  Biso   1.000  H
  C50      1.0000 0.73450  0.71580  0.61520  Biso   1.000  C
  H38      1.0000 0.78750  0.73700  0.60600  Biso   1.000  H
  C51      1.0000 0.69110  0.74630  0.66710  Biso   1.000  C
  C52      1.0000 0.61540  0.70250  0.68070  Biso   1.000  C
  H39      1.0000 0.58550  0.71490  0.71690  Biso   1.000  H
  C53      1.0000 0.58650  0.64220  0.64050  Biso   1.000  C
  H40      1.0000 0.53680  0.61460  0.65090  Biso   1.000  H
  C54      1.0000 0.72080  0.81750  0.70420  Biso   1.000  C
  C55      1.0000 0.69060  0.83560  0.76430  Biso   1.000  C
  H41      1.0000 0.64980  0.80110  0.78210  Biso   1.000  H
  C56      1.0000 0.72030  0.90350  0.79710  Biso   1.000  C
  H42      1.0000 0.70060  0.91350  0.83730  Biso   1.000  H
  C57      1.0000 0.77950  0.95770  0.77090  Biso   1.000  C
  H43      1.0000 0.79740  0.00510  0.79260  Biso   1.000  H
  C58      1.0000 0.81130  0.93980  0.71200  Biso   1.000  C
  C59      1.0000 0.78210  0.87040  0.67970  Biso   1.000  C
  H44      1.0000 0.80410  0.85890  0.64030  Biso   1.000  H
  C60      1.0000 0.87380  0.99470  0.68160  Biso   1.000  C
  C61      1.0000 0.92370  0.09180  0.61800  Biso   1.000  C
  C62      1.0000 0.93170  0.16080  0.57390  Biso   1.000  C
  C63      1.0000 0.00330  0.16330  0.53740  Biso   1.000  C
  H45      1.0000 0.04310  0.12060  0.54000  Biso   1.000  H
  C64      1.0000 0.01530  0.23050  0.49680  Biso   1.000  C
  H46      1.0000 0.06410  0.23320  0.47290  Biso   1.000  H
  C65      1.0000 0.95600  0.29270  0.49160  Biso   1.000  C
  H47      1.0000 0.96380  0.33600  0.46290  Biso   1.000  H
  C66      1.0000 0.88440  0.29150  0.52890  Biso   1.000  C
  C67      1.0000 0.87280  0.22520  0.56960  Biso   1.000  C
  H48      1.0000 0.82490  0.22350  0.59460  Biso   1.000  H
  C68      1.0000 0.81840  0.35860  0.52300  Biso   1.000  C
  C69      1.0000 0.75920  0.37290  0.56940  Biso   1.000  C
  H49      1.0000 0.76240  0.34360  0.60690  Biso   1.000  H
  C70      1.0000 0.69550  0.43070  0.56010  Biso   1.000  C
  H50      1.0000 0.65610  0.43810  0.59170  Biso   1.000  H
  C71      1.0000 0.74480  0.46430  0.46440  Biso   1.000  C
  H51      1.0000 0.74050  0.49540  0.42770  Biso   1.000  H
  C72      1.0000 0.81130  0.40780  0.46990  Biso   1.000  C
  H52      1.0000 0.85080  0.40310  0.43810  Biso   1.000  H
  N13      1.0000 0.62430  0.62060  0.58820  Biso   1.000  N
  N14      1.0000 0.95560  0.99260  0.68400  Biso   1.000  N
  N15      1.0000 0.98760  0.05330  0.64490  Biso   1.000  N
  N16      1.0000 0.85080  0.05590  0.64040  Biso   1.000  N
  N17      1.0000 0.76870  0.07570  0.61990  Biso   1.000  N
  H53      1.0000 0.74120  0.02830  0.61150  Biso   1.000  H
  H54      1.0000 0.74200  0.10360  0.65000  Biso   1.000  H
  N18      1.0000 0.68760  0.47630  0.50810  Biso   1.000  N
  C73      1.0000 0.29940  0.34470  0.07760  Biso   1.000  C
  H55      1.0000 0.26860  0.36290  0.04320  Biso   1.000  H
  C74      1.0000 0.26550  0.28420  0.11520  Biso   1.000  C
  H56      1.0000 0.21250  0.26300  0.10600  Biso   1.000  H
  C75      1.0000 0.30890  0.25370  0.16710  Biso   1.000  C
  C76      1.0000 0.38460  0.29750  0.18070  Biso   1.000  C
  H57      1.0000 0.41450  0.28510  0.21690  Biso   1.000  H
  C77      1.0000 0.41350  0.35780  0.14050  Biso   1.000  C
  H58      1.0000 0.46320  0.38540  0.15090  Biso   1.000  H
  C78      1.0000 0.27920  0.18250  0.20420  Biso   1.000  C
  C79      1.0000 0.30940  0.16440  0.26430  Biso   1.000  C
  H59      1.0000 0.35020  0.19890  0.28210  Biso   1.000  H
  C80      1.0000 0.27970  0.09650  0.29710  Biso   1.000  C
  H60      1.0000 0.29940  0.08650  0.33730  Biso   1.000  H
  C81      1.0000 0.22050  0.04230  0.27090  Biso   1.000  C
  H61      1.0000 0.20260  0.99490  0.29260  Biso   1.000  H
  C82      1.0000 0.18870  0.06020  0.21200  Biso   1.000  C
  C83      1.0000 0.21790  0.12960  0.17970  Biso   1.000  C
  H62      1.0000 0.19590  0.14110  0.14030  Biso   1.000  H
  C84      1.0000 0.12620  0.00530  0.18160  Biso   1.000  C
  C85      1.0000 0.07630  0.90820  0.11800  Biso   1.000  C
  C86      1.0000 0.06830  0.83920  0.07390  Biso   1.000  C
  C87      1.0000 0.99670  0.83670  0.03740  Biso   1.000  C
  H63      1.0000 0.95690  0.87940  0.04000  Biso   1.000  H
  C88      1.0000 0.98470  0.76950  0.99680  Biso   1.000  C
  H64      1.0000 0.93590  0.76680  0.97290  Biso   1.000  H
  C89      1.0000 0.04400  0.70730  0.99160  Biso   1.000  C
  H65      1.0000 0.03620  0.66400  0.96290  Biso   1.000  H
  C90      1.0000 0.11560  0.70850  0.02890  Biso   1.000  C
  C91      1.0000 0.12720  0.77480  0.06960  Biso   1.000  C
  H66      1.0000 0.17510  0.77650  0.09460  Biso   1.000  H
  C92      1.0000 0.18160  0.64140  0.02300  Biso   1.000  C
  C93      1.0000 0.24080  0.62710  0.06940  Biso   1.000  C
  H67      1.0000 0.23760  0.65640  0.10690  Biso   1.000  H
  C94      1.0000 0.30450  0.56930  0.06010  Biso   1.000  C
  H68      1.0000 0.34390  0.56190  0.09170  Biso   1.000  H
  C95      1.0000 0.25520  0.53570  0.96440  Biso   1.000  C
  H69      1.0000 0.25950  0.50460  0.92770  Biso   1.000  H
  C96      1.0000 0.18870  0.59220  0.96990  Biso   1.000  C
  H70      1.0000 0.14920  0.59690  0.93810  Biso   1.000  H
  N19      1.0000 0.37570  0.37940  0.08820  Biso   1.000  N
  N20      1.0000 0.04440  0.00740  0.18400  Biso   1.000  N
  N21      1.0000 0.01240  0.94670  0.14490  Biso   1.000  N
  N22      1.0000 0.14920  0.94410  0.14040  Biso   1.000  N
  N23      1.0000 0.23130  0.92430  0.11990  Biso   1.000  N
  H71      1.0000 0.25880  0.97170  0.11150  Biso   1.000  H
  H72      1.0000 0.25800  0.89640  0.15000  Biso   1.000  H
  N24      1.0000 0.31240  0.52370  0.00810  Biso   1.000  N
  C97      1.0000 0.34470  0.29940  0.92240  Biso   1.000  C
  H73      1.0000 0.36290  0.26860  0.95680  Biso   1.000  H
  C98      1.0000 0.28420  0.26550  0.88480  Biso   1.000  C
  H74      1.0000 0.26300  0.21250  0.89400  Biso   1.000  H
  C99      1.0000 0.25370  0.30890  0.83290  Biso   1.000  C
  C100     1.0000 0.29750  0.38460  0.81930  Biso   1.000  C
  H75      1.0000 0.28510  0.41450  0.78310  Biso   1.000  H
  C101     1.0000 0.35780  0.41350  0.85950  Biso   1.000  C
  H76      1.0000 0.38540  0.46320  0.84910  Biso   1.000  H
  C102     1.0000 0.18250  0.27920  0.79580  Biso   1.000  C
  C103     1.0000 0.16440  0.30940  0.73570  Biso   1.000  C
  H77      1.0000 0.19890  0.35020  0.71790  Biso   1.000  H
  C104     1.0000 0.09650  0.27970  0.70290  Biso   1.000  C
  H78      1.0000 0.08650  0.29940  0.66270  Biso   1.000  H
  C105     1.0000 0.04230  0.22050  0.72910  Biso   1.000  C
  H79      1.0000 0.99490  0.20260  0.70740  Biso   1.000  H
  C106     1.0000 0.06020  0.18870  0.78800  Biso   1.000  C
  C107     1.0000 0.12960  0.21790  0.82030  Biso   1.000  C
  H80      1.0000 0.14110  0.19590  0.85970  Biso   1.000  H
  C108     1.0000 0.00530  0.12620  0.81840  Biso   1.000  C
  C109     1.0000 0.90820  0.07630  0.88200  Biso   1.000  C
  C110     1.0000 0.83920  0.06830  0.92610  Biso   1.000  C
  C111     1.0000 0.83670  0.99670  0.96260  Biso   1.000  C
  H81      1.0000 0.87940  0.95690  0.96000  Biso   1.000  H
  C112     1.0000 0.76950  0.98470  0.00320  Biso   1.000  C
  H82      1.0000 0.76680  0.93590  0.02710  Biso   1.000  H
  C113     1.0000 0.70730  0.04400  0.00840  Biso   1.000  C
  H83      1.0000 0.66400  0.03620  0.03710  Biso   1.000  H
  C114     1.0000 0.70850  0.11560  0.97110  Biso   1.000  C
  C115     1.0000 0.77480  0.12720  0.93040  Biso   1.000  C
  H84      1.0000 0.77650  0.17510  0.90540  Biso   1.000  H
  C116     1.0000 0.64140  0.18160  0.97700  Biso   1.000  C
  C117     1.0000 0.62710  0.24080  0.93060  Biso   1.000  C
  H85      1.0000 0.65640  0.23760  0.89310  Biso   1.000  H
  C118     1.0000 0.56930  0.30450  0.93990  Biso   1.000  C
  H86      1.0000 0.56190  0.34390  0.90830  Biso   1.000  H
  C119     1.0000 0.53570  0.25520  0.03560  Biso   1.000  C
  H87      1.0000 0.50460  0.25950  0.07230  Biso   1.000  H
  C120     1.0000 0.59220  0.18870  0.03010  Biso   1.000  C
  H88      1.0000 0.59690  0.14920  0.06190  Biso   1.000  H
  N25      1.0000 0.37940  0.37570  0.91180  Biso   1.000  N
  N26      1.0000 0.00740  0.04440  0.81600  Biso   1.000  N
  N27      1.0000 0.94670  0.01240  0.85510  Biso   1.000  N
  N28      1.0000 0.94410  0.14920  0.85960  Biso   1.000  N
  N29      1.0000 0.92430  0.23130  0.88010  Biso   1.000  N
  H89      1.0000 0.97170  0.25880  0.88850  Biso   1.000  H
  H90      1.0000 0.89640  0.25800  0.85000  Biso   1.000  H
  N30      1.0000 0.52370  0.31240  0.99190  Biso   1.000  N
  C121     1.0000 0.65530  0.70060  0.42240  Biso   1.000  C
  H91      1.0000 0.63710  0.73140  0.45680  Biso   1.000  H
  C122     1.0000 0.71580  0.73450  0.38480  Biso   1.000  C
  H92      1.0000 0.73700  0.78750  0.39400  Biso   1.000  H
  C123     1.0000 0.74630  0.69110  0.33290  Biso   1.000  C
  C124     1.0000 0.70250  0.61540  0.31930  Biso   1.000  C
  H93      1.0000 0.71490  0.58550  0.28310  Biso   1.000  H
  C125     1.0000 0.64220  0.58650  0.35950  Biso   1.000  C
  H94      1.0000 0.61460  0.53680  0.34910  Biso   1.000  H
  C126     1.0000 0.81750  0.72080  0.29580  Biso   1.000  C
  C127     1.0000 0.83560  0.69060  0.23570  Biso   1.000  C
  H95      1.0000 0.80110  0.64980  0.21790  Biso   1.000  H
  C128     1.0000 0.90350  0.72030  0.20290  Biso   1.000  C
  H96      1.0000 0.91350  0.70060  0.16270  Biso   1.000  H
  C129     1.0000 0.95770  0.77950  0.22910  Biso   1.000  C
  H97      1.0000 0.00510  0.79740  0.20740  Biso   1.000  H
  C130     1.0000 0.93980  0.81130  0.28800  Biso   1.000  C
  C131     1.0000 0.87040  0.78210  0.32030  Biso   1.000  C
  H98      1.0000 0.85890  0.80410  0.35970  Biso   1.000  H
  C132     1.0000 0.99470  0.87380  0.31840  Biso   1.000  C
  C133     1.0000 0.09180  0.92370  0.38200  Biso   1.000  C
  C134     1.0000 0.16080  0.93170  0.42610  Biso   1.000  C
  C135     1.0000 0.16330  0.00330  0.46260  Biso   1.000  C
  H99      1.0000 0.12060  0.04310  0.46000  Biso   1.000  H
  C136     1.0000 0.23050  0.01530  0.50320  Biso   1.000  C
  H100     1.0000 0.23320  0.06410  0.52710  Biso   1.000  H
  C137     1.0000 0.29270  0.95600  0.50840  Biso   1.000  C
  H101     1.0000 0.33600  0.96380  0.53710  Biso   1.000  H
  C138     1.0000 0.29150  0.88440  0.47110  Biso   1.000  C
  C139     1.0000 0.22520  0.87280  0.43040  Biso   1.000  C
  H102     1.0000 0.22350  0.82490  0.40540  Biso   1.000  H
  C140     1.0000 0.35860  0.81840  0.47700  Biso   1.000  C
  C141     1.0000 0.37290  0.75920  0.43060  Biso   1.000  C
  H103     1.0000 0.34360  0.76240  0.39310  Biso   1.000  H
  C142     1.0000 0.43070  0.69550  0.43990  Biso   1.000  C
  H104     1.0000 0.43810  0.65610  0.40830  Biso   1.000  H
  C143     1.0000 0.46430  0.74480  0.53560  Biso   1.000  C
  H105     1.0000 0.49540  0.74050  0.57230  Biso   1.000  H
  C144     1.0000 0.40780  0.81130  0.53010  Biso   1.000  C
  H106     1.0000 0.40310  0.85080  0.56190  Biso   1.000  H
  N31      1.0000 0.62060  0.62430  0.41180  Biso   1.000  N
  N32      1.0000 0.99260  0.95560  0.31600  Biso   1.000  N
  N33      1.0000 0.05330  0.98760  0.35510  Biso   1.000  N
  N34      1.0000 0.05590  0.85080  0.35960  Biso   1.000  N
  N35      1.0000 0.07570  0.76870  0.38010  Biso   1.000  N
  H107     1.0000 0.02830  0.74120  0.38850  Biso   1.000  H
  H108     1.0000 0.10360  0.74200  0.35000  Biso   1.000  H
  N36      1.0000 0.47630  0.68760  0.49190  Biso   1.000  N
  C145     1.0000 0.79940  0.15530  0.17240  Biso   1.000  C
  H109     1.0000 0.76860  0.13710  0.20680  Biso   1.000  H
  C146     1.0000 0.76550  0.21580  0.13480  Biso   1.000  C
  H110     1.0000 0.71250  0.23700  0.14400  Biso   1.000  H
  C147     1.0000 0.80890  0.24630  0.08290  Biso   1.000  C
  C148     1.0000 0.88460  0.20250  0.06930  Biso   1.000  C
  H111     1.0000 0.91450  0.21490  0.03310  Biso   1.000  H
  C149     1.0000 0.91350  0.14220  0.10950  Biso   1.000  C
  H112     1.0000 0.96320  0.11460  0.09910  Biso   1.000  H
  C150     1.0000 0.77920  0.31750  0.04580  Biso   1.000  C
  C151     1.0000 0.80940  0.33560  0.98570  Biso   1.000  C
  H113     1.0000 0.85020  0.30110  0.96790  Biso   1.000  H
  C152     1.0000 0.77970  0.40350  0.95290  Biso   1.000  C
  H114     1.0000 0.79940  0.41350  0.91270  Biso   1.000  H
  C153     1.0000 0.72050  0.45770  0.97910  Biso   1.000  C
  H115     1.0000 0.70260  0.50510  0.95740  Biso   1.000  H
  C154     1.0000 0.68870  0.43980  0.03800  Biso   1.000  C
  C155     1.0000 0.71790  0.37040  0.07030  Biso   1.000  C
  H116     1.0000 0.69590  0.35890  0.10970  Biso   1.000  H
  C156     1.0000 0.62620  0.49470  0.06840  Biso   1.000  C
  C157     1.0000 0.57630  0.59180  0.13200  Biso   1.000  C
  C158     1.0000 0.56830  0.66080  0.17610  Biso   1.000  C
  C159     1.0000 0.49670  0.66330  0.21260  Biso   1.000  C
  H117     1.0000 0.45690  0.62060  0.21000  Biso   1.000  H
  C160     1.0000 0.48470  0.73050  0.25320  Biso   1.000  C
  H118     1.0000 0.43590  0.73320  0.27710  Biso   1.000  H
  C161     1.0000 0.54400  0.79270  0.25840  Biso   1.000  C
  H119     1.0000 0.53620  0.83600  0.28710  Biso   1.000  H
  C162     1.0000 0.61560  0.79150  0.22110  Biso   1.000  C
  C163     1.0000 0.62720  0.72520  0.18040  Biso   1.000  C
  H120     1.0000 0.67510  0.72350  0.15540  Biso   1.000  H
  C164     1.0000 0.68160  0.85860  0.22700  Biso   1.000  C
  C165     1.0000 0.74080  0.87290  0.18060  Biso   1.000  C
  H121     1.0000 0.73760  0.84360  0.14310  Biso   1.000  H
  C166     1.0000 0.80450  0.93070  0.18990  Biso   1.000  C
  H122     1.0000 0.84390  0.93810  0.15830  Biso   1.000  H
  C167     1.0000 0.75520  0.96430  0.28560  Biso   1.000  C
  H123     1.0000 0.75950  0.99540  0.32230  Biso   1.000  H
  C168     1.0000 0.68870  0.90780  0.28010  Biso   1.000  C
  H124     1.0000 0.64920  0.90310  0.31190  Biso   1.000  H
  N37      1.0000 0.87570  0.12060  0.16180  Biso   1.000  N
  N38      1.0000 0.54440  0.49260  0.06600  Biso   1.000  N
  N39      1.0000 0.51240  0.55330  0.10510  Biso   1.000  N
  N40      1.0000 0.64920  0.55590  0.10960  Biso   1.000  N
  N41      1.0000 0.73130  0.57570  0.13010  Biso   1.000  N
  H125     1.0000 0.75880  0.52830  0.13850  Biso   1.000  H
  H126     1.0000 0.75800  0.60360  0.10000  Biso   1.000  H
  N42      1.0000 0.81240  0.97630  0.24190  Biso   1.000  N
  C169     1.0000 0.20060  0.84470  0.67240  Biso   1.000  C
  H127     1.0000 0.23140  0.86290  0.70680  Biso   1.000  H
  C170     1.0000 0.23450  0.78420  0.63480  Biso   1.000  C
  H128     1.0000 0.28750  0.76300  0.64400  Biso   1.000  H
  C171     1.0000 0.19110  0.75370  0.58290  Biso   1.000  C
  C172     1.0000 0.11540  0.79750  0.56930  Biso   1.000  C
  H129     1.0000 0.08550  0.78510  0.53310  Biso   1.000  H
  C173     1.0000 0.08650  0.85780  0.60950  Biso   1.000  C
  H130     1.0000 0.03680  0.88540  0.59910  Biso   1.000  H
  C174     1.0000 0.22080  0.68250  0.54580  Biso   1.000  C
  C175     1.0000 0.19060  0.66440  0.48570  Biso   1.000  C
  H131     1.0000 0.14980  0.69890  0.46790  Biso   1.000  H
  C176     1.0000 0.22030  0.59650  0.45290  Biso   1.000  C
  H132     1.0000 0.20060  0.58650  0.41270  Biso   1.000  H
  C177     1.0000 0.27950  0.54230  0.47910  Biso   1.000  C
  H133     1.0000 0.29740  0.49490  0.45740  Biso   1.000  H
  C178     1.0000 0.31130  0.56020  0.53800  Biso   1.000  C
  C179     1.0000 0.28210  0.62960  0.57030  Biso   1.000  C
  H134     1.0000 0.30410  0.64110  0.60970  Biso   1.000  H
  C180     1.0000 0.37380  0.50530  0.56840  Biso   1.000  C
  C181     1.0000 0.42370  0.40820  0.63200  Biso   1.000  C
  C182     1.0000 0.43170  0.33920  0.67610  Biso   1.000  C
  C183     1.0000 0.50330  0.33670  0.71260  Biso   1.000  C
  H135     1.0000 0.54310  0.37940  0.71000  Biso   1.000  H
  C184     1.0000 0.51530  0.26950  0.75320  Biso   1.000  C
  H136     1.0000 0.56410  0.26680  0.77710  Biso   1.000  H
  C185     1.0000 0.45600  0.20730  0.75840  Biso   1.000  C
  H137     1.0000 0.46380  0.16400  0.78710  Biso   1.000  H
  C186     1.0000 0.38440  0.20850  0.72110  Biso   1.000  C
  C187     1.0000 0.37280  0.27480  0.68040  Biso   1.000  C
  H138     1.0000 0.32490  0.27650  0.65540  Biso   1.000  H
  C188     1.0000 0.31840  0.14140  0.72700  Biso   1.000  C
  C189     1.0000 0.25920  0.12710  0.68060  Biso   1.000  C
  H139     1.0000 0.26240  0.15640  0.64310  Biso   1.000  H
  C190     1.0000 0.19550  0.06930  0.68990  Biso   1.000  C
  H140     1.0000 0.15610  0.06190  0.65830  Biso   1.000  H
  C191     1.0000 0.24480  0.03570  0.78560  Biso   1.000  C
  H141     1.0000 0.24050  0.00460  0.82230  Biso   1.000  H
  C192     1.0000 0.31130  0.09220  0.78010  Biso   1.000  C
  H142     1.0000 0.35080  0.09690  0.81190  Biso   1.000  H
  N43      1.0000 0.12430  0.87940  0.66180  Biso   1.000  N
  N44      1.0000 0.45560  0.50740  0.56600  Biso   1.000  N
  N45      1.0000 0.48760  0.44670  0.60510  Biso   1.000  N
  N46      1.0000 0.35080  0.44410  0.60960  Biso   1.000  N
  N47      1.0000 0.26870  0.42430  0.63010  Biso   1.000  N
  H143     1.0000 0.24120  0.47170  0.63850  Biso   1.000  H
  H144     1.0000 0.24200  0.39640  0.60000  Biso   1.000  H
  N48      1.0000 0.18760  0.02370  0.74190  Biso   1.000  N
  Cd1      1.0000 0.05948  0.94052  0.75000  Biso   1.000  Cd
  Cd2      1.0000 0.94052  0.05948  0.25000  Biso   1.000  Cd
  Cd3      1.0000 0.55948  0.55948  0.50000  Biso   1.000  Cd
  Cd4      1.0000 0.44052  0.44052  0.00000  Biso   1.000  Cd
