data_image0
_cell_length_a       15.8475
_cell_length_b       15.8475
_cell_length_c       21.601
_cell_angle_alpha    90
_cell_angle_beta     90
_cell_angle_gamma    90

_symmetry_space_group_name_H-M    "P 1"
_symmetry_int_tables_number       1

loop_
  _symmetry_equiv_pos_as_xyz
  'x, y, z'

loop_
  _atom_site_label
  _atom_site_occupancy
  _atom_site_fract_x
  _atom_site_fract_y
  _atom_site_fract_z
  _atom_site_thermal_displace_type
  _atom_site_B_iso_or_equiv
  _atom_site_type_symbol
  C1       1.0000 0.53730  0.25550  0.03600  Biso   1.000  C
  H1       1.0000 0.50600  0.26030  0.07330  Biso   1.000  H
  C2       1.0000 0.56700  0.30160  0.93940  Biso   1.000  C
  H2       1.0000 0.55740  0.34020  0.90650  Biso   1.000  H
  C3       1.0000 0.28340  0.26440  0.88570  Biso   1.000  C
  H3       1.0000 0.26100  0.21030  0.89500  Biso   1.000  H
  C4       1.0000 0.29830  0.38240  0.82050  Biso   1.000  C
  H4       1.0000 0.28590  0.41270  0.78360  Biso   1.000  H
  C5       1.0000 0.25510  0.30760  0.83360  Biso   1.000  C
  C6       1.0000 0.18330  0.27670  0.79660  Biso   1.000  C
  C7       1.0000 0.16800  0.30440  0.73680  Biso   1.000  C
  H5       1.0000 0.20530  0.34390  0.71820  Biso   1.000  H
  C8       1.0000 0.09890  0.27530  0.70390  Biso   1.000  C
  H6       1.0000 0.08910  0.29500  0.66300  Biso   1.000  H
  C9       1.0000 0.04340  0.21710  0.73040  Biso   1.000  C
  H7       1.0000 0.99530  0.19820  0.70820  Biso   1.000  H
  C10      1.0000 0.05930  0.18740  0.78940  Biso   1.000  C
  C11      1.0000 0.12840  0.21730  0.82200  Biso   1.000  C
  H8       1.0000 0.13860  0.19680  0.86270  Biso   1.000  H
  C12      1.0000 0.00450  0.12560  0.81986  Biso   1.000  C
  C13      1.0000 0.90810  0.07430  0.88200  Biso   1.000  C
  C14      1.0000 0.83850  0.06580  0.92540  Biso   1.000  C
  C15      1.0000 0.83420  0.99320  0.96210  Biso   1.000  C
  H9       1.0000 0.87700  0.95150  0.95890  Biso   1.000  H
  C16      1.0000 0.76990  0.98200  0.00190  Biso   1.000  C
  H10      1.0000 0.76820  0.93250  0.02660  Biso   1.000  H
  C17      1.0000 0.70640  0.04110  0.00750  Biso   1.000  C
  H11      1.0000 0.66210  0.03240  0.03640  Biso   1.000  H
  C18      1.0000 0.70690  0.11390  0.97060  Biso   1.000  C
  C19      1.0000 0.77360  0.12460  0.92950  Biso   1.000  C
  H12      1.0000 0.77480  0.17310  0.90370  Biso   1.000  H
  C20      1.0000 0.64080  0.17950  0.97700  Biso   1.000  C
  C21      1.0000 0.62440  0.23710  0.92990  Biso   1.000  C
  H13      1.0000 0.65260  0.23220  0.89120  Biso   1.000  H
  C22      1.0000 0.59420  0.18910  0.03020  Biso   1.000  C
  H14      1.0000 0.60080  0.15010  0.06330  Biso   1.000  H
  C23      1.0000 0.35840  0.41220  0.86020  Biso   1.000  C
  H15      1.0000 0.38680  0.46280  0.84950  Biso   1.000  H
  C24      1.0000 0.34320  0.29920  0.92390  Biso   1.000  C
  H16      1.0000 0.36000  0.26870  0.95970  Biso   1.000  H
  N1       1.0000 0.00660  0.04350  0.81671  Biso   1.000  N
  N2       1.0000 0.94600  0.01090  0.85546  Biso   1.000  N
  N3       1.0000 0.94360  0.14790  0.86076  Biso   1.000  N
  N4       1.0000 0.92410  0.22920  0.88110  Biso   1.000  N
  H17      1.0000 0.97300  0.25700  0.88970  Biso   1.000  H
  H18      1.0000 0.89570  0.25710  0.85080  Biso   1.000  H
  N5       1.0000 0.37920  0.37470  0.91282  Biso   1.000  N
  N6       1.0000 0.52440  0.31300  0.99166  Biso   1.000  N
  C25      1.0000 0.46270  0.74450  0.53600  Biso   1.000  C
  H19      1.0000 0.49400  0.73970  0.57330  Biso   1.000  H
  C26      1.0000 0.43300  0.69840  0.43940  Biso   1.000  C
  H20      1.0000 0.44260  0.65980  0.40650  Biso   1.000  H
  C27      1.0000 0.71660  0.73560  0.38570  Biso   1.000  C
  H21      1.0000 0.73900  0.78970  0.39500  Biso   1.000  H
  C28      1.0000 0.70170  0.61760  0.32050  Biso   1.000  C
  H22      1.0000 0.71410  0.58730  0.28360  Biso   1.000  H
  C29      1.0000 0.74490  0.69240  0.33360  Biso   1.000  C
  C30      1.0000 0.81670  0.72330  0.29660  Biso   1.000  C
  C31      1.0000 0.83200  0.69560  0.23680  Biso   1.000  C
  H23      1.0000 0.79470  0.65610  0.21820  Biso   1.000  H
  C32      1.0000 0.90110  0.72470  0.20390  Biso   1.000  C
  H24      1.0000 0.91090  0.70500  0.16300  Biso   1.000  H
  C33      1.0000 0.95660  0.78290  0.23040  Biso   1.000  C
  H25      1.0000 0.00470  0.80180  0.20820  Biso   1.000  H
  C34      1.0000 0.94070  0.81260  0.28940  Biso   1.000  C
  C35      1.0000 0.87160  0.78270  0.32200  Biso   1.000  C
  H26      1.0000 0.86140  0.80320  0.36270  Biso   1.000  H
  C36      1.0000 0.99550  0.87440  0.31986  Biso   1.000  C
  C37      1.0000 0.09190  0.92570  0.38200  Biso   1.000  C
  C38      1.0000 0.16150  0.93420  0.42540  Biso   1.000  C
  C39      1.0000 0.16580  0.00680  0.46210  Biso   1.000  C
  H27      1.0000 0.12300  0.04850  0.45890  Biso   1.000  H
  C40      1.0000 0.23010  0.01800  0.50190  Biso   1.000  C
  H28      1.0000 0.23180  0.06750  0.52660  Biso   1.000  H
  C41      1.0000 0.29360  0.95890  0.50750  Biso   1.000  C
  H29      1.0000 0.33790  0.96760  0.53640  Biso   1.000  H
  C42      1.0000 0.29310  0.88610  0.47060  Biso   1.000  C
  C43      1.0000 0.22640  0.87540  0.42950  Biso   1.000  C
  H30      1.0000 0.22520  0.82690  0.40370  Biso   1.000  H
  C44      1.0000 0.35920  0.82050  0.47700  Biso   1.000  C
  C45      1.0000 0.37560  0.76290  0.42990  Biso   1.000  C
  H31      1.0000 0.34740  0.76780  0.39120  Biso   1.000  H
  C46      1.0000 0.40580  0.81090  0.53020  Biso   1.000  C
  H32      1.0000 0.39920  0.84990  0.56330  Biso   1.000  H
  C47      1.0000 0.64160  0.58780  0.36020  Biso   1.000  C
  H33      1.0000 0.61320  0.53720  0.34950  Biso   1.000  H
  C48      1.0000 0.65680  0.70080  0.42390  Biso   1.000  C
  H34      1.0000 0.64000  0.73130  0.45970  Biso   1.000  H
  N7       1.0000 0.99340  0.95650  0.31671  Biso   1.000  N
  N8       1.0000 0.05400  0.98910  0.35546  Biso   1.000  N
  N9       1.0000 0.05640  0.85210  0.36076  Biso   1.000  N
  N10      1.0000 0.07590  0.77080  0.38110  Biso   1.000  N
  H35      1.0000 0.02700  0.74300  0.38970  Biso   1.000  H
  H36      1.0000 0.10430  0.74290  0.35080  Biso   1.000  H
  N11      1.0000 0.62080  0.62530  0.41282  Biso   1.000  N
  N12      1.0000 0.47560  0.68700  0.49166  Biso   1.000  N
  C49      1.0000 0.24450  0.03730  0.78600  Biso   1.000  C
  H37      1.0000 0.23970  0.00600  0.82330  Biso   1.000  H
  C50      1.0000 0.19840  0.06700  0.68940  Biso   1.000  C
  H38      1.0000 0.15980  0.05740  0.65650  Biso   1.000  H
  C51      1.0000 0.23560  0.78340  0.63570  Biso   1.000  C
  H39      1.0000 0.28970  0.76100  0.64500  Biso   1.000  H
  C52      1.0000 0.11760  0.79830  0.57050  Biso   1.000  C
  H40      1.0000 0.08730  0.78590  0.53360  Biso   1.000  H
  C53      1.0000 0.19240  0.75510  0.58360  Biso   1.000  C
  C54      1.0000 0.22330  0.68330  0.54660  Biso   1.000  C
  C55      1.0000 0.19560  0.66800  0.48680  Biso   1.000  C
  H41      1.0000 0.15610  0.70530  0.46820  Biso   1.000  H
  C56      1.0000 0.22470  0.59890  0.45390  Biso   1.000  C
  H42      1.0000 0.20500  0.58910  0.41300  Biso   1.000  H
  C57      1.0000 0.28290  0.54340  0.48040  Biso   1.000  C
  H43      1.0000 0.30180  0.49530  0.45820  Biso   1.000  H
  C58      1.0000 0.31260  0.55930  0.53940  Biso   1.000  C
  C59      1.0000 0.28270  0.62840  0.57200  Biso   1.000  C
  H44      1.0000 0.30320  0.63860  0.61270  Biso   1.000  H
  C60      1.0000 0.37440  0.50450  0.56986  Biso   1.000  C
  C61      1.0000 0.42570  0.40810  0.63200  Biso   1.000  C
  C62      1.0000 0.43420  0.33850  0.67540  Biso   1.000  C
  C63      1.0000 0.50680  0.33420  0.71210  Biso   1.000  C
  H45      1.0000 0.54850  0.37700  0.70890  Biso   1.000  H
  C64      1.0000 0.51800  0.26990  0.75190  Biso   1.000  C
  H46      1.0000 0.56750  0.26820  0.77660  Biso   1.000  H
  C65      1.0000 0.45890  0.20640  0.75750  Biso   1.000  C
  H47      1.0000 0.46760  0.16210  0.78640  Biso   1.000  H
  C66      1.0000 0.38610  0.20690  0.72060  Biso   1.000  C
  C67      1.0000 0.37540  0.27360  0.67950  Biso   1.000  C
  H48      1.0000 0.32690  0.27480  0.65370  Biso   1.000  H
  C68      1.0000 0.32050  0.14080  0.72700  Biso   1.000  C
  C69      1.0000 0.26290  0.12440  0.67990  Biso   1.000  C
  H49      1.0000 0.26780  0.15260  0.64120  Biso   1.000  H
  C70      1.0000 0.31090  0.09420  0.78020  Biso   1.000  C
  H50      1.0000 0.34990  0.10080  0.81330  Biso   1.000  H
  C71      1.0000 0.08780  0.85840  0.61020  Biso   1.000  C
  H51      1.0000 0.03720  0.88680  0.59950  Biso   1.000  H
  C72      1.0000 0.20080  0.84320  0.67390  Biso   1.000  C
  H52      1.0000 0.23130  0.86000  0.70970  Biso   1.000  H
  N13      1.0000 0.45650  0.50660  0.56671  Biso   1.000  N
  N14      1.0000 0.48910  0.44600  0.60546  Biso   1.000  N
  N15      1.0000 0.35210  0.44360  0.61076  Biso   1.000  N
  N16      1.0000 0.27080  0.42410  0.63110  Biso   1.000  N
  H53      1.0000 0.24300  0.47300  0.63970  Biso   1.000  H
  H54      1.0000 0.24290  0.39570  0.60080  Biso   1.000  H
  N17      1.0000 0.12530  0.87920  0.66282  Biso   1.000  N
  N18      1.0000 0.18700  0.02440  0.74166  Biso   1.000  N
  C73      1.0000 0.75550  0.96270  0.28600  Biso   1.000  C
  H55      1.0000 0.76030  0.99400  0.32330  Biso   1.000  H
  C74      1.0000 0.80160  0.93300  0.18940  Biso   1.000  C
  H56      1.0000 0.84020  0.94260  0.15650  Biso   1.000  H
  C75      1.0000 0.76440  0.21660  0.13570  Biso   1.000  C
  H57      1.0000 0.71030  0.23900  0.14500  Biso   1.000  H
  C76      1.0000 0.88240  0.20170  0.07050  Biso   1.000  C
  H58      1.0000 0.91270  0.21410  0.03360  Biso   1.000  H
  C77      1.0000 0.80760  0.24490  0.08360  Biso   1.000  C
  C78      1.0000 0.77670  0.31670  0.04660  Biso   1.000  C
  C79      1.0000 0.80440  0.33200  0.98680  Biso   1.000  C
  H59      1.0000 0.84390  0.29470  0.96820  Biso   1.000  H
  C80      1.0000 0.77530  0.40110  0.95390  Biso   1.000  C
  H60      1.0000 0.79500  0.41090  0.91300  Biso   1.000  H
  C81      1.0000 0.71710  0.45660  0.98040  Biso   1.000  C
  H61      1.0000 0.69820  0.50470  0.95820  Biso   1.000  H
  C82      1.0000 0.68740  0.44070  0.03940  Biso   1.000  C
  C83      1.0000 0.71730  0.37160  0.07200  Biso   1.000  C
  H62      1.0000 0.69680  0.36140  0.11270  Biso   1.000  H
  C84      1.0000 0.62560  0.49550  0.06986  Biso   1.000  C
  C85      1.0000 0.57430  0.59190  0.13200  Biso   1.000  C
  C86      1.0000 0.56580  0.66150  0.17540  Biso   1.000  C
  C87      1.0000 0.49320  0.66580  0.21210  Biso   1.000  C
  H63      1.0000 0.45150  0.62300  0.20890  Biso   1.000  H
  C88      1.0000 0.48200  0.73010  0.25190  Biso   1.000  C
  H64      1.0000 0.43250  0.73180  0.27660  Biso   1.000  H
  C89      1.0000 0.54110  0.79360  0.25750  Biso   1.000  C
  H65      1.0000 0.53240  0.83790  0.28640  Biso   1.000  H
  C90      1.0000 0.61390  0.79310  0.22060  Biso   1.000  C
  C91      1.0000 0.62460  0.72640  0.17950  Biso   1.000  C
  H66      1.0000 0.67310  0.72520  0.15370  Biso   1.000  H
  C92      1.0000 0.67950  0.85920  0.22700  Biso   1.000  C
  C93      1.0000 0.73710  0.87560  0.17990  Biso   1.000  C
  H67      1.0000 0.73220  0.84740  0.14120  Biso   1.000  H
  C94      1.0000 0.68910  0.90580  0.28020  Biso   1.000  C
  H68      1.0000 0.65010  0.89920  0.31330  Biso   1.000  H
  C95      1.0000 0.91220  0.14160  0.11020  Biso   1.000  C
  H69      1.0000 0.96280  0.11320  0.09950  Biso   1.000  H
  C96      1.0000 0.79920  0.15680  0.17390  Biso   1.000  C
  H70      1.0000 0.76870  0.14000  0.20970  Biso   1.000  H
  N19      1.0000 0.54350  0.49340  0.06671  Biso   1.000  N
  N20      1.0000 0.51090  0.55400  0.10546  Biso   1.000  N
  N21      1.0000 0.64790  0.55640  0.11076  Biso   1.000  N
  N22      1.0000 0.72920  0.57590  0.13110  Biso   1.000  N
  H71      1.0000 0.75700  0.52700  0.13970  Biso   1.000  H
  H72      1.0000 0.75710  0.60430  0.10080  Biso   1.000  H
  N23      1.0000 0.87470  0.12080  0.16282  Biso   1.000  N
  N24      1.0000 0.81300  0.97560  0.24166  Biso   1.000  N
  C97      1.0000 0.96270  0.75550  0.71400  Biso   1.000  C
  H73      1.0000 0.99400  0.76030  0.67670  Biso   1.000  H
  C98      1.0000 0.93300  0.80160  0.81060  Biso   1.000  C
  H74      1.0000 0.94260  0.84020  0.84350  Biso   1.000  H
  C99      1.0000 0.21660  0.76440  0.86430  Biso   1.000  C
  H75      1.0000 0.23900  0.71030  0.85500  Biso   1.000  H
  C100     1.0000 0.20170  0.88240  0.92950  Biso   1.000  C
  H76      1.0000 0.21410  0.91270  0.96640  Biso   1.000  H
  C101     1.0000 0.24490  0.80760  0.91640  Biso   1.000  C
  C102     1.0000 0.31670  0.77670  0.95340  Biso   1.000  C
  C103     1.0000 0.33200  0.80440  0.01320  Biso   1.000  C
  H77      1.0000 0.29470  0.84390  0.03180  Biso   1.000  H
  C104     1.0000 0.40110  0.77530  0.04610  Biso   1.000  C
  H78      1.0000 0.41090  0.79500  0.08700  Biso   1.000  H
  C105     1.0000 0.45660  0.71710  0.01960  Biso   1.000  C
  H79      1.0000 0.50470  0.69820  0.04180  Biso   1.000  H
  C106     1.0000 0.44070  0.68740  0.96060  Biso   1.000  C
  C107     1.0000 0.37160  0.71730  0.92800  Biso   1.000  C
  H80      1.0000 0.36140  0.69680  0.88730  Biso   1.000  H
  C108     1.0000 0.49550  0.62560  0.93014  Biso   1.000  C
  C109     1.0000 0.59190  0.57430  0.86800  Biso   1.000  C
  C110     1.0000 0.66150  0.56580  0.82460  Biso   1.000  C
  C111     1.0000 0.66580  0.49320  0.78790  Biso   1.000  C
  H81      1.0000 0.62300  0.45150  0.79110  Biso   1.000  H
  C112     1.0000 0.73010  0.48200  0.74810  Biso   1.000  C
  H82      1.0000 0.73180  0.43250  0.72340  Biso   1.000  H
  C113     1.0000 0.79360  0.54110  0.74250  Biso   1.000  C
  H83      1.0000 0.83790  0.53240  0.71360  Biso   1.000  H
  C114     1.0000 0.79310  0.61390  0.77940  Biso   1.000  C
  C115     1.0000 0.72640  0.62460  0.82050  Biso   1.000  C
  H84      1.0000 0.72520  0.67310  0.84630  Biso   1.000  H
  C116     1.0000 0.85920  0.67950  0.77300  Biso   1.000  C
  C117     1.0000 0.87560  0.73710  0.82010  Biso   1.000  C
  H85      1.0000 0.84740  0.73220  0.85880  Biso   1.000  H
  C118     1.0000 0.90580  0.68910  0.71980  Biso   1.000  C
  H86      1.0000 0.89920  0.65010  0.68670  Biso   1.000  H
  C119     1.0000 0.14160  0.91220  0.88980  Biso   1.000  C
  H87      1.0000 0.11320  0.96280  0.90050  Biso   1.000  H
  C120     1.0000 0.15680  0.79920  0.82610  Biso   1.000  C
  H88      1.0000 0.14000  0.76870  0.79030  Biso   1.000  H
  N25      1.0000 0.49340  0.54350  0.93329  Biso   1.000  N
  N26      1.0000 0.55400  0.51090  0.89454  Biso   1.000  N
  N27      1.0000 0.55640  0.64790  0.88924  Biso   1.000  N
  N28      1.0000 0.57590  0.72920  0.86890  Biso   1.000  N
  H89      1.0000 0.52700  0.75700  0.86030  Biso   1.000  H
  H90      1.0000 0.60430  0.75710  0.89920  Biso   1.000  H
  N29      1.0000 0.12080  0.87470  0.83718  Biso   1.000  N
  N30      1.0000 0.97560  0.81300  0.75834  Biso   1.000  N
  C121     1.0000 0.03730  0.24450  0.21400  Biso   1.000  C
  H91      1.0000 0.00600  0.23970  0.17670  Biso   1.000  H
  C122     1.0000 0.06700  0.19840  0.31060  Biso   1.000  C
  H92      1.0000 0.05740  0.15980  0.34350  Biso   1.000  H
  C123     1.0000 0.78340  0.23560  0.36430  Biso   1.000  C
  H93      1.0000 0.76100  0.28970  0.35500  Biso   1.000  H
  C124     1.0000 0.79830  0.11760  0.42950  Biso   1.000  C
  H94      1.0000 0.78590  0.08730  0.46640  Biso   1.000  H
  C125     1.0000 0.75510  0.19240  0.41640  Biso   1.000  C
  C126     1.0000 0.68330  0.22330  0.45340  Biso   1.000  C
  C127     1.0000 0.66800  0.19560  0.51320  Biso   1.000  C
  H95      1.0000 0.70530  0.15610  0.53180  Biso   1.000  H
  C128     1.0000 0.59890  0.22470  0.54610  Biso   1.000  C
  H96      1.0000 0.58910  0.20500  0.58700  Biso   1.000  H
  C129     1.0000 0.54340  0.28290  0.51960  Biso   1.000  C
  H97      1.0000 0.49530  0.30180  0.54180  Biso   1.000  H
  C130     1.0000 0.55930  0.31260  0.46060  Biso   1.000  C
  C131     1.0000 0.62840  0.28270  0.42800  Biso   1.000  C
  H98      1.0000 0.63860  0.30320  0.38730  Biso   1.000  H
  C132     1.0000 0.50450  0.37440  0.43014  Biso   1.000  C
  C133     1.0000 0.40810  0.42570  0.36800  Biso   1.000  C
  C134     1.0000 0.33850  0.43420  0.32460  Biso   1.000  C
  C135     1.0000 0.33420  0.50680  0.28790  Biso   1.000  C
  H99      1.0000 0.37700  0.54850  0.29110  Biso   1.000  H
  C136     1.0000 0.26990  0.51800  0.24810  Biso   1.000  C
  H100     1.0000 0.26820  0.56750  0.22340  Biso   1.000  H
  C137     1.0000 0.20640  0.45890  0.24250  Biso   1.000  C
  H101     1.0000 0.16210  0.46760  0.21360  Biso   1.000  H
  C138     1.0000 0.20690  0.38610  0.27940  Biso   1.000  C
  C139     1.0000 0.27360  0.37540  0.32050  Biso   1.000  C
  H102     1.0000 0.27480  0.32690  0.34630  Biso   1.000  H
  C140     1.0000 0.14080  0.32050  0.27300  Biso   1.000  C
  C141     1.0000 0.12440  0.26290  0.32010  Biso   1.000  C
  H103     1.0000 0.15260  0.26780  0.35880  Biso   1.000  H
  C142     1.0000 0.09420  0.31090  0.21980  Biso   1.000  C
  H104     1.0000 0.10080  0.34990  0.18670  Biso   1.000  H
  C143     1.0000 0.85840  0.08780  0.38980  Biso   1.000  C
  H105     1.0000 0.88680  0.03720  0.40050  Biso   1.000  H
  C144     1.0000 0.84320  0.20080  0.32610  Biso   1.000  C
  H106     1.0000 0.86000  0.23130  0.29030  Biso   1.000  H
  N31      1.0000 0.50660  0.45650  0.43329  Biso   1.000  N
  N32      1.0000 0.44600  0.48910  0.39454  Biso   1.000  N
  N33      1.0000 0.44360  0.35210  0.38924  Biso   1.000  N
  N34      1.0000 0.42410  0.27080  0.36890  Biso   1.000  N
  H107     1.0000 0.47300  0.24300  0.36030  Biso   1.000  H
  H108     1.0000 0.39570  0.24290  0.39920  Biso   1.000  H
  N35      1.0000 0.87920  0.12530  0.33718  Biso   1.000  N
  N36      1.0000 0.02440  0.18700  0.25834  Biso   1.000  N
  C145     1.0000 0.25550  0.53730  0.96400  Biso   1.000  C
  H109     1.0000 0.26030  0.50600  0.92670  Biso   1.000  H
  C146     1.0000 0.30160  0.56700  0.06060  Biso   1.000  C
  H110     1.0000 0.34020  0.55740  0.09350  Biso   1.000  H
  C147     1.0000 0.26440  0.28340  0.11430  Biso   1.000  C
  H111     1.0000 0.21030  0.26100  0.10500  Biso   1.000  H
  C148     1.0000 0.38240  0.29830  0.17950  Biso   1.000  C
  H112     1.0000 0.41270  0.28590  0.21640  Biso   1.000  H
  C149     1.0000 0.30760  0.25510  0.16640  Biso   1.000  C
  C150     1.0000 0.27670  0.18330  0.20340  Biso   1.000  C
  C151     1.0000 0.30440  0.16800  0.26320  Biso   1.000  C
  H113     1.0000 0.34390  0.20530  0.28180  Biso   1.000  H
  C152     1.0000 0.27530  0.09890  0.29610  Biso   1.000  C
  H114     1.0000 0.29500  0.08910  0.33700  Biso   1.000  H
  C153     1.0000 0.21710  0.04340  0.26960  Biso   1.000  C
  H115     1.0000 0.19820  0.99530  0.29180  Biso   1.000  H
  C154     1.0000 0.18740  0.05930  0.21060  Biso   1.000  C
  C155     1.0000 0.21730  0.12840  0.17800  Biso   1.000  C
  H116     1.0000 0.19680  0.13860  0.13730  Biso   1.000  H
  C156     1.0000 0.12560  0.00450  0.18014  Biso   1.000  C
  C157     1.0000 0.07430  0.90810  0.11800  Biso   1.000  C
  C158     1.0000 0.06580  0.83850  0.07460  Biso   1.000  C
  C159     1.0000 0.99320  0.83420  0.03790  Biso   1.000  C
  H117     1.0000 0.95150  0.87700  0.04110  Biso   1.000  H
  C160     1.0000 0.98200  0.76990  0.99810  Biso   1.000  C
  H118     1.0000 0.93250  0.76820  0.97340  Biso   1.000  H
  C161     1.0000 0.04110  0.70640  0.99250  Biso   1.000  C
  H119     1.0000 0.03240  0.66210  0.96360  Biso   1.000  H
  C162     1.0000 0.11390  0.70690  0.02940  Biso   1.000  C
  C163     1.0000 0.12460  0.77360  0.07050  Biso   1.000  C
  H120     1.0000 0.17310  0.77480  0.09630  Biso   1.000  H
  C164     1.0000 0.17950  0.64080  0.02300  Biso   1.000  C
  C165     1.0000 0.23710  0.62440  0.07010  Biso   1.000  C
  H121     1.0000 0.23220  0.65260  0.10880  Biso   1.000  H
  C166     1.0000 0.18910  0.59420  0.96980  Biso   1.000  C
  H122     1.0000 0.15010  0.60080  0.93670  Biso   1.000  H
  C167     1.0000 0.41220  0.35840  0.13980  Biso   1.000  C
  H123     1.0000 0.46280  0.38680  0.15050  Biso   1.000  H
  C168     1.0000 0.29920  0.34320  0.07610  Biso   1.000  C
  H124     1.0000 0.26870  0.36000  0.04030  Biso   1.000  H
  N37      1.0000 0.04350  0.00660  0.18329  Biso   1.000  N
  N38      1.0000 0.01090  0.94600  0.14454  Biso   1.000  N
  N39      1.0000 0.14790  0.94360  0.13924  Biso   1.000  N
  N40      1.0000 0.22920  0.92410  0.11890  Biso   1.000  N
  H125     1.0000 0.25700  0.97300  0.11030  Biso   1.000  H
  H126     1.0000 0.25710  0.89570  0.14920  Biso   1.000  H
  N41      1.0000 0.37470  0.37920  0.08718  Biso   1.000  N
  N42      1.0000 0.31300  0.52440  0.00834  Biso   1.000  N
  C169     1.0000 0.74450  0.46270  0.46400  Biso   1.000  C
  H127     1.0000 0.73970  0.49400  0.42670  Biso   1.000  H
  C170     1.0000 0.69840  0.43300  0.56060  Biso   1.000  C
  H128     1.0000 0.65980  0.44260  0.59350  Biso   1.000  H
  C171     1.0000 0.73560  0.71660  0.61430  Biso   1.000  C
  H129     1.0000 0.78970  0.73900  0.60500  Biso   1.000  H
  C172     1.0000 0.61760  0.70170  0.67950  Biso   1.000  C
  H130     1.0000 0.58730  0.71410  0.71640  Biso   1.000  H
  C173     1.0000 0.69240  0.74490  0.66640  Biso   1.000  C
  C174     1.0000 0.72330  0.81670  0.70340  Biso   1.000  C
  C175     1.0000 0.69560  0.83200  0.76320  Biso   1.000  C
  H131     1.0000 0.65610  0.79470  0.78180  Biso   1.000  H
  C176     1.0000 0.72470  0.90110  0.79610  Biso   1.000  C
  H132     1.0000 0.70500  0.91090  0.83700  Biso   1.000  H
  C177     1.0000 0.78290  0.95660  0.76960  Biso   1.000  C
  H133     1.0000 0.80180  0.00470  0.79180  Biso   1.000  H
  C178     1.0000 0.81260  0.94070  0.71060  Biso   1.000  C
  C179     1.0000 0.78270  0.87160  0.67800  Biso   1.000  C
  H134     1.0000 0.80320  0.86140  0.63730  Biso   1.000  H
  C180     1.0000 0.87440  0.99550  0.68014  Biso   1.000  C
  C181     1.0000 0.92570  0.09190  0.61800  Biso   1.000  C
  C182     1.0000 0.93420  0.16150  0.57460  Biso   1.000  C
  C183     1.0000 0.00680  0.16580  0.53790  Biso   1.000  C
  H135     1.0000 0.04850  0.12300  0.54110  Biso   1.000  H
  C184     1.0000 0.01800  0.23010  0.49810  Biso   1.000  C
  H136     1.0000 0.06750  0.23180  0.47340  Biso   1.000  H
  C185     1.0000 0.95890  0.29360  0.49250  Biso   1.000  C
  H137     1.0000 0.96760  0.33790  0.46360  Biso   1.000  H
  C186     1.0000 0.88610  0.29310  0.52940  Biso   1.000  C
  C187     1.0000 0.87540  0.22640  0.57050  Biso   1.000  C
  H138     1.0000 0.82690  0.22520  0.59630  Biso   1.000  H
  C188     1.0000 0.82050  0.35920  0.52300  Biso   1.000  C
  C189     1.0000 0.76290  0.37560  0.57010  Biso   1.000  C
  H139     1.0000 0.76780  0.34740  0.60880  Biso   1.000  H
  C190     1.0000 0.81090  0.40580  0.46980  Biso   1.000  C
  H140     1.0000 0.84990  0.39920  0.43670  Biso   1.000  H
  C191     1.0000 0.58780  0.64160  0.63980  Biso   1.000  C
  H141     1.0000 0.53720  0.61320  0.65050  Biso   1.000  H
  C192     1.0000 0.70080  0.65680  0.57610  Biso   1.000  C
  H142     1.0000 0.73130  0.64000  0.54030  Biso   1.000  H
  N43      1.0000 0.95650  0.99340  0.68329  Biso   1.000  N
  N44      1.0000 0.98910  0.05400  0.64454  Biso   1.000  N
  N45      1.0000 0.85210  0.05640  0.63924  Biso   1.000  N
  N46      1.0000 0.77080  0.07590  0.61890  Biso   1.000  N
  H143     1.0000 0.74300  0.02700  0.61030  Biso   1.000  H
  H144     1.0000 0.74290  0.10430  0.64920  Biso   1.000  H
  N47      1.0000 0.62530  0.62080  0.58718  Biso   1.000  N
  N48      1.0000 0.68700  0.47560  0.50834  Biso   1.000  N
  Cd1      1.0000 0.05931  0.94069  0.75000  Biso   1.000  Cd
  Cd2      1.0000 0.94069  0.05931  0.25000  Biso   1.000  Cd
  Cd3      1.0000 0.55931  0.55931  0.50000  Biso   1.000  Cd
  Cd4      1.0000 0.44069  0.44069  0.00000  Biso   1.000  Cd
