data_image0
_cell_length_a       15.903
_cell_length_b       15.903
_cell_length_c       21.615
_cell_angle_alpha    90
_cell_angle_beta     90
_cell_angle_gamma    90

_symmetry_space_group_name_H-M    "P 1"
_symmetry_int_tables_number       1

loop_
  _symmetry_equiv_pos_as_xyz
  'x, y, z'

loop_
  _atom_site_label
  _atom_site_occupancy
  _atom_site_fract_x
  _atom_site_fract_y
  _atom_site_fract_z
  _atom_site_thermal_displace_type
  _atom_site_B_iso_or_equiv
  _atom_site_type_symbol
  C1       1.0000 0.96240  0.24470  0.03510  Biso   1.000  C
  H1       1.0000 0.99340  0.24050  0.07150  Biso   1.000  H
  C2       1.0000 0.90570  0.31060  0.02970  Biso   1.000  C
  H2       1.0000 0.89990  0.34930  0.06170  Biso   1.000  H
  C3       1.0000 0.85790  0.31870  0.97672  Biso   1.000  C
  C4       1.0000 0.87380  0.26000  0.92998  Biso   1.000  C
  H3       1.0000 0.84540  0.26360  0.89250  Biso   1.000  H
  C5       1.0000 0.93140  0.19700  0.93950  Biso   1.000  C
  H4       1.0000 0.94040  0.15890  0.90760  Biso   1.000  H
  C6       1.0000 0.79160  0.38420  0.97066  Biso   1.000  C
  C7       1.0000 0.79140  0.45570  0.00770  Biso   1.000  C
  H5       1.0000 0.83430  0.46360  0.03640  Biso   1.000  H
  C8       1.0000 0.72890  0.51490  0.00260  Biso   1.000  C
  H6       1.0000 0.73090  0.56310  0.02690  Biso   1.000  H
  C9       1.0000 0.66310  0.50350  0.96180  Biso   1.000  C
  H7       1.0000 0.62070  0.54360  0.95870  Biso   1.000  H
  C10      1.0000 0.66090  0.43170  0.92540  Biso   1.000  C
  C11      1.0000 0.72510  0.37210  0.92928  Biso   1.000  C
  H8       1.0000 0.72370  0.32440  0.90440  Biso   1.000  H
  C12      1.0000 0.59090  0.42370  0.88096  Biso   1.000  C
  C13      1.0000 0.49480  0.37270  0.81911  Biso   1.000  C
  C14      1.0000 0.43920  0.31070  0.78887  Biso   1.000  C
  C15      1.0000 0.45630  0.28050  0.73017  Biso   1.000  C
  H9       1.0000 0.50350  0.29860  0.70860  Biso   1.000  H
  C16      1.0000 0.40070  0.22200  0.70400  Biso   1.000  C
  H10      1.0000 0.41000  0.20260  0.66400  Biso   1.000  H
  C17      1.0000 0.33260  0.19310  0.73690  Biso   1.000  C
  H11      1.0000 0.29690  0.15360  0.71900  Biso   1.000  H
  C18      1.0000 0.31630  0.22190  0.79645  Biso   1.000  C
  C19      1.0000 0.37020  0.28180  0.82144  Biso   1.000  C
  H12      1.0000 0.35970  0.30280  0.86080  Biso   1.000  H
  C20      1.0000 0.24460  0.19120  0.83356  Biso   1.000  C
  C21      1.0000 0.20170  0.11620  0.82003  Biso   1.000  C
  H13      1.0000 0.21370  0.08680  0.78390  Biso   1.000  H
  C22      1.0000 0.14200  0.08670  0.86027  Biso   1.000  C
  H14      1.0000 0.11500  0.03660  0.85040  Biso   1.000  H
  C23      1.0000 0.15700  0.19950  0.92333  Biso   1.000  C
  H15      1.0000 0.14100  0.22930  0.95840  Biso   1.000  H
  C24      1.0000 0.21660  0.23400  0.88561  Biso   1.000  C
  H16      1.0000 0.23860  0.28670  0.89490  Biso   1.000  H
  N1       1.0000 0.55380  0.48733  0.85469  Biso   1.000  N
  N2       1.0000 0.49271  0.45517  0.81577  Biso   1.000  N
  N3       1.0000 0.55570  0.35061  0.85993  Biso   1.000  N
  N4       1.0000 0.57520  0.26880  0.88073  Biso   1.000  N
  N5       1.0000 0.97525  0.18710  0.99143  Biso   1.000  N
  N6       1.0000 0.12030  0.12510  0.91255  Biso   1.000  N
  H17      1.0000 0.59960  0.24400  0.84770  Biso   1.000  H
  H18      1.0000 0.52390  0.24440  0.88670  Biso   1.000  H
  C25      1.0000 0.03760  0.75530  0.53510  Biso   1.000  C
  H19      1.0000 0.00660  0.75950  0.57150  Biso   1.000  H
  C26      1.0000 0.09430  0.68940  0.52970  Biso   1.000  C
  H20      1.0000 0.10010  0.65070  0.56170  Biso   1.000  H
  C27      1.0000 0.14210  0.68130  0.47672  Biso   1.000  C
  C28      1.0000 0.12620  0.74000  0.42998  Biso   1.000  C
  H21      1.0000 0.15460  0.73640  0.39250  Biso   1.000  H
  C29      1.0000 0.06860  0.80300  0.43950  Biso   1.000  C
  H22      1.0000 0.05960  0.84110  0.40760  Biso   1.000  H
  C30      1.0000 0.20840  0.61580  0.47066  Biso   1.000  C
  C31      1.0000 0.20860  0.54430  0.50770  Biso   1.000  C
  H23      1.0000 0.16570  0.53640  0.53640  Biso   1.000  H
  C32      1.0000 0.27110  0.48510  0.50260  Biso   1.000  C
  H24      1.0000 0.26910  0.43690  0.52690  Biso   1.000  H
  C33      1.0000 0.33690  0.49650  0.46180  Biso   1.000  C
  H25      1.0000 0.37930  0.45640  0.45870  Biso   1.000  H
  C34      1.0000 0.33910  0.56830  0.42540  Biso   1.000  C
  C35      1.0000 0.27490  0.62790  0.42928  Biso   1.000  C
  H26      1.0000 0.27630  0.67560  0.40440  Biso   1.000  H
  C36      1.0000 0.40910  0.57630  0.38096  Biso   1.000  C
  C37      1.0000 0.50520  0.62730  0.31911  Biso   1.000  C
  C38      1.0000 0.56080  0.68930  0.28887  Biso   1.000  C
  C39      1.0000 0.54370  0.71950  0.23017  Biso   1.000  C
  H27      1.0000 0.49650  0.70140  0.20860  Biso   1.000  H
  C40      1.0000 0.59930  0.77800  0.20400  Biso   1.000  C
  H28      1.0000 0.59000  0.79740  0.16400  Biso   1.000  H
  C41      1.0000 0.66740  0.80690  0.23690  Biso   1.000  C
  H29      1.0000 0.70310  0.84640  0.21900  Biso   1.000  H
  C42      1.0000 0.68370  0.77810  0.29645  Biso   1.000  C
  C43      1.0000 0.62980  0.71820  0.32144  Biso   1.000  C
  H30      1.0000 0.64030  0.69720  0.36080  Biso   1.000  H
  C44      1.0000 0.75540  0.80880  0.33356  Biso   1.000  C
  C45      1.0000 0.79830  0.88380  0.32003  Biso   1.000  C
  H31      1.0000 0.78630  0.91320  0.28390  Biso   1.000  H
  C46      1.0000 0.85800  0.91330  0.36027  Biso   1.000  C
  H32      1.0000 0.88500  0.96340  0.35040  Biso   1.000  H
  C47      1.0000 0.84300  0.80050  0.42333  Biso   1.000  C
  H33      1.0000 0.85900  0.77070  0.45840  Biso   1.000  H
  C48      1.0000 0.78340  0.76600  0.38561  Biso   1.000  C
  H34      1.0000 0.76140  0.71330  0.39490  Biso   1.000  H
  N7       1.0000 0.44620  0.51267  0.35469  Biso   1.000  N
  N8       1.0000 0.50729  0.54483  0.31577  Biso   1.000  N
  N9       1.0000 0.44430  0.64939  0.35993  Biso   1.000  N
  N10      1.0000 0.42480  0.73120  0.38073  Biso   1.000  N
  N11      1.0000 0.02475  0.81290  0.49143  Biso   1.000  N
  N12      1.0000 0.87970  0.87490  0.41255  Biso   1.000  N
  H35      1.0000 0.40040  0.75600  0.34770  Biso   1.000  H
  H36      1.0000 0.47610  0.75560  0.38670  Biso   1.000  H
  C49      1.0000 0.25530  0.46240  0.78510  Biso   1.000  C
  H37      1.0000 0.25950  0.49340  0.82150  Biso   1.000  H
  C50      1.0000 0.18940  0.40570  0.77970  Biso   1.000  C
  H38      1.0000 0.15070  0.39990  0.81170  Biso   1.000  H
  C51      1.0000 0.18130  0.35790  0.72672  Biso   1.000  C
  C52      1.0000 0.24000  0.37380  0.67998  Biso   1.000  C
  H39      1.0000 0.23640  0.34540  0.64250  Biso   1.000  H
  C53      1.0000 0.30300  0.43140  0.68950  Biso   1.000  C
  H40      1.0000 0.34110  0.44040  0.65760  Biso   1.000  H
  C54      1.0000 0.11580  0.29160  0.72066  Biso   1.000  C
  C55      1.0000 0.04430  0.29140  0.75770  Biso   1.000  C
  H41      1.0000 0.03640  0.33430  0.78640  Biso   1.000  H
  C56      1.0000 0.98510  0.22890  0.75260  Biso   1.000  C
  H42      1.0000 0.93690  0.23090  0.77690  Biso   1.000  H
  C57      1.0000 0.99650  0.16310  0.71180  Biso   1.000  C
  H43      1.0000 0.95640  0.12070  0.70870  Biso   1.000  H
  C58      1.0000 0.06830  0.16090  0.67540  Biso   1.000  C
  C59      1.0000 0.12790  0.22510  0.67928  Biso   1.000  C
  H44      1.0000 0.17560  0.22370  0.65440  Biso   1.000  H
  C60      1.0000 0.07630  0.09090  0.63096  Biso   1.000  C
  C61      1.0000 0.12730  0.99480  0.56911  Biso   1.000  C
  C62      1.0000 0.18930  0.93920  0.53887  Biso   1.000  C
  C63      1.0000 0.21950  0.95630  0.48017  Biso   1.000  C
  H45      1.0000 0.20140  0.00350  0.45860  Biso   1.000  H
  C64      1.0000 0.27800  0.90070  0.45400  Biso   1.000  C
  H46      1.0000 0.29740  0.91000  0.41400  Biso   1.000  H
  C65      1.0000 0.30690  0.83260  0.48690  Biso   1.000  C
  H47      1.0000 0.34640  0.79690  0.46900  Biso   1.000  H
  C66      1.0000 0.27810  0.81630  0.54645  Biso   1.000  C
  C67      1.0000 0.21820  0.87020  0.57144  Biso   1.000  C
  H48      1.0000 0.19720  0.85970  0.61080  Biso   1.000  H
  C68      1.0000 0.30880  0.74460  0.58356  Biso   1.000  C
  C69      1.0000 0.38380  0.70170  0.57003  Biso   1.000  C
  H49      1.0000 0.41320  0.71370  0.53390  Biso   1.000  H
  C70      1.0000 0.41330  0.64200  0.61027  Biso   1.000  C
  H50      1.0000 0.46340  0.61500  0.60040  Biso   1.000  H
  C71      1.0000 0.30050  0.65700  0.67333  Biso   1.000  C
  H51      1.0000 0.27070  0.64100  0.70840  Biso   1.000  H
  C72      1.0000 0.26600  0.71660  0.63561  Biso   1.000  C
  H52      1.0000 0.21330  0.73860  0.64490  Biso   1.000  H
  N13      1.0000 0.01267  0.05380  0.60469  Biso   1.000  N
  N14      1.0000 0.04483  0.99271  0.56577  Biso   1.000  N
  N15      1.0000 0.14939  0.05570  0.60993  Biso   1.000  N
  N16      1.0000 0.23120  0.07520  0.63073  Biso   1.000  N
  N17      1.0000 0.31290  0.47525  0.74143  Biso   1.000  N
  N18      1.0000 0.37490  0.62030  0.66255  Biso   1.000  N
  H53      1.0000 0.25600  0.09960  0.59770  Biso   1.000  H
  H54      1.0000 0.25560  0.02390  0.63670  Biso   1.000  H
  C73      1.0000 0.74470  0.53760  0.28510  Biso   1.000  C
  H55      1.0000 0.74050  0.50660  0.32150  Biso   1.000  H
  C74      1.0000 0.81060  0.59430  0.27970  Biso   1.000  C
  H56      1.0000 0.84930  0.60010  0.31170  Biso   1.000  H
  C75      1.0000 0.81870  0.64210  0.22672  Biso   1.000  C
  C76      1.0000 0.76000  0.62620  0.17998  Biso   1.000  C
  H57      1.0000 0.76360  0.65460  0.14250  Biso   1.000  H
  C77      1.0000 0.69700  0.56860  0.18950  Biso   1.000  C
  H58      1.0000 0.65890  0.55960  0.15760  Biso   1.000  H
  C78      1.0000 0.88420  0.70840  0.22066  Biso   1.000  C
  C79      1.0000 0.95570  0.70860  0.25770  Biso   1.000  C
  H59      1.0000 0.96360  0.66570  0.28640  Biso   1.000  H
  C80      1.0000 0.01490  0.77110  0.25260  Biso   1.000  C
  H60      1.0000 0.06310  0.76910  0.27690  Biso   1.000  H
  C81      1.0000 0.00350  0.83690  0.21180  Biso   1.000  C
  H61      1.0000 0.04360  0.87930  0.20870  Biso   1.000  H
  C82      1.0000 0.93170  0.83910  0.17540  Biso   1.000  C
  C83      1.0000 0.87210  0.77490  0.17928  Biso   1.000  C
  H62      1.0000 0.82440  0.77630  0.15440  Biso   1.000  H
  C84      1.0000 0.92370  0.90910  0.13096  Biso   1.000  C
  C85      1.0000 0.87270  0.00520  0.06911  Biso   1.000  C
  C86      1.0000 0.81070  0.06080  0.03887  Biso   1.000  C
  C87      1.0000 0.78050  0.04370  0.98017  Biso   1.000  C
  H63      1.0000 0.79860  0.99650  0.95860  Biso   1.000  H
  C88      1.0000 0.72200  0.09930  0.95400  Biso   1.000  C
  H64      1.0000 0.70260  0.09000  0.91400  Biso   1.000  H
  C89      1.0000 0.69310  0.16740  0.98690  Biso   1.000  C
  H65      1.0000 0.65360  0.20310  0.96900  Biso   1.000  H
  C90      1.0000 0.72190  0.18370  0.04645  Biso   1.000  C
  C91      1.0000 0.78180  0.12980  0.07144  Biso   1.000  C
  H66      1.0000 0.80280  0.14030  0.11080  Biso   1.000  H
  C92      1.0000 0.69120  0.25540  0.08356  Biso   1.000  C
  C93      1.0000 0.61620  0.29830  0.07003  Biso   1.000  C
  H67      1.0000 0.58680  0.28630  0.03390  Biso   1.000  H
  C94      1.0000 0.58670  0.35800  0.11027  Biso   1.000  C
  H68      1.0000 0.53660  0.38500  0.10040  Biso   1.000  H
  C95      1.0000 0.69950  0.34300  0.17333  Biso   1.000  C
  H69      1.0000 0.72930  0.35900  0.20840  Biso   1.000  H
  C96      1.0000 0.73400  0.28340  0.13561  Biso   1.000  C
  H70      1.0000 0.78670  0.26140  0.14490  Biso   1.000  H
  N19      1.0000 0.98733  0.94620  0.10469  Biso   1.000  N
  N20      1.0000 0.95517  0.00729  0.06577  Biso   1.000  N
  N21      1.0000 0.85061  0.94430  0.10993  Biso   1.000  N
  N22      1.0000 0.76880  0.92480  0.13073  Biso   1.000  N
  N23      1.0000 0.68710  0.52475  0.24143  Biso   1.000  N
  N24      1.0000 0.62510  0.37970  0.16255  Biso   1.000  N
  H71      1.0000 0.74400  0.90040  0.09770  Biso   1.000  H
  H72      1.0000 0.74440  0.97610  0.13670  Biso   1.000  H
  C97      1.0000 0.53760  0.74470  0.71490  Biso   1.000  C
  H73      1.0000 0.50660  0.74050  0.67850  Biso   1.000  H
  C98      1.0000 0.59430  0.81060  0.72030  Biso   1.000  C
  H74      1.0000 0.60010  0.84930  0.68830  Biso   1.000  H
  C99      1.0000 0.64210  0.81870  0.77328  Biso   1.000  C
  C100     1.0000 0.62620  0.76000  0.82002  Biso   1.000  C
  H75      1.0000 0.65460  0.76360  0.85750  Biso   1.000  H
  C101     1.0000 0.56860  0.69700  0.81050  Biso   1.000  C
  H76      1.0000 0.55960  0.65890  0.84240  Biso   1.000  H
  C102     1.0000 0.70840  0.88420  0.77934  Biso   1.000  C
  C103     1.0000 0.70860  0.95570  0.74230  Biso   1.000  C
  H77      1.0000 0.66570  0.96360  0.71360  Biso   1.000  H
  C104     1.0000 0.77110  0.01490  0.74740  Biso   1.000  C
  H78      1.0000 0.76910  0.06310  0.72310  Biso   1.000  H
  C105     1.0000 0.83690  0.00350  0.78820  Biso   1.000  C
  H79      1.0000 0.87930  0.04360  0.79130  Biso   1.000  H
  C106     1.0000 0.83910  0.93170  0.82460  Biso   1.000  C
  C107     1.0000 0.77490  0.87210  0.82072  Biso   1.000  C
  H80      1.0000 0.77630  0.82440  0.84560  Biso   1.000  H
  C108     1.0000 0.90910  0.92370  0.86904  Biso   1.000  C
  C109     1.0000 0.00520  0.87270  0.93089  Biso   1.000  C
  C110     1.0000 0.06080  0.81070  0.96113  Biso   1.000  C
  C111     1.0000 0.04370  0.78050  0.01983  Biso   1.000  C
  H81      1.0000 0.99650  0.79860  0.04140  Biso   1.000  H
  C112     1.0000 0.09930  0.72200  0.04600  Biso   1.000  C
  H82      1.0000 0.09000  0.70260  0.08600  Biso   1.000  H
  C113     1.0000 0.16740  0.69310  0.01310  Biso   1.000  C
  H83      1.0000 0.20310  0.65360  0.03100  Biso   1.000  H
  C114     1.0000 0.18370  0.72190  0.95355  Biso   1.000  C
  C115     1.0000 0.12980  0.78180  0.92856  Biso   1.000  C
  H84      1.0000 0.14030  0.80280  0.88920  Biso   1.000  H
  C116     1.0000 0.25540  0.69120  0.91644  Biso   1.000  C
  C117     1.0000 0.29830  0.61620  0.92997  Biso   1.000  C
  H85      1.0000 0.28630  0.58680  0.96610  Biso   1.000  H
  C118     1.0000 0.35800  0.58670  0.88973  Biso   1.000  C
  H86      1.0000 0.38500  0.53660  0.89960  Biso   1.000  H
  C119     1.0000 0.34300  0.69950  0.82667  Biso   1.000  C
  H87      1.0000 0.35900  0.72930  0.79160  Biso   1.000  H
  C120     1.0000 0.28340  0.73400  0.86439  Biso   1.000  C
  H88      1.0000 0.26140  0.78670  0.85510  Biso   1.000  H
  N25      1.0000 0.94620  0.98733  0.89531  Biso   1.000  N
  N26      1.0000 0.00729  0.95517  0.93423  Biso   1.000  N
  N27      1.0000 0.94430  0.85061  0.89007  Biso   1.000  N
  N28      1.0000 0.92480  0.76880  0.86927  Biso   1.000  N
  N29      1.0000 0.52475  0.68710  0.75857  Biso   1.000  N
  N30      1.0000 0.37970  0.62510  0.83745  Biso   1.000  N
  H89      1.0000 0.90040  0.74400  0.90230  Biso   1.000  H
  H90      1.0000 0.97610  0.74440  0.86330  Biso   1.000  H
  C121     1.0000 0.46240  0.25530  0.21490  Biso   1.000  C
  H91      1.0000 0.49340  0.25950  0.17850  Biso   1.000  H
  C122     1.0000 0.40570  0.18940  0.22030  Biso   1.000  C
  H92      1.0000 0.39990  0.15070  0.18830  Biso   1.000  H
  C123     1.0000 0.35790  0.18130  0.27328  Biso   1.000  C
  C124     1.0000 0.37380  0.24000  0.32002  Biso   1.000  C
  H93      1.0000 0.34540  0.23640  0.35750  Biso   1.000  H
  C125     1.0000 0.43140  0.30300  0.31050  Biso   1.000  C
  H94      1.0000 0.44040  0.34110  0.34240  Biso   1.000  H
  C126     1.0000 0.29160  0.11580  0.27934  Biso   1.000  C
  C127     1.0000 0.29140  0.04430  0.24230  Biso   1.000  C
  H95      1.0000 0.33430  0.03640  0.21360  Biso   1.000  H
  C128     1.0000 0.22890  0.98510  0.24740  Biso   1.000  C
  H96      1.0000 0.23090  0.93690  0.22310  Biso   1.000  H
  C129     1.0000 0.16310  0.99650  0.28820  Biso   1.000  C
  H97      1.0000 0.12070  0.95640  0.29130  Biso   1.000  H
  C130     1.0000 0.16090  0.06830  0.32460  Biso   1.000  C
  C131     1.0000 0.22510  0.12790  0.32072  Biso   1.000  C
  H98      1.0000 0.22370  0.17560  0.34560  Biso   1.000  H
  C132     1.0000 0.09090  0.07630  0.36904  Biso   1.000  C
  C133     1.0000 0.99480  0.12730  0.43089  Biso   1.000  C
  C134     1.0000 0.93920  0.18930  0.46113  Biso   1.000  C
  C135     1.0000 0.95630  0.21950  0.51983  Biso   1.000  C
  H99      1.0000 0.00350  0.20140  0.54140  Biso   1.000  H
  C136     1.0000 0.90070  0.27800  0.54600  Biso   1.000  C
  H100     1.0000 0.91000  0.29740  0.58600  Biso   1.000  H
  C137     1.0000 0.83260  0.30690  0.51310  Biso   1.000  C
  H101     1.0000 0.79690  0.34640  0.53100  Biso   1.000  H
  C138     1.0000 0.81630  0.27810  0.45355  Biso   1.000  C
  C139     1.0000 0.87020  0.21820  0.42856  Biso   1.000  C
  H102     1.0000 0.85970  0.19720  0.38920  Biso   1.000  H
  C140     1.0000 0.74460  0.30880  0.41644  Biso   1.000  C
  C141     1.0000 0.70170  0.38380  0.42997  Biso   1.000  C
  H103     1.0000 0.71370  0.41320  0.46610  Biso   1.000  H
  C142     1.0000 0.64200  0.41330  0.38973  Biso   1.000  C
  H104     1.0000 0.61500  0.46340  0.39960  Biso   1.000  H
  C143     1.0000 0.65700  0.30050  0.32667  Biso   1.000  C
  H105     1.0000 0.64100  0.27070  0.29160  Biso   1.000  H
  C144     1.0000 0.71660  0.26600  0.36439  Biso   1.000  C
  H106     1.0000 0.73860  0.21330  0.35510  Biso   1.000  H
  N31      1.0000 0.05380  0.01267  0.39531  Biso   1.000  N
  N32      1.0000 0.99271  0.04483  0.43423  Biso   1.000  N
  N33      1.0000 0.05570  0.14939  0.39007  Biso   1.000  N
  N34      1.0000 0.07520  0.23120  0.36927  Biso   1.000  N
  N35      1.0000 0.47525  0.31290  0.25857  Biso   1.000  N
  N36      1.0000 0.62030  0.37490  0.33745  Biso   1.000  N
  H107     1.0000 0.09960  0.25600  0.40230  Biso   1.000  H
  H108     1.0000 0.02390  0.25560  0.36330  Biso   1.000  H
  C145     1.0000 0.24470  0.96240  0.96490  Biso   1.000  C
  H109     1.0000 0.24050  0.99340  0.92850  Biso   1.000  H
  C146     1.0000 0.31060  0.90570  0.97030  Biso   1.000  C
  H110     1.0000 0.34930  0.89990  0.93830  Biso   1.000  H
  C147     1.0000 0.31870  0.85790  0.02328  Biso   1.000  C
  C148     1.0000 0.26000  0.87380  0.07002  Biso   1.000  C
  H111     1.0000 0.26360  0.84540  0.10750  Biso   1.000  H
  C149     1.0000 0.19700  0.93140  0.06050  Biso   1.000  C
  H112     1.0000 0.15890  0.94040  0.09240  Biso   1.000  H
  C150     1.0000 0.38420  0.79160  0.02934  Biso   1.000  C
  C151     1.0000 0.45570  0.79140  0.99230  Biso   1.000  C
  H113     1.0000 0.46360  0.83430  0.96360  Biso   1.000  H
  C152     1.0000 0.51490  0.72890  0.99740  Biso   1.000  C
  H114     1.0000 0.56310  0.73090  0.97310  Biso   1.000  H
  C153     1.0000 0.50350  0.66310  0.03820  Biso   1.000  C
  H115     1.0000 0.54360  0.62070  0.04130  Biso   1.000  H
  C154     1.0000 0.43170  0.66090  0.07460  Biso   1.000  C
  C155     1.0000 0.37210  0.72510  0.07072  Biso   1.000  C
  H116     1.0000 0.32440  0.72370  0.09560  Biso   1.000  H
  C156     1.0000 0.42370  0.59090  0.11904  Biso   1.000  C
  C157     1.0000 0.37270  0.49480  0.18089  Biso   1.000  C
  C158     1.0000 0.31070  0.43920  0.21113  Biso   1.000  C
  C159     1.0000 0.28050  0.45630  0.26983  Biso   1.000  C
  H117     1.0000 0.29860  0.50350  0.29140  Biso   1.000  H
  C160     1.0000 0.22200  0.40070  0.29600  Biso   1.000  C
  H118     1.0000 0.20260  0.41000  0.33600  Biso   1.000  H
  C161     1.0000 0.19310  0.33260  0.26310  Biso   1.000  C
  H119     1.0000 0.15360  0.29690  0.28100  Biso   1.000  H
  C162     1.0000 0.22190  0.31630  0.20355  Biso   1.000  C
  C163     1.0000 0.28180  0.37020  0.17856  Biso   1.000  C
  H120     1.0000 0.30280  0.35970  0.13920  Biso   1.000  H
  C164     1.0000 0.19120  0.24460  0.16644  Biso   1.000  C
  C165     1.0000 0.11620  0.20170  0.17997  Biso   1.000  C
  H121     1.0000 0.08680  0.21370  0.21610  Biso   1.000  H
  C166     1.0000 0.08670  0.14200  0.13973  Biso   1.000  C
  H122     1.0000 0.03660  0.11500  0.14960  Biso   1.000  H
  C167     1.0000 0.19950  0.15700  0.07667  Biso   1.000  C
  H123     1.0000 0.22930  0.14100  0.04160  Biso   1.000  H
  C168     1.0000 0.23400  0.21660  0.11439  Biso   1.000  C
  H124     1.0000 0.28670  0.23860  0.10510  Biso   1.000  H
  N37      1.0000 0.48733  0.55380  0.14531  Biso   1.000  N
  N38      1.0000 0.45517  0.49271  0.18423  Biso   1.000  N
  N39      1.0000 0.35061  0.55570  0.14007  Biso   1.000  N
  N40      1.0000 0.26880  0.57520  0.11927  Biso   1.000  N
  N41      1.0000 0.18710  0.97525  0.00857  Biso   1.000  N
  N42      1.0000 0.12510  0.12030  0.08745  Biso   1.000  N
  H125     1.0000 0.24400  0.59960  0.15230  Biso   1.000  H
  H126     1.0000 0.24440  0.52390  0.11330  Biso   1.000  H
  C169     1.0000 0.75530  0.03760  0.46490  Biso   1.000  C
  H127     1.0000 0.75950  0.00660  0.42850  Biso   1.000  H
  C170     1.0000 0.68940  0.09430  0.47030  Biso   1.000  C
  H128     1.0000 0.65070  0.10010  0.43830  Biso   1.000  H
  C171     1.0000 0.68130  0.14210  0.52328  Biso   1.000  C
  C172     1.0000 0.74000  0.12620  0.57002  Biso   1.000  C
  H129     1.0000 0.73640  0.15460  0.60750  Biso   1.000  H
  C173     1.0000 0.80300  0.06860  0.56050  Biso   1.000  C
  H130     1.0000 0.84110  0.05960  0.59240  Biso   1.000  H
  C174     1.0000 0.61580  0.20840  0.52934  Biso   1.000  C
  C175     1.0000 0.54430  0.20860  0.49230  Biso   1.000  C
  H131     1.0000 0.53640  0.16570  0.46360  Biso   1.000  H
  C176     1.0000 0.48510  0.27110  0.49740  Biso   1.000  C
  H132     1.0000 0.43690  0.26910  0.47310  Biso   1.000  H
  C177     1.0000 0.49650  0.33690  0.53820  Biso   1.000  C
  H133     1.0000 0.45640  0.37930  0.54130  Biso   1.000  H
  C178     1.0000 0.56830  0.33910  0.57460  Biso   1.000  C
  C179     1.0000 0.62790  0.27490  0.57072  Biso   1.000  C
  H134     1.0000 0.67560  0.27630  0.59560  Biso   1.000  H
  C180     1.0000 0.57630  0.40910  0.61904  Biso   1.000  C
  C181     1.0000 0.62730  0.50520  0.68089  Biso   1.000  C
  C182     1.0000 0.68930  0.56080  0.71113  Biso   1.000  C
  C183     1.0000 0.71950  0.54370  0.76983  Biso   1.000  C
  H135     1.0000 0.70140  0.49650  0.79140  Biso   1.000  H
  C184     1.0000 0.77800  0.59930  0.79600  Biso   1.000  C
  H136     1.0000 0.79740  0.59000  0.83600  Biso   1.000  H
  C185     1.0000 0.80690  0.66740  0.76310  Biso   1.000  C
  H137     1.0000 0.84640  0.70310  0.78100  Biso   1.000  H
  C186     1.0000 0.77810  0.68370  0.70355  Biso   1.000  C
  C187     1.0000 0.71820  0.62980  0.67856  Biso   1.000  C
  H138     1.0000 0.69720  0.64030  0.63920  Biso   1.000  H
  C188     1.0000 0.80880  0.75540  0.66644  Biso   1.000  C
  C189     1.0000 0.88380  0.79830  0.67997  Biso   1.000  C
  H139     1.0000 0.91320  0.78630  0.71610  Biso   1.000  H
  C190     1.0000 0.91330  0.85800  0.63973  Biso   1.000  C
  H140     1.0000 0.96340  0.88500  0.64960  Biso   1.000  H
  C191     1.0000 0.80050  0.84300  0.57667  Biso   1.000  C
  H141     1.0000 0.77070  0.85900  0.54160  Biso   1.000  H
  C192     1.0000 0.76600  0.78340  0.61439  Biso   1.000  C
  H142     1.0000 0.71330  0.76140  0.60510  Biso   1.000  H
  N43      1.0000 0.51267  0.44620  0.64531  Biso   1.000  N
  N44      1.0000 0.54483  0.50729  0.68423  Biso   1.000  N
  N45      1.0000 0.64939  0.44430  0.64007  Biso   1.000  N
  N46      1.0000 0.73120  0.42480  0.61927  Biso   1.000  N
  N47      1.0000 0.81290  0.02475  0.50857  Biso   1.000  N
  N48      1.0000 0.87490  0.87970  0.58745  Biso   1.000  N
  H143     1.0000 0.75600  0.40040  0.65230  Biso   1.000  H
  H144     1.0000 0.75560  0.47610  0.61330  Biso   1.000  H
  Cd1      1.0000 0.44103  0.55897  0.75000  Biso   1.000  Cd
  Cd2      1.0000 0.55897  0.44103  0.25000  Biso   1.000  Cd
  Cd3      1.0000 0.94103  0.94103  0.50000  Biso   1.000  Cd
  Cd4      1.0000 0.05897  0.05897  0.00000  Biso   1.000  Cd
