data_image0
_cell_length_a       13.854
_cell_length_b       10.832
_cell_length_c       18.731
_cell_angle_alpha    90
_cell_angle_beta     130.624
_cell_angle_gamma    90

_symmetry_space_group_name_H-M    "P 1"
_symmetry_int_tables_number       1

loop_
  _symmetry_equiv_pos_as_xyz
  'x, y, z'

loop_
  _atom_site_label
  _atom_site_occupancy
  _atom_site_fract_x
  _atom_site_fract_y
  _atom_site_fract_z
  _atom_site_thermal_displace_type
  _atom_site_B_iso_or_equiv
  _atom_site_type_symbol
  N1       1.0000 0.34450  0.09220  0.68790  Biso   1.000  N
  N2       1.0000 0.23870  0.26280  0.60770  Biso   1.000  N
  N3       1.0000 0.00690  0.81370  0.65990  Biso   1.000  N
  O1       1.0000 0.88230  0.52440  0.62960  Biso   1.000  O
  O2       1.0000 0.81230  0.58940  0.69960  Biso   1.000  O
  O3       1.0000 0.63990  0.18900  0.38530  Biso   1.000  O
  O4       1.0000 0.45070  0.14570  0.33170  Biso   1.000  O
  S1       1.0000 0.39397  0.16520  0.57785  Biso   1.000  S
  C1       1.0000 0.42330  0.32520  0.57430  Biso   1.000  C
  H1       1.0000 0.34360  0.36710  0.52630  Biso   1.000  H
  H2       1.0000 0.46220  0.36340  0.63450  Biso   1.000  H
  C2       1.0000 0.51070  0.33720  0.55260  Biso   1.000  C
  C3       1.0000 0.61280  0.41760  0.60510  Biso   1.000  C
  H3       1.0000 0.62630  0.46410  0.65260  Biso   1.000  H
  C4       1.0000 0.69550  0.42940  0.58740  Biso   1.000  C
  C5       1.0000 0.67770  0.35670  0.51830  Biso   1.000  C
  H4       1.0000 0.73510  0.36150  0.50830  Biso   1.000  H
  C6       1.0000 0.57440  0.27710  0.46430  Biso   1.000  C
  C7       1.0000 0.48990  0.26890  0.48070  Biso   1.000  C
  H5       1.0000 0.41930  0.21760  0.44340  Biso   1.000  H
  C8       1.0000 0.80340  0.51950  0.64250  Biso   1.000  C
  C9       1.0000 0.55420  0.19970  0.38950  Biso   1.000  C
  C10      1.0000 0.32240  0.17480  0.62730  Biso   1.000  C
  C11      1.0000 0.26990  0.12850  0.71010  Biso   1.000  C
  C12      1.0000 0.25680  0.07790  0.77190  Biso   1.000  C
  H6       1.0000 0.30010  0.00680  0.80630  Biso   1.000  H
  C13      1.0000 0.17640  0.13850  0.77920  Biso   1.000  C
  H7       1.0000 0.16640  0.10830  0.82050  Biso   1.000  H
  C14      1.0000 0.10910  0.24420  0.72660  Biso   1.000  C
  H8       1.0000 0.05440  0.28090  0.73290  Biso   1.000  H
  C15      1.0000 0.12100  0.29460  0.66680  Biso   1.000  C
  H9       1.0000 0.07670  0.36520  0.63220  Biso   1.000  H
  C16      1.0000 0.20380  0.23440  0.65990  Biso   1.000  C
  C17      1.0000 0.08540  0.79270  0.64270  Biso   1.000  C
  H10      1.0000 0.14280  0.72770  0.67390  Biso   1.000  H
  C18      1.0000 0.08580  0.86230  0.58130  Biso   1.000  C
  H11      1.0000 0.14190  0.84340  0.57150  Biso   1.000  H
  C19      1.0000 0.00170  0.96130  0.53370  Biso   1.000  C
  C20      1.0000 0.92280  0.98490  0.55360  Biso   1.000  C
  H12      1.0000 0.86660  0.05110  0.52530  Biso   1.000  H
  C21      1.0000 0.92790  0.90990  0.61550  Biso   1.000  C
  H13      1.0000 0.87340  0.92720  0.62700  Biso   1.000  H
  N4       1.0000 0.65550  0.09220  0.81210  Biso   1.000  N
  N5       1.0000 0.76130  0.26280  0.89230  Biso   1.000  N
  N6       1.0000 0.99310  0.81370  0.84010  Biso   1.000  N
  O5       1.0000 0.11770  0.52440  0.87040  Biso   1.000  O
  O6       1.0000 0.18770  0.58940  0.80040  Biso   1.000  O
  O7       1.0000 0.36010  0.18900  0.11470  Biso   1.000  O
  O8       1.0000 0.54930  0.14570  0.16830  Biso   1.000  O
  S2       1.0000 0.60603  0.16520  0.92215  Biso   1.000  S
  C22      1.0000 0.57670  0.32520  0.92570  Biso   1.000  C
  H14      1.0000 0.65640  0.36710  0.97370  Biso   1.000  H
  H15      1.0000 0.53780  0.36340  0.86550  Biso   1.000  H
  C23      1.0000 0.48930  0.33720  0.94740  Biso   1.000  C
  C24      1.0000 0.38720  0.41760  0.89490  Biso   1.000  C
  H16      1.0000 0.37370  0.46410  0.84740  Biso   1.000  H
  C25      1.0000 0.30450  0.42940  0.91260  Biso   1.000  C
  C26      1.0000 0.32230  0.35670  0.98170  Biso   1.000  C
  H17      1.0000 0.26490  0.36150  0.99170  Biso   1.000  H
  C27      1.0000 0.42560  0.27710  0.03570  Biso   1.000  C
  C28      1.0000 0.51010  0.26890  0.01930  Biso   1.000  C
  H18      1.0000 0.58070  0.21760  0.05660  Biso   1.000  H
  C29      1.0000 0.19660  0.51950  0.85750  Biso   1.000  C
  C30      1.0000 0.44580  0.19970  0.11050  Biso   1.000  C
  C31      1.0000 0.67760  0.17480  0.87270  Biso   1.000  C
  C32      1.0000 0.73010  0.12850  0.78990  Biso   1.000  C
  C33      1.0000 0.74320  0.07790  0.72810  Biso   1.000  C
  H19      1.0000 0.69990  0.00680  0.69370  Biso   1.000  H
  C34      1.0000 0.82360  0.13850  0.72080  Biso   1.000  C
  H20      1.0000 0.83360  0.10830  0.67950  Biso   1.000  H
  C35      1.0000 0.89090  0.24420  0.77340  Biso   1.000  C
  H21      1.0000 0.94560  0.28090  0.76710  Biso   1.000  H
  C36      1.0000 0.87900  0.29460  0.83320  Biso   1.000  C
  H22      1.0000 0.92330  0.36520  0.86780  Biso   1.000  H
  C37      1.0000 0.79620  0.23440  0.84010  Biso   1.000  C
  C38      1.0000 0.91460  0.79270  0.85730  Biso   1.000  C
  H23      1.0000 0.85720  0.72770  0.82610  Biso   1.000  H
  C39      1.0000 0.91420  0.86230  0.91870  Biso   1.000  C
  H24      1.0000 0.85810  0.84340  0.92850  Biso   1.000  H
  C40      1.0000 0.99830  0.96130  0.96630  Biso   1.000  C
  C41      1.0000 0.07720  0.98490  0.94640  Biso   1.000  C
  H25      1.0000 0.13340  0.05110  0.97470  Biso   1.000  H
  C42      1.0000 0.07210  0.90990  0.88450  Biso   1.000  C
  H26      1.0000 0.12660  0.92720  0.87300  Biso   1.000  H
  N7       1.0000 0.65550  0.90780  0.31210  Biso   1.000  N
  N8       1.0000 0.76130  0.73720  0.39230  Biso   1.000  N
  N9       1.0000 0.99310  0.18630  0.34010  Biso   1.000  N
  O9       1.0000 0.11770  0.47560  0.37040  Biso   1.000  O
  O10      1.0000 0.18770  0.41060  0.30040  Biso   1.000  O
  O11      1.0000 0.36010  0.81100  0.61470  Biso   1.000  O
  O12      1.0000 0.54930  0.85430  0.66830  Biso   1.000  O
  S3       1.0000 0.60603  0.83480  0.42215  Biso   1.000  S
  C43      1.0000 0.57670  0.67480  0.42570  Biso   1.000  C
  H27      1.0000 0.65640  0.63290  0.47370  Biso   1.000  H
  H28      1.0000 0.53780  0.63660  0.36550  Biso   1.000  H
  C44      1.0000 0.48930  0.66280  0.44740  Biso   1.000  C
  C45      1.0000 0.38720  0.58240  0.39490  Biso   1.000  C
  H29      1.0000 0.37370  0.53590  0.34740  Biso   1.000  H
  C46      1.0000 0.30450  0.57060  0.41260  Biso   1.000  C
  C47      1.0000 0.32230  0.64330  0.48170  Biso   1.000  C
  H30      1.0000 0.26490  0.63850  0.49170  Biso   1.000  H
  C48      1.0000 0.42560  0.72290  0.53570  Biso   1.000  C
  C49      1.0000 0.51010  0.73110  0.51930  Biso   1.000  C
  H31      1.0000 0.58070  0.78240  0.55660  Biso   1.000  H
  C50      1.0000 0.19660  0.48050  0.35750  Biso   1.000  C
  C51      1.0000 0.44580  0.80030  0.61050  Biso   1.000  C
  C52      1.0000 0.67760  0.82520  0.37270  Biso   1.000  C
  C53      1.0000 0.73010  0.87150  0.28990  Biso   1.000  C
  C54      1.0000 0.74320  0.92210  0.22810  Biso   1.000  C
  H32      1.0000 0.69990  0.99320  0.19370  Biso   1.000  H
  C55      1.0000 0.82360  0.86150  0.22080  Biso   1.000  C
  H33      1.0000 0.83360  0.89170  0.17950  Biso   1.000  H
  C56      1.0000 0.89090  0.75580  0.27340  Biso   1.000  C
  H34      1.0000 0.94560  0.71910  0.26710  Biso   1.000  H
  C57      1.0000 0.87900  0.70540  0.33320  Biso   1.000  C
  H35      1.0000 0.92330  0.63480  0.36780  Biso   1.000  H
  C58      1.0000 0.79620  0.76560  0.34010  Biso   1.000  C
  C59      1.0000 0.91460  0.20730  0.35730  Biso   1.000  C
  H36      1.0000 0.85720  0.27230  0.32610  Biso   1.000  H
  C60      1.0000 0.91420  0.13770  0.41870  Biso   1.000  C
  H37      1.0000 0.85810  0.15660  0.42850  Biso   1.000  H
  C61      1.0000 0.99830  0.03870  0.46630  Biso   1.000  C
  C62      1.0000 0.07720  0.01510  0.44640  Biso   1.000  C
  H38      1.0000 0.13340  0.94890  0.47470  Biso   1.000  H
  C63      1.0000 0.07210  0.09010  0.38450  Biso   1.000  C
  H39      1.0000 0.12660  0.07280  0.37300  Biso   1.000  H
  N10      1.0000 0.34450  0.90780  0.18790  Biso   1.000  N
  N11      1.0000 0.23870  0.73720  0.10770  Biso   1.000  N
  N12      1.0000 0.00690  0.18630  0.15990  Biso   1.000  N
  O13      1.0000 0.88230  0.47560  0.12960  Biso   1.000  O
  O14      1.0000 0.81230  0.41060  0.19960  Biso   1.000  O
  O15      1.0000 0.63990  0.81100  0.88530  Biso   1.000  O
  O16      1.0000 0.45070  0.85430  0.83170  Biso   1.000  O
  S4       1.0000 0.39397  0.83480  0.07785  Biso   1.000  S
  C64      1.0000 0.42330  0.67480  0.07430  Biso   1.000  C
  H40      1.0000 0.34360  0.63290  0.02630  Biso   1.000  H
  H41      1.0000 0.46220  0.63660  0.13450  Biso   1.000  H
  C65      1.0000 0.51070  0.66280  0.05260  Biso   1.000  C
  C66      1.0000 0.61280  0.58240  0.10510  Biso   1.000  C
  H42      1.0000 0.62630  0.53590  0.15260  Biso   1.000  H
  C67      1.0000 0.69550  0.57060  0.08740  Biso   1.000  C
  C68      1.0000 0.67770  0.64330  0.01830  Biso   1.000  C
  H43      1.0000 0.73510  0.63850  0.00830  Biso   1.000  H
  C69      1.0000 0.57440  0.72290  0.96430  Biso   1.000  C
  C70      1.0000 0.48990  0.73110  0.98070  Biso   1.000  C
  H44      1.0000 0.41930  0.78240  0.94340  Biso   1.000  H
  C71      1.0000 0.80340  0.48050  0.14250  Biso   1.000  C
  C72      1.0000 0.55420  0.80030  0.88950  Biso   1.000  C
  C73      1.0000 0.32240  0.82520  0.12730  Biso   1.000  C
  C74      1.0000 0.26990  0.87150  0.21010  Biso   1.000  C
  C75      1.0000 0.25680  0.92210  0.27190  Biso   1.000  C
  H45      1.0000 0.30010  0.99320  0.30630  Biso   1.000  H
  C76      1.0000 0.17640  0.86150  0.27920  Biso   1.000  C
  H46      1.0000 0.16640  0.89170  0.32050  Biso   1.000  H
  C77      1.0000 0.10910  0.75580  0.22660  Biso   1.000  C
  H47      1.0000 0.05440  0.71910  0.23290  Biso   1.000  H
  C78      1.0000 0.12100  0.70540  0.16680  Biso   1.000  C
  H48      1.0000 0.07670  0.63480  0.13220  Biso   1.000  H
  C79      1.0000 0.20380  0.76560  0.15990  Biso   1.000  C
  C80      1.0000 0.08540  0.20730  0.14270  Biso   1.000  C
  H49      1.0000 0.14280  0.27230  0.17390  Biso   1.000  H
  C81      1.0000 0.08580  0.13770  0.08130  Biso   1.000  C
  H50      1.0000 0.14190  0.15660  0.07150  Biso   1.000  H
  C82      1.0000 0.00170  0.03870  0.03370  Biso   1.000  C
  C83      1.0000 0.92280  0.01510  0.05360  Biso   1.000  C
  H51      1.0000 0.86660  0.94890  0.02530  Biso   1.000  H
  C84      1.0000 0.92790  0.09010  0.11550  Biso   1.000  C
  H52      1.0000 0.87340  0.07280  0.12700  Biso   1.000  H
  Cd1      1.0000 1.00000  0.67664  0.75000  Biso   1.000  Cd
  Cd2      1.0000 0.00000  0.32336  0.25000  Biso   1.000  Cd
  Cd3      1.0000 0.50000  0.94745  0.75000  Biso   1.000  Cd
  Cd4      1.0000 0.50000  0.05255  0.25000  Biso   1.000  Cd
