data_WUPNIF_clean
_audit_creation_date              2014-07-02
_audit_creation_method            'Materials Studio'
_symmetry_space_group_name_H-M    'P1'
_symmetry_Int_Tables_number       1
_symmetry_cell_setting            triclinic
loop_
_symmetry_equiv_pos_as_xyz
  x,y,z
_cell_length_a                    11.2622
_cell_length_b                    13.2348
_cell_length_c                    13.2348
_cell_angle_alpha                 101.4880
_cell_angle_beta                  106.7430
_cell_angle_gamma                 73.2566
loop_
_atom_site_label
_atom_site_type_symbol
_atom_site_fract_x
_atom_site_fract_y
_atom_site_fract_z
_atom_site_U_iso_or_equiv
_atom_site_adp_type
_atom_site_occupancy
Na1    Na    0.71190   0.68610   0.35090   0.01267  Uiso   1.00
Na2    Na    0.78810   0.35090   0.68610   0.01267  Uiso   1.00
Na3    Na    0.28810   0.31390   0.64910   0.01267  Uiso   1.00
Na4    Na    0.21190   0.64910   0.31390   0.01267  Uiso   1.00
Na5    Na    0.75000   0.32050   0.32050   0.01267  Uiso   1.00
Na6    Na    0.25000   0.67950   0.67950   0.01267  Uiso   1.00
Zn1    Zn    0.46046   0.86093   0.16779   0.01267  Uiso   1.00
Zn2    Zn    0.03954   0.16779   0.86093   0.01267  Uiso   1.00
Zn3    Zn    0.53954   0.13907   0.83221   0.01267  Uiso   1.00
Zn4    Zn    0.96046   0.83221   0.13907   0.01267  Uiso   1.00
Zn5    Zn    0.25000   0.88753   0.88753   0.01267  Uiso   1.00
Zn6    Zn    0.25000   0.07555   0.07555   0.01267  Uiso   1.00
Zn7    Zn    0.75000   0.11247   0.11247   0.01267  Uiso   1.00
Zn8    Zn    0.75000   0.92445   0.92445   0.01267  Uiso   1.00
Cu1    Cu    0.50000   0.00000  -0.00000   0.01267  Uiso   1.00
Cu2    Cu    0.00000   0.00000   0.00000   0.01267  Uiso   1.00
H1     H     0.12610   0.48280   0.00940   0.01267  Uiso   1.00
H2     H     0.55980   0.45260   0.13720   0.01267  Uiso   1.00
H3     H     0.37390   0.00940   0.48280   0.01267  Uiso   1.00
H4     H     0.94020   0.13720   0.45260   0.01267  Uiso   1.00
H5     H     0.87390   0.51720   0.99060   0.01267  Uiso   1.00
H6     H     0.44020   0.54740   0.86280   0.01267  Uiso   1.00
H7     H     0.62610   0.99060   0.51720   0.01267  Uiso   1.00
H8     H     0.05980   0.86280   0.54740   0.01267  Uiso   1.00
C1     C     0.38830   0.56000   0.10960   0.01267  Uiso   1.00
C2     C     0.25780   0.56910   0.06870   0.01267  Uiso   1.00
C3     C     0.21350   0.47690   0.03550   0.01267  Uiso   1.00
C4     C     0.29550   0.37740   0.04040   0.01267  Uiso   1.00
C5     C     0.42800   0.36840   0.07620   0.01267  Uiso   1.00
C6     C     0.47230   0.45870   0.11150   0.01267  Uiso   1.00
C7     C     0.44400   0.65500   0.14960   0.01267  Uiso   1.00
C8     C     0.15870   0.67260   0.06000   0.01267  Uiso   1.00
C9     C     0.23980   0.28190   0.01570   0.01267  Uiso   1.00
C10    C     0.51990   0.26120   0.06900   0.01267  Uiso   1.00
C11    C     0.11170   0.10960   0.56000   0.01267  Uiso   1.00
C12    C     0.24220   0.06870   0.56910   0.01267  Uiso   1.00
C13    C     0.28650   0.03550   0.47690   0.01267  Uiso   1.00
C14    C     0.20450   0.04040   0.37740   0.01267  Uiso   1.00
C15    C     0.07200   0.07620   0.36840   0.01267  Uiso   1.00
C16    C     0.02770   0.11150   0.45870   0.01267  Uiso   1.00
C17    C     0.05600   0.14960   0.65500   0.01267  Uiso   1.00
C18    C     0.34130   0.06000   0.67260   0.01267  Uiso   1.00
C19    C     0.26020   0.01570   0.28190   0.01267  Uiso   1.00
C20    C     0.98010   0.06900   0.26120   0.01267  Uiso   1.00
C21    C     0.61170   0.44000   0.89040   0.01267  Uiso   1.00
C22    C     0.74220   0.43090   0.93130   0.01267  Uiso   1.00
C23    C     0.78650   0.52310   0.96450   0.01267  Uiso   1.00
C24    C     0.70450   0.62260   0.95960   0.01267  Uiso   1.00
C25    C     0.57200   0.63160   0.92380   0.01267  Uiso   1.00
C26    C     0.52770   0.54130   0.88850   0.01267  Uiso   1.00
C27    C     0.55600   0.34500   0.85040   0.01267  Uiso   1.00
C28    C     0.84130   0.32740   0.94000   0.01267  Uiso   1.00
C29    C     0.76020   0.71810   0.98430   0.01267  Uiso   1.00
C30    C     0.48010   0.73880   0.93100   0.01267  Uiso   1.00
C31    C     0.88830   0.89040   0.44000   0.01267  Uiso   1.00
C32    C     0.75780   0.93130   0.43090   0.01267  Uiso   1.00
C33    C     0.71350   0.96450   0.52310   0.01267  Uiso   1.00
C34    C     0.79550   0.95960   0.62260   0.01267  Uiso   1.00
C35    C     0.92800   0.92380   0.63160   0.01267  Uiso   1.00
C36    C     0.97230   0.88850   0.54130   0.01267  Uiso   1.00
C37    C     0.94400   0.85040   0.34500   0.01267  Uiso   1.00
C38    C     0.65870   0.94000   0.32740   0.01267  Uiso   1.00
C39    C     0.73980   0.98430   0.71810   0.01267  Uiso   1.00
C40    C     0.01990   0.93100   0.73880   0.01267  Uiso   1.00
O1     O     0.55160   0.64410   0.20990   0.01267  Uiso   1.00
O2     O     0.37670   0.74330   0.11850   0.01267  Uiso   1.00
O3     O     0.12520   0.72150   0.14450   0.01267  Uiso   1.00
O4     O     0.10970   0.69930   0.96950   0.01267  Uiso   1.00
O5     O     0.16080   0.27070   0.92850   0.01267  Uiso   1.00
O6     O     0.27510   0.22427   0.08873   0.01267  Uiso   1.00
O7     O     0.48890   0.19060   0.99560   0.01267  Uiso   1.00
O8     O     0.62620   0.24860   0.13760   0.01267  Uiso   1.00
O9     O     0.43780   0.00267   0.12193   0.01267  Uiso   1.00
O10    O     0.31640   0.01573   0.92187   0.01267  Uiso   1.00
O11    O     0.94840   0.20990   0.64410   0.01267  Uiso   1.00
O12    O     0.12330   0.11850   0.74330   0.01267  Uiso   1.00
O13    O     0.37480   0.14450   0.72150   0.01267  Uiso   1.00
O14    O     0.39030   0.96950   0.69930   0.01267  Uiso   1.00
O15    O     0.33920   0.92850   0.27070   0.01267  Uiso   1.00
O16    O     0.22490   0.08873   0.22427   0.01267  Uiso   1.00
O17    O     0.01110   0.99560   0.19060   0.01267  Uiso   1.00
O18    O     0.87380   0.13760   0.24860   0.01267  Uiso   1.00
O19    O     0.06220   0.12193   0.00267   0.01267  Uiso   1.00
O20    O     0.18360   0.92187   0.01573   0.01267  Uiso   1.00
O21    O     0.44840   0.35590   0.79010   0.01267  Uiso   1.00
O22    O     0.62330   0.25670   0.88150   0.01267  Uiso   1.00
O23    O     0.87480   0.27850   0.85550   0.01267  Uiso   1.00
O24    O     0.89030   0.30070   0.03050   0.01267  Uiso   1.00
O25    O     0.83920   0.72930   0.07150   0.01267  Uiso   1.00
O26    O     0.72490   0.77573   0.91127   0.01267  Uiso   1.00
O27    O     0.51110   0.80940   0.00440   0.01267  Uiso   1.00
O28    O     0.37380   0.75140   0.86240   0.01267  Uiso   1.00
O29    O     0.56220   0.99733   0.87807   0.01267  Uiso   1.00
O30    O     0.68360   0.98427   0.07813   0.01267  Uiso   1.00
O31    O     0.05160   0.79010   0.35590   0.01267  Uiso   1.00
O32    O     0.87670   0.88150   0.25670   0.01267  Uiso   1.00
O33    O     0.62520   0.85550   0.27850   0.01267  Uiso   1.00
O34    O     0.60970   0.03050   0.30070   0.01267  Uiso   1.00
O35    O     0.66080   0.07150   0.72930   0.01267  Uiso   1.00
O36    O     0.77510   0.91127   0.77573   0.01267  Uiso   1.00
O37    O     0.98890   0.00440   0.80940   0.01267  Uiso   1.00
O38    O     0.12620   0.86240   0.75140   0.01267  Uiso   1.00
O39    O     0.93780   0.87807   0.99733   0.01267  Uiso   1.00
O40    O     0.81640   0.07813   0.98427   0.01267  Uiso   1.00
