data_image0
_cell_length_a       7.8732
_cell_length_b       9.6571
_cell_length_c       12.1461
_cell_angle_alpha    76.894
_cell_angle_beta     89.325
_cell_angle_gamma    77.575

_symmetry_space_group_name_H-M    "P 1"
_symmetry_int_tables_number       1

loop_
  _symmetry_equiv_pos_as_xyz
  'x, y, z'

loop_
  _atom_site_label
  _atom_site_occupancy
  _atom_site_fract_x
  _atom_site_fract_y
  _atom_site_fract_z
  _atom_site_thermal_displace_type
  _atom_site_B_iso_or_equiv
  _atom_site_type_symbol
  Zn1      1.0000 0.07154  0.13737  0.51608  Biso   1.000  Zn
  Zn2      1.0000 0.66656  0.16372  0.36787  Biso   1.000  Zn
  O1       1.0000 0.83390  0.07703  0.49714  Biso   1.000  O
  O2       1.0000 0.48660  0.96972  0.63700  Biso   1.000  O
  O3       1.0000 0.30440  0.18210  0.55822  Biso   1.000  O
  O4       1.0000 0.61240  0.63520  0.75032  Biso   1.000  O
  O5       1.0000 0.40810  0.63429  0.62543  Biso   1.000  O
  O6       1.0000 0.95810  0.92587  0.30737  Biso   1.000  O
  O7       1.0000 0.80050  0.14915  0.23114  Biso   1.000  O
  C1       1.0000 0.43430  0.10730  0.61810  Biso   1.000  C
  C2       1.0000 0.53850  0.18450  0.67620  Biso   1.000  C
  C3       1.0000 0.66840  0.10500  0.75650  Biso   1.000  C
  H1       1.0000 0.69690  0.00170  0.77000  Biso   1.000  H
  C4       1.0000 0.49780  0.33620  0.65500  Biso   1.000  C
  H2       1.0000 0.41130  0.39090  0.59870  Biso   1.000  H
  C5       1.0000 0.58390  0.40730  0.71610  Biso   1.000  C
  C6       1.0000 0.71220  0.32670  0.79770  Biso   1.000  C
  H3       1.0000 0.76950  0.37570  0.84020  Biso   1.000  H
  C7       1.0000 0.75750  0.17540  0.81770  Biso   1.000  C
  C8       1.0000 0.88830  0.08740  0.90800  Biso   1.000  C
  C9       1.0000 0.85960  0.10290  0.01830  Biso   1.000  C
  H4       1.0000 0.76330  0.17470  0.03140  Biso   1.000  H
  C10      1.0000 0.53530  0.57040  0.69730  Biso   1.000  C
  C11      1.0000 0.96600  0.01760  0.11000  Biso   1.000  C
  C12      1.0000 0.90670  0.03220  0.22640  Biso   1.000  C
  Zn3      1.0000 0.92846  0.86263  0.48392  Biso   1.000  Zn
  Zn4      1.0000 0.33344  0.83628  0.63213  Biso   1.000  Zn
  O8       1.0000 0.16610  0.92297  0.50286  Biso   1.000  O
  O9       1.0000 0.51340  0.03028  0.36300  Biso   1.000  O
  O10      1.0000 0.69560  0.81790  0.44178  Biso   1.000  O
  O11      1.0000 0.38760  0.36480  0.24968  Biso   1.000  O
  O12      1.0000 0.59190  0.36571  0.37457  Biso   1.000  O
  O13      1.0000 0.04190  0.07413  0.69263  Biso   1.000  O
  O14      1.0000 0.19950  0.85085  0.76886  Biso   1.000  O
  C13      1.0000 0.56570  0.89270  0.38190  Biso   1.000  C
  C14      1.0000 0.46150  0.81550  0.32380  Biso   1.000  C
  C15      1.0000 0.33160  0.89500  0.24350  Biso   1.000  C
  H5       1.0000 0.30310  0.99830  0.23000  Biso   1.000  H
  C16      1.0000 0.50220  0.66380  0.34500  Biso   1.000  C
  H6       1.0000 0.58870  0.60910  0.40130  Biso   1.000  H
  C17      1.0000 0.41610  0.59270  0.28390  Biso   1.000  C
  C18      1.0000 0.28780  0.67330  0.20230  Biso   1.000  C
  H7       1.0000 0.23050  0.62430  0.15980  Biso   1.000  H
  C19      1.0000 0.24250  0.82460  0.18230  Biso   1.000  C
  C20      1.0000 0.11170  0.91260  0.09200  Biso   1.000  C
  C21      1.0000 0.14040  0.89710  0.98170  Biso   1.000  C
  H8       1.0000 0.23670  0.82530  0.96860  Biso   1.000  H
  C22      1.0000 0.46470  0.42960  0.30270  Biso   1.000  C
  C23      1.0000 0.03400  0.98240  0.89000  Biso   1.000  C
  C24      1.0000 0.09330  0.96780  0.77360  Biso   1.000  C
