data_image0
_cell_length_a       18.2507
_cell_length_b       18.1651
_cell_length_c       18.8518
_cell_angle_alpha    90
_cell_angle_beta     90
_cell_angle_gamma    90

_symmetry_space_group_name_H-M    "P 1"
_symmetry_int_tables_number       1

loop_
  _symmetry_equiv_pos_as_xyz
  'x, y, z'

loop_
  _atom_site_label
  _atom_site_occupancy
  _atom_site_fract_x
  _atom_site_fract_y
  _atom_site_fract_z
  _atom_site_thermal_displace_type
  _atom_site_B_iso_or_equiv
  _atom_site_type_symbol
  Mn1      1.0000 0.22371  0.69334  0.08938  Biso   1.000  Mn
  Mn2      1.0000 0.22053  0.49140  0.09417  Biso   1.000  Mn
  O1       1.0000 0.23449  0.38399  0.13491  Biso   1.000  O
  O2       1.0000 0.31773  0.52377  0.14579  Biso   1.000  O
  O3       1.0000 0.22958  0.50278  0.48788  Biso   1.000  O
  O4       1.0000 0.64147  0.53542  0.33741  Biso   1.000  O
  O5       1.0000 0.28815  0.40360  0.52109  Biso   1.000  O
  O6       1.0000 0.63283  0.65704  0.34648  Biso   1.000  O
  O7       1.0000 0.27644  0.27736  0.17102  Biso   1.000  O
  O8       1.0000 0.31121  0.64584  0.14813  Biso   1.000  O
  O9       1.0000 0.31620  0.25589  0.29935  Biso   1.000  O
  H1       1.0000 0.31560  0.24760  0.25660  Biso   1.000  H
  O10      1.0000 0.41470  0.72130  0.20040  Biso   1.000  O
  H2       1.0000 0.37580  0.71370  0.18010  Biso   1.000  H
  C1       1.0000 0.25382  0.34154  0.18274  Biso   1.000  C
  C2       1.0000 0.25136  0.36426  0.25903  Biso   1.000  C
  C3       1.0000 0.21670  0.42873  0.27816  Biso   1.000  C
  H3       1.0000 0.19310  0.45650  0.24360  Biso   1.000  H
  C4       1.0000 0.21630  0.45305  0.34828  Biso   1.000  C
  H4       1.0000 0.19300  0.49690  0.36020  Biso   1.000  H
  C5       1.0000 0.25070  0.41174  0.39994  Biso   1.000  C
  C6       1.0000 0.28366  0.34554  0.38221  Biso   1.000  C
  H5       1.0000 0.30580  0.31720  0.41730  Biso   1.000  H
  C7       1.0000 0.28382  0.32117  0.31219  Biso   1.000  C
  C8       1.0000 0.25542  0.44009  0.47402  Biso   1.000  C
  C9       1.0000 0.34118  0.58561  0.16266  Biso   1.000  C
  C10      1.0000 0.41220  0.58928  0.20365  Biso   1.000  C
  C11      1.0000 0.44540  0.52470  0.22660  Biso   1.000  C
  H6       1.0000 0.42400  0.47950  0.21620  Biso   1.000  H
  C12      1.0000 0.50990  0.52706  0.26460  Biso   1.000  C
  H7       1.0000 0.53170  0.48350  0.27960  Biso   1.000  H
  C13      1.0000 0.54238  0.59439  0.28078  Biso   1.000  C
  C14      1.0000 0.51002  0.65840  0.25786  Biso   1.000  C
  H8       1.0000 0.53170  0.70350  0.26810  Biso   1.000  H
  C15      1.0000 0.44510  0.65631  0.21948  Biso   1.000  C
  C16      1.0000 0.61145  0.59602  0.32482  Biso   1.000  C
  Mn3      1.0000 0.27629  0.30666  0.58938  Biso   1.000  Mn
  Mn4      1.0000 0.27947  0.50860  0.59417  Biso   1.000  Mn
  O11      1.0000 0.26551  0.61601  0.63491  Biso   1.000  O
  O12      1.0000 0.18227  0.47623  0.64579  Biso   1.000  O
  O13      1.0000 0.27042  0.49722  0.98788  Biso   1.000  O
  O14      1.0000 0.85853  0.46458  0.83741  Biso   1.000  O
  O15      1.0000 0.21185  0.59640  0.02109  Biso   1.000  O
  O16      1.0000 0.86717  0.34296  0.84648  Biso   1.000  O
  O17      1.0000 0.22356  0.72264  0.67102  Biso   1.000  O
  O18      1.0000 0.18879  0.35416  0.64813  Biso   1.000  O
  O19      1.0000 0.18380  0.74411  0.79935  Biso   1.000  O
  H9       1.0000 0.18440  0.75240  0.75660  Biso   1.000  H
  O20      1.0000 0.08530  0.27870  0.70040  Biso   1.000  O
  H10      1.0000 0.12420  0.28630  0.68010  Biso   1.000  H
  C17      1.0000 0.24618  0.65846  0.68274  Biso   1.000  C
  C18      1.0000 0.24864  0.63574  0.75903  Biso   1.000  C
  C19      1.0000 0.28330  0.57127  0.77816  Biso   1.000  C
  H11      1.0000 0.30690  0.54350  0.74360  Biso   1.000  H
  C20      1.0000 0.28370  0.54695  0.84828  Biso   1.000  C
  H12      1.0000 0.30700  0.50310  0.86020  Biso   1.000  H
  C21      1.0000 0.24930  0.58826  0.89994  Biso   1.000  C
  C22      1.0000 0.21634  0.65446  0.88221  Biso   1.000  C
  H13      1.0000 0.19420  0.68280  0.91730  Biso   1.000  H
  C23      1.0000 0.21618  0.67883  0.81219  Biso   1.000  C
  C24      1.0000 0.24458  0.55991  0.97402  Biso   1.000  C
  C25      1.0000 0.15882  0.41439  0.66266  Biso   1.000  C
  C26      1.0000 0.08780  0.41072  0.70365  Biso   1.000  C
  C27      1.0000 0.05460  0.47530  0.72660  Biso   1.000  C
  H14      1.0000 0.07600  0.52050  0.71620  Biso   1.000  H
  C28      1.0000 0.99010  0.47294  0.76460  Biso   1.000  C
  H15      1.0000 0.96830  0.51650  0.77960  Biso   1.000  H
  C29      1.0000 0.95762  0.40561  0.78078  Biso   1.000  C
  C30      1.0000 0.98998  0.34160  0.75786  Biso   1.000  C
  H16      1.0000 0.96830  0.29650  0.76810  Biso   1.000  H
  C31      1.0000 0.05490  0.34369  0.71948  Biso   1.000  C
  C32      1.0000 0.88855  0.40398  0.82482  Biso   1.000  C
  Mn5      1.0000 0.77629  0.19334  0.41062  Biso   1.000  Mn
  Mn6      1.0000 0.77947  0.99140  0.40583  Biso   1.000  Mn
  O21      1.0000 0.76551  0.88399  0.36509  Biso   1.000  O
  O22      1.0000 0.68227  0.02377  0.35421  Biso   1.000  O
  O23      1.0000 0.77042  0.00278  0.01212  Biso   1.000  O
  O24      1.0000 0.35853  0.03542  0.16259  Biso   1.000  O
  O25      1.0000 0.71185  0.90360  0.97891  Biso   1.000  O
  O26      1.0000 0.36717  0.15704  0.15352  Biso   1.000  O
  O27      1.0000 0.72356  0.77736  0.32898  Biso   1.000  O
  O28      1.0000 0.68879  0.14584  0.35187  Biso   1.000  O
  O29      1.0000 0.68380  0.75589  0.20065  Biso   1.000  O
  H17      1.0000 0.68440  0.74760  0.24340  Biso   1.000  H
  O30      1.0000 0.58530  0.22130  0.29960  Biso   1.000  O
  H18      1.0000 0.62420  0.21370  0.31990  Biso   1.000  H
  C33      1.0000 0.74618  0.84154  0.31726  Biso   1.000  C
  C34      1.0000 0.74864  0.86426  0.24097  Biso   1.000  C
  C35      1.0000 0.78330  0.92873  0.22184  Biso   1.000  C
  H19      1.0000 0.80690  0.95650  0.25640  Biso   1.000  H
  C36      1.0000 0.78370  0.95305  0.15172  Biso   1.000  C
  H20      1.0000 0.80700  0.99690  0.13980  Biso   1.000  H
  C37      1.0000 0.74930  0.91174  0.10006  Biso   1.000  C
  C38      1.0000 0.71634  0.84554  0.11779  Biso   1.000  C
  H21      1.0000 0.69420  0.81720  0.08270  Biso   1.000  H
  C39      1.0000 0.71618  0.82117  0.18781  Biso   1.000  C
  C40      1.0000 0.74458  0.94009  0.02598  Biso   1.000  C
  C41      1.0000 0.65882  0.08561  0.33734  Biso   1.000  C
  C42      1.0000 0.58780  0.08928  0.29635  Biso   1.000  C
  C43      1.0000 0.55460  0.02470  0.27340  Biso   1.000  C
  H22      1.0000 0.57600  0.97950  0.28380  Biso   1.000  H
  C44      1.0000 0.49010  0.02706  0.23540  Biso   1.000  C
  H23      1.0000 0.46830  0.98350  0.22040  Biso   1.000  H
  C45      1.0000 0.45762  0.09439  0.21922  Biso   1.000  C
  C46      1.0000 0.48998  0.15840  0.24214  Biso   1.000  C
  H24      1.0000 0.46830  0.20350  0.23190  Biso   1.000  H
  C47      1.0000 0.55490  0.15631  0.28052  Biso   1.000  C
  C48      1.0000 0.38855  0.09602  0.17518  Biso   1.000  C
  Mn7      1.0000 0.72371  0.80666  0.91062  Biso   1.000  Mn
  Mn8      1.0000 0.72053  0.00860  0.90583  Biso   1.000  Mn
  O31      1.0000 0.73449  0.11601  0.86509  Biso   1.000  O
  O32      1.0000 0.81773  0.97623  0.85421  Biso   1.000  O
  O33      1.0000 0.72958  0.99722  0.51212  Biso   1.000  O
  O34      1.0000 0.14147  0.96458  0.66259  Biso   1.000  O
  O35      1.0000 0.78815  0.09640  0.47891  Biso   1.000  O
  O36      1.0000 0.13283  0.84296  0.65352  Biso   1.000  O
  O37      1.0000 0.77644  0.22264  0.82898  Biso   1.000  O
  O38      1.0000 0.81121  0.85416  0.85187  Biso   1.000  O
  O39      1.0000 0.81620  0.24411  0.70065  Biso   1.000  O
  H25      1.0000 0.81560  0.25240  0.74340  Biso   1.000  H
  O40      1.0000 0.91470  0.77870  0.79960  Biso   1.000  O
  H26      1.0000 0.87580  0.78630  0.81990  Biso   1.000  H
  C49      1.0000 0.75382  0.15846  0.81726  Biso   1.000  C
  C50      1.0000 0.75136  0.13574  0.74097  Biso   1.000  C
  C51      1.0000 0.71670  0.07127  0.72184  Biso   1.000  C
  H27      1.0000 0.69310  0.04350  0.75640  Biso   1.000  H
  C52      1.0000 0.71630  0.04695  0.65172  Biso   1.000  C
  H28      1.0000 0.69300  0.00310  0.63980  Biso   1.000  H
  C53      1.0000 0.75070  0.08826  0.60006  Biso   1.000  C
  C54      1.0000 0.78366  0.15446  0.61779  Biso   1.000  C
  H29      1.0000 0.80580  0.18280  0.58270  Biso   1.000  H
  C55      1.0000 0.78382  0.17883  0.68781  Biso   1.000  C
  C56      1.0000 0.75542  0.05991  0.52598  Biso   1.000  C
  C57      1.0000 0.84118  0.91439  0.83734  Biso   1.000  C
  C58      1.0000 0.91220  0.91072  0.79635  Biso   1.000  C
  C59      1.0000 0.94540  0.97530  0.77340  Biso   1.000  C
  H30      1.0000 0.92400  0.02050  0.78380  Biso   1.000  H
  C60      1.0000 0.00990  0.97294  0.73540  Biso   1.000  C
  H31      1.0000 0.03170  0.01650  0.72040  Biso   1.000  H
  C61      1.0000 0.04238  0.90561  0.71922  Biso   1.000  C
  C62      1.0000 0.01002  0.84160  0.74214  Biso   1.000  C
  H32      1.0000 0.03170  0.79650  0.73190  Biso   1.000  H
  C63      1.0000 0.94510  0.84369  0.78052  Biso   1.000  C
  C64      1.0000 0.11145  0.90398  0.67518  Biso   1.000  C
  Mn9      1.0000 0.77629  0.30666  0.91062  Biso   1.000  Mn
  Mn10     1.0000 0.77947  0.50860  0.90583  Biso   1.000  Mn
  O41      1.0000 0.76551  0.61601  0.86509  Biso   1.000  O
  O42      1.0000 0.68227  0.47623  0.85421  Biso   1.000  O
  O43      1.0000 0.77042  0.49722  0.51212  Biso   1.000  O
  O44      1.0000 0.35853  0.46458  0.66259  Biso   1.000  O
  O45      1.0000 0.71185  0.59640  0.47891  Biso   1.000  O
  O46      1.0000 0.36717  0.34296  0.65352  Biso   1.000  O
  O47      1.0000 0.72356  0.72264  0.82898  Biso   1.000  O
  O48      1.0000 0.68879  0.35416  0.85187  Biso   1.000  O
  O49      1.0000 0.68380  0.74411  0.70065  Biso   1.000  O
  H33      1.0000 0.68440  0.75240  0.74340  Biso   1.000  H
  O50      1.0000 0.58530  0.27870  0.79960  Biso   1.000  O
  H34      1.0000 0.62420  0.28630  0.81990  Biso   1.000  H
  C65      1.0000 0.74618  0.65846  0.81726  Biso   1.000  C
  C66      1.0000 0.74864  0.63574  0.74097  Biso   1.000  C
  C67      1.0000 0.78330  0.57127  0.72184  Biso   1.000  C
  H35      1.0000 0.80690  0.54350  0.75640  Biso   1.000  H
  C68      1.0000 0.78370  0.54695  0.65172  Biso   1.000  C
  H36      1.0000 0.80700  0.50310  0.63980  Biso   1.000  H
  C69      1.0000 0.74930  0.58826  0.60006  Biso   1.000  C
  C70      1.0000 0.71634  0.65446  0.61779  Biso   1.000  C
  H37      1.0000 0.69420  0.68280  0.58270  Biso   1.000  H
  C71      1.0000 0.71618  0.67883  0.68781  Biso   1.000  C
  C72      1.0000 0.74458  0.55991  0.52598  Biso   1.000  C
  C73      1.0000 0.65882  0.41439  0.83734  Biso   1.000  C
  C74      1.0000 0.58780  0.41072  0.79635  Biso   1.000  C
  C75      1.0000 0.55460  0.47530  0.77340  Biso   1.000  C
  H38      1.0000 0.57600  0.52050  0.78380  Biso   1.000  H
  C76      1.0000 0.49010  0.47294  0.73540  Biso   1.000  C
  H39      1.0000 0.46830  0.51650  0.72040  Biso   1.000  H
  C77      1.0000 0.45762  0.40561  0.71922  Biso   1.000  C
  C78      1.0000 0.48998  0.34160  0.74214  Biso   1.000  C
  H40      1.0000 0.46830  0.29650  0.73190  Biso   1.000  H
  C79      1.0000 0.55490  0.34369  0.78052  Biso   1.000  C
  C80      1.0000 0.38855  0.40398  0.67518  Biso   1.000  C
  Mn11     1.0000 0.72371  0.69334  0.41062  Biso   1.000  Mn
  Mn12     1.0000 0.72053  0.49140  0.40583  Biso   1.000  Mn
  O51      1.0000 0.73449  0.38399  0.36509  Biso   1.000  O
  O52      1.0000 0.81773  0.52377  0.35421  Biso   1.000  O
  O53      1.0000 0.72958  0.50278  0.01212  Biso   1.000  O
  O54      1.0000 0.14147  0.53542  0.16259  Biso   1.000  O
  O55      1.0000 0.78815  0.40360  0.97891  Biso   1.000  O
  O56      1.0000 0.13283  0.65704  0.15352  Biso   1.000  O
  O57      1.0000 0.77644  0.27736  0.32898  Biso   1.000  O
  O58      1.0000 0.81121  0.64584  0.35187  Biso   1.000  O
  O59      1.0000 0.81620  0.25589  0.20065  Biso   1.000  O
  H41      1.0000 0.81560  0.24760  0.24340  Biso   1.000  H
  O60      1.0000 0.91470  0.72130  0.29960  Biso   1.000  O
  H42      1.0000 0.87580  0.71370  0.31990  Biso   1.000  H
  C81      1.0000 0.75382  0.34154  0.31726  Biso   1.000  C
  C82      1.0000 0.75136  0.36426  0.24097  Biso   1.000  C
  C83      1.0000 0.71670  0.42873  0.22184  Biso   1.000  C
  H43      1.0000 0.69310  0.45650  0.25640  Biso   1.000  H
  C84      1.0000 0.71630  0.45305  0.15172  Biso   1.000  C
  H44      1.0000 0.69300  0.49690  0.13980  Biso   1.000  H
  C85      1.0000 0.75070  0.41174  0.10006  Biso   1.000  C
  C86      1.0000 0.78366  0.34554  0.11779  Biso   1.000  C
  H45      1.0000 0.80580  0.31720  0.08270  Biso   1.000  H
  C87      1.0000 0.78382  0.32117  0.18781  Biso   1.000  C
  C88      1.0000 0.75542  0.44009  0.02598  Biso   1.000  C
  C89      1.0000 0.84118  0.58561  0.33734  Biso   1.000  C
  C90      1.0000 0.91220  0.58928  0.29635  Biso   1.000  C
  C91      1.0000 0.94540  0.52470  0.27340  Biso   1.000  C
  H46      1.0000 0.92400  0.47950  0.28380  Biso   1.000  H
  C92      1.0000 0.00990  0.52706  0.23540  Biso   1.000  C
  H47      1.0000 0.03170  0.48350  0.22040  Biso   1.000  H
  C93      1.0000 0.04238  0.59439  0.21922  Biso   1.000  C
  C94      1.0000 0.01002  0.65840  0.24214  Biso   1.000  C
  H48      1.0000 0.03170  0.70350  0.23190  Biso   1.000  H
  C95      1.0000 0.94510  0.65631  0.28052  Biso   1.000  C
  C96      1.0000 0.11145  0.59602  0.17518  Biso   1.000  C
  Mn13     1.0000 0.22371  0.80666  0.58938  Biso   1.000  Mn
  Mn14     1.0000 0.22053  0.00860  0.59417  Biso   1.000  Mn
  O61      1.0000 0.23449  0.11601  0.63491  Biso   1.000  O
  O62      1.0000 0.31773  0.97623  0.64579  Biso   1.000  O
  O63      1.0000 0.22958  0.99722  0.98788  Biso   1.000  O
  O64      1.0000 0.64147  0.96458  0.83741  Biso   1.000  O
  O65      1.0000 0.28815  0.09640  0.02109  Biso   1.000  O
  O66      1.0000 0.63283  0.84296  0.84648  Biso   1.000  O
  O67      1.0000 0.27644  0.22264  0.67102  Biso   1.000  O
  O68      1.0000 0.31121  0.85416  0.64813  Biso   1.000  O
  O69      1.0000 0.31620  0.24411  0.79935  Biso   1.000  O
  H49      1.0000 0.31560  0.25240  0.75660  Biso   1.000  H
  O70      1.0000 0.41470  0.77870  0.70040  Biso   1.000  O
  H50      1.0000 0.37580  0.78630  0.68010  Biso   1.000  H
  C97      1.0000 0.25382  0.15846  0.68274  Biso   1.000  C
  C98      1.0000 0.25136  0.13574  0.75903  Biso   1.000  C
  C99      1.0000 0.21670  0.07127  0.77816  Biso   1.000  C
  H51      1.0000 0.19310  0.04350  0.74360  Biso   1.000  H
  C100     1.0000 0.21630  0.04695  0.84828  Biso   1.000  C
  H52      1.0000 0.19300  0.00310  0.86020  Biso   1.000  H
  C101     1.0000 0.25070  0.08826  0.89994  Biso   1.000  C
  C102     1.0000 0.28366  0.15446  0.88221  Biso   1.000  C
  H53      1.0000 0.30580  0.18280  0.91730  Biso   1.000  H
  C103     1.0000 0.28382  0.17883  0.81219  Biso   1.000  C
  C104     1.0000 0.25542  0.05991  0.97402  Biso   1.000  C
  C105     1.0000 0.34118  0.91439  0.66266  Biso   1.000  C
  C106     1.0000 0.41220  0.91072  0.70365  Biso   1.000  C
  C107     1.0000 0.44540  0.97530  0.72660  Biso   1.000  C
  H54      1.0000 0.42400  0.02050  0.71620  Biso   1.000  H
  C108     1.0000 0.50990  0.97294  0.76460  Biso   1.000  C
  H55      1.0000 0.53170  0.01650  0.77960  Biso   1.000  H
  C109     1.0000 0.54238  0.90561  0.78078  Biso   1.000  C
  C110     1.0000 0.51002  0.84160  0.75786  Biso   1.000  C
  H56      1.0000 0.53170  0.79650  0.76810  Biso   1.000  H
  C111     1.0000 0.44510  0.84369  0.71948  Biso   1.000  C
  C112     1.0000 0.61145  0.90398  0.82482  Biso   1.000  C
  Mn15     1.0000 0.27629  0.19334  0.08938  Biso   1.000  Mn
  Mn16     1.0000 0.27947  0.99140  0.09417  Biso   1.000  Mn
  O71      1.0000 0.26551  0.88399  0.13491  Biso   1.000  O
  O72      1.0000 0.18227  0.02377  0.14579  Biso   1.000  O
  O73      1.0000 0.27042  0.00278  0.48788  Biso   1.000  O
  O74      1.0000 0.85853  0.03542  0.33741  Biso   1.000  O
  O75      1.0000 0.21185  0.90360  0.52109  Biso   1.000  O
  O76      1.0000 0.86717  0.15704  0.34648  Biso   1.000  O
  O77      1.0000 0.22356  0.77736  0.17102  Biso   1.000  O
  O78      1.0000 0.18879  0.14584  0.14813  Biso   1.000  O
  O79      1.0000 0.18380  0.75589  0.29935  Biso   1.000  O
  H57      1.0000 0.18440  0.74760  0.25660  Biso   1.000  H
  O80      1.0000 0.08530  0.22130  0.20040  Biso   1.000  O
  H58      1.0000 0.12420  0.21370  0.18010  Biso   1.000  H
  C113     1.0000 0.24618  0.84154  0.18274  Biso   1.000  C
  C114     1.0000 0.24864  0.86426  0.25903  Biso   1.000  C
  C115     1.0000 0.28330  0.92873  0.27816  Biso   1.000  C
  H59      1.0000 0.30690  0.95650  0.24360  Biso   1.000  H
  C116     1.0000 0.28370  0.95305  0.34828  Biso   1.000  C
  H60      1.0000 0.30700  0.99690  0.36020  Biso   1.000  H
  C117     1.0000 0.24930  0.91174  0.39994  Biso   1.000  C
  C118     1.0000 0.21634  0.84554  0.38221  Biso   1.000  C
  H61      1.0000 0.19420  0.81720  0.41730  Biso   1.000  H
  C119     1.0000 0.21618  0.82117  0.31219  Biso   1.000  C
  C120     1.0000 0.24458  0.94009  0.47402  Biso   1.000  C
  C121     1.0000 0.15882  0.08561  0.16266  Biso   1.000  C
  C122     1.0000 0.08780  0.08928  0.20365  Biso   1.000  C
  C123     1.0000 0.05460  0.02470  0.22660  Biso   1.000  C
  H62      1.0000 0.07600  0.97950  0.21620  Biso   1.000  H
  C124     1.0000 0.99010  0.02706  0.26460  Biso   1.000  C
  H63      1.0000 0.96830  0.98350  0.27960  Biso   1.000  H
  C125     1.0000 0.95762  0.09439  0.28078  Biso   1.000  C
  C126     1.0000 0.98998  0.15840  0.25786  Biso   1.000  C
  H64      1.0000 0.96830  0.20350  0.26810  Biso   1.000  H
  C127     1.0000 0.05490  0.15631  0.21948  Biso   1.000  C
  C128     1.0000 0.88855  0.09602  0.32482  Biso   1.000  C
