data_image0
_cell_length_a       8.8946
_cell_length_b       9.8125
_cell_length_c       12.2507
_cell_angle_alpha    81.742
_cell_angle_beta     71.831
_cell_angle_gamma    72.827

_symmetry_space_group_name_H-M    "P 1"
_symmetry_int_tables_number       1

loop_
  _symmetry_equiv_pos_as_xyz
  'x, y, z'

loop_
  _atom_site_label
  _atom_site_occupancy
  _atom_site_fract_x
  _atom_site_fract_y
  _atom_site_fract_z
  _atom_site_thermal_displace_type
  _atom_site_B_iso_or_equiv
  _atom_site_type_symbol
  Mn1      1.0000 0.93886  0.34054  0.71726  Biso   1.000  Mn
  Mn2      1.0000 0.40124  0.95431  0.92639  Biso   1.000  Mn
  P1       1.0000 0.68817  0.11332  0.77624  Biso   1.000  P
  P2       1.0000 0.71856  0.66904  0.81466  Biso   1.000  P
  O1       1.0000 0.82230  0.17310  0.78630  Biso   1.000  O
  O2       1.0000 0.74620  0.00890  0.68170  Biso   1.000  O
  O3       1.0000 0.60840  0.04520  0.89290  Biso   1.000  O
  O4       1.0000 0.55100  0.24020  0.74030  Biso   1.000  O
  H1       1.0000 0.51180  0.29920  0.78970  Biso   1.000  H
  O5       1.0000 0.74040  0.51390  0.79720  Biso   1.000  O
  O6       1.0000 0.54860  0.74250  0.88650  Biso   1.000  O
  O7       1.0000 0.76150  0.74640  0.69340  Biso   1.000  O
  H2       1.0000 0.74030  0.83250  0.70020  Biso   1.000  H
  O8       1.0000 0.85020  0.67520  0.87390  Biso   1.000  O
  H3       1.0000 0.80570  0.72730  0.92800  Biso   1.000  H
  O9       1.0000 0.88800  0.37330  0.55220  Biso   1.000  O
  O10      1.0000 0.91780  0.50700  0.38660  Biso   1.000  O
  O11      1.0000 0.35140  0.01290  0.75960  Biso   1.000  O
  O12      1.0000 0.17890  0.16650  0.67270  Biso   1.000  O
  O13      1.0000 0.23170  0.17830  0.94130  Biso   1.000  O
  O14      1.0000 0.05860  0.33000  0.85340  Biso   1.000  O
  C1       1.0000 0.94350  0.46560  0.48250  Biso   1.000  C
  C2       1.0000 0.24050  0.12390  0.75420  Biso   1.000  C
  C3       1.0000 0.16960  0.22040  0.86070  Biso   1.000  C
  Mn3      1.0000 0.06114  0.65946  0.28274  Biso   1.000  Mn
  Mn4      1.0000 0.59876  0.04569  0.07361  Biso   1.000  Mn
  P3       1.0000 0.31183  0.88668  0.22376  Biso   1.000  P
  P4       1.0000 0.28144  0.33096  0.18534  Biso   1.000  P
  O15      1.0000 0.17770  0.82690  0.21370  Biso   1.000  O
  O16      1.0000 0.25380  0.99110  0.31830  Biso   1.000  O
  O17      1.0000 0.39160  0.95480  0.10710  Biso   1.000  O
  O18      1.0000 0.44900  0.75980  0.25970  Biso   1.000  O
  H4       1.0000 0.48820  0.70080  0.21030  Biso   1.000  H
  O19      1.0000 0.25960  0.48610  0.20280  Biso   1.000  O
  O20      1.0000 0.45140  0.25750  0.11350  Biso   1.000  O
  O21      1.0000 0.23850  0.25360  0.30660  Biso   1.000  O
  H5       1.0000 0.25970  0.16750  0.29980  Biso   1.000  H
  O22      1.0000 0.14980  0.32480  0.12610  Biso   1.000  O
  H6       1.0000 0.19430  0.27270  0.07200  Biso   1.000  H
  O23      1.0000 0.11200  0.62670  0.44780  Biso   1.000  O
  O24      1.0000 0.08220  0.49300  0.61340  Biso   1.000  O
  O25      1.0000 0.64860  0.98710  0.24040  Biso   1.000  O
  O26      1.0000 0.82110  0.83350  0.32730  Biso   1.000  O
  O27      1.0000 0.76830  0.82170  0.05870  Biso   1.000  O
  O28      1.0000 0.94140  0.67000  0.14660  Biso   1.000  O
  C4       1.0000 0.05650  0.53440  0.51750  Biso   1.000  C
  C5       1.0000 0.75950  0.87610  0.24580  Biso   1.000  C
  C6       1.0000 0.83040  0.77960  0.13930  Biso   1.000  C
