data_image0
_cell_length_a       15.368
_cell_length_b       11.4122
_cell_length_c       22.2812
_cell_angle_alpha    90
_cell_angle_beta     101.847
_cell_angle_gamma    90

_symmetry_space_group_name_H-M    "P 1"
_symmetry_int_tables_number       1

loop_
  _symmetry_equiv_pos_as_xyz
  'x, y, z'

loop_
  _atom_site_label
  _atom_site_occupancy
  _atom_site_fract_x
  _atom_site_fract_y
  _atom_site_fract_z
  _atom_site_thermal_displace_type
  _atom_site_B_iso_or_equiv
  _atom_site_type_symbol
  Mn1      1.0000 0.52496  0.47393  0.42878  Biso   1.000  Mn
  Mn2      1.0000 0.64519  0.01612  0.37964  Biso   1.000  Mn
  P1       1.0000 0.61933  0.73892  0.42569  Biso   1.000  P
  O1       1.0000 0.55494  0.64230  0.40534  Biso   1.000  O
  O2       1.0000 0.60022  0.84420  0.38610  Biso   1.000  O
  O3       1.0000 0.71480  0.69400  0.42374  Biso   1.000  O
  H1       1.0000 0.74960  0.71500  0.45490  Biso   1.000  H
  O4       1.0000 0.62763  0.76880  0.49542  Biso   1.000  O
  H2       1.0000 0.57800  0.78000  0.50250  Biso   1.000  H
  O5       1.0000 0.56320  0.01700  0.29283  Biso   1.000  O
  O6       1.0000 0.45440  0.17290  0.29027  Biso   1.000  O
  H3       1.0000 0.43940  0.23400  0.27160  Biso   1.000  H
  O7       1.0000 0.41162  0.50790  0.47448  Biso   1.000  O
  O8       1.0000 0.26312  0.50830  0.45713  Biso   1.000  O
  O9       1.0000 0.40658  0.47300  0.35526  Biso   1.000  O
  O10      1.0000 0.25869  0.48360  0.33606  Biso   1.000  O
  O11      1.0000 0.50442  0.28270  0.44857  Biso   1.000  O
  O12      1.0000 0.55510  0.10540  0.42975  Biso   1.000  O
  O13      1.0000 0.61523  0.38260  0.38458  Biso   1.000  O
  O14      1.0000 0.67577  0.20910  0.37401  Biso   1.000  O
  C1       1.0000 0.33490  0.50150  0.44062  Biso   1.000  C
  C2       1.0000 0.33270  0.48400  0.37087  Biso   1.000  C
  C3       1.0000 0.55340  0.21390  0.42603  Biso   1.000  C
  C4       1.0000 0.62040  0.27300  0.39181  Biso   1.000  C
  Mn3      1.0000 0.02496  0.97393  0.42878  Biso   1.000  Mn
  Mn4      1.0000 0.14519  0.51612  0.37964  Biso   1.000  Mn
  P2       1.0000 0.11933  0.23892  0.42569  Biso   1.000  P
  O15      1.0000 0.05494  0.14230  0.40534  Biso   1.000  O
  O16      1.0000 0.10022  0.34420  0.38610  Biso   1.000  O
  O17      1.0000 0.21480  0.19400  0.42374  Biso   1.000  O
  H4       1.0000 0.24960  0.21500  0.45490  Biso   1.000  H
  O18      1.0000 0.12763  0.26880  0.49542  Biso   1.000  O
  H5       1.0000 0.07800  0.28000  0.50250  Biso   1.000  H
  O19      1.0000 0.06320  0.51700  0.29283  Biso   1.000  O
  O20      1.0000 0.95440  0.67290  0.29027  Biso   1.000  O
  H6       1.0000 0.93940  0.73400  0.27160  Biso   1.000  H
  O21      1.0000 0.91162  0.00790  0.47448  Biso   1.000  O
  O22      1.0000 0.76312  0.00830  0.45713  Biso   1.000  O
  O23      1.0000 0.90658  0.97300  0.35526  Biso   1.000  O
  O24      1.0000 0.75869  0.98360  0.33606  Biso   1.000  O
  O25      1.0000 0.00442  0.78270  0.44857  Biso   1.000  O
  O26      1.0000 0.05510  0.60540  0.42975  Biso   1.000  O
  O27      1.0000 0.11523  0.88260  0.38458  Biso   1.000  O
  O28      1.0000 0.17577  0.70910  0.37401  Biso   1.000  O
  C5       1.0000 0.83490  0.00150  0.44062  Biso   1.000  C
  C6       1.0000 0.83270  0.98400  0.37087  Biso   1.000  C
  C7       1.0000 0.05340  0.71390  0.42603  Biso   1.000  C
  C8       1.0000 0.12040  0.77300  0.39181  Biso   1.000  C
  Mn5      1.0000 0.47504  0.47393  0.07122  Biso   1.000  Mn
  Mn6      1.0000 0.35481  0.01612  0.12036  Biso   1.000  Mn
  P3       1.0000 0.38067  0.73892  0.07431  Biso   1.000  P
  O29      1.0000 0.44506  0.64230  0.09466  Biso   1.000  O
  O30      1.0000 0.39978  0.84420  0.11390  Biso   1.000  O
  O31      1.0000 0.28520  0.69400  0.07626  Biso   1.000  O
  H7       1.0000 0.25040  0.71500  0.04510  Biso   1.000  H
  O32      1.0000 0.37237  0.76880  0.00458  Biso   1.000  O
  H8       1.0000 0.42200  0.78000  0.99750  Biso   1.000  H
  O33      1.0000 0.43680  0.01700  0.20717  Biso   1.000  O
  O34      1.0000 0.54560  0.17290  0.20973  Biso   1.000  O
  H9       1.0000 0.56060  0.23400  0.22840  Biso   1.000  H
  O35      1.0000 0.58838  0.50790  0.02552  Biso   1.000  O
  O36      1.0000 0.73688  0.50830  0.04287  Biso   1.000  O
  O37      1.0000 0.59342  0.47300  0.14474  Biso   1.000  O
  O38      1.0000 0.74131  0.48360  0.16394  Biso   1.000  O
  O39      1.0000 0.49558  0.28270  0.05143  Biso   1.000  O
  O40      1.0000 0.44490  0.10540  0.07025  Biso   1.000  O
  O41      1.0000 0.38477  0.38260  0.11542  Biso   1.000  O
  O42      1.0000 0.32423  0.20910  0.12599  Biso   1.000  O
  C9       1.0000 0.66510  0.50150  0.05938  Biso   1.000  C
  C10      1.0000 0.66730  0.48400  0.12913  Biso   1.000  C
  C11      1.0000 0.44660  0.21390  0.07397  Biso   1.000  C
  C12      1.0000 0.37960  0.27300  0.10819  Biso   1.000  C
  Mn7      1.0000 0.97504  0.97393  0.07122  Biso   1.000  Mn
  Mn8      1.0000 0.85481  0.51612  0.12036  Biso   1.000  Mn
  P4       1.0000 0.88067  0.23892  0.07431  Biso   1.000  P
  O43      1.0000 0.94506  0.14230  0.09466  Biso   1.000  O
  O44      1.0000 0.89978  0.34420  0.11390  Biso   1.000  O
  O45      1.0000 0.78520  0.19400  0.07626  Biso   1.000  O
  H10      1.0000 0.75040  0.21500  0.04510  Biso   1.000  H
  O46      1.0000 0.87237  0.26880  0.00458  Biso   1.000  O
  H11      1.0000 0.92200  0.28000  0.99750  Biso   1.000  H
  O47      1.0000 0.93680  0.51700  0.20717  Biso   1.000  O
  O48      1.0000 0.04560  0.67290  0.20973  Biso   1.000  O
  H12      1.0000 0.06060  0.73400  0.22840  Biso   1.000  H
  O49      1.0000 0.08838  0.00790  0.02552  Biso   1.000  O
  O50      1.0000 0.23688  0.00830  0.04287  Biso   1.000  O
  O51      1.0000 0.09342  0.97300  0.14474  Biso   1.000  O
  O52      1.0000 0.24131  0.98360  0.16394  Biso   1.000  O
  O53      1.0000 0.99558  0.78270  0.05143  Biso   1.000  O
  O54      1.0000 0.94490  0.60540  0.07025  Biso   1.000  O
  O55      1.0000 0.88477  0.88260  0.11542  Biso   1.000  O
  O56      1.0000 0.82423  0.70910  0.12599  Biso   1.000  O
  C13      1.0000 0.16510  0.00150  0.05938  Biso   1.000  C
  C14      1.0000 0.16730  0.98400  0.12913  Biso   1.000  C
  C15      1.0000 0.94660  0.71390  0.07397  Biso   1.000  C
  C16      1.0000 0.87960  0.77300  0.10819  Biso   1.000  C
  Mn9      1.0000 0.47504  0.52607  0.57122  Biso   1.000  Mn
  Mn10     1.0000 0.35481  0.98388  0.62036  Biso   1.000  Mn
  P5       1.0000 0.38067  0.26108  0.57431  Biso   1.000  P
  O57      1.0000 0.44506  0.35770  0.59466  Biso   1.000  O
  O58      1.0000 0.39978  0.15580  0.61390  Biso   1.000  O
  O59      1.0000 0.28520  0.30600  0.57626  Biso   1.000  O
  H13      1.0000 0.25040  0.28500  0.54510  Biso   1.000  H
  O60      1.0000 0.37237  0.23120  0.50458  Biso   1.000  O
  H14      1.0000 0.42200  0.22000  0.49750  Biso   1.000  H
  O61      1.0000 0.43680  0.98300  0.70717  Biso   1.000  O
  O62      1.0000 0.54560  0.82710  0.70973  Biso   1.000  O
  H15      1.0000 0.56060  0.76600  0.72840  Biso   1.000  H
  O63      1.0000 0.58838  0.49210  0.52552  Biso   1.000  O
  O64      1.0000 0.73688  0.49170  0.54287  Biso   1.000  O
  O65      1.0000 0.59342  0.52700  0.64474  Biso   1.000  O
  O66      1.0000 0.74131  0.51640  0.66394  Biso   1.000  O
  O67      1.0000 0.49558  0.71730  0.55143  Biso   1.000  O
  O68      1.0000 0.44490  0.89460  0.57025  Biso   1.000  O
  O69      1.0000 0.38477  0.61740  0.61542  Biso   1.000  O
  O70      1.0000 0.32423  0.79090  0.62599  Biso   1.000  O
  C17      1.0000 0.66510  0.49850  0.55938  Biso   1.000  C
  C18      1.0000 0.66730  0.51600  0.62913  Biso   1.000  C
  C19      1.0000 0.44660  0.78610  0.57397  Biso   1.000  C
  C20      1.0000 0.37960  0.72700  0.60819  Biso   1.000  C
  Mn11     1.0000 0.97504  0.02607  0.57122  Biso   1.000  Mn
  Mn12     1.0000 0.85481  0.48388  0.62036  Biso   1.000  Mn
  P6       1.0000 0.88067  0.76108  0.57431  Biso   1.000  P
  O71      1.0000 0.94506  0.85770  0.59466  Biso   1.000  O
  O72      1.0000 0.89978  0.65580  0.61390  Biso   1.000  O
  O73      1.0000 0.78520  0.80600  0.57626  Biso   1.000  O
  H16      1.0000 0.75040  0.78500  0.54510  Biso   1.000  H
  O74      1.0000 0.87237  0.73120  0.50458  Biso   1.000  O
  H17      1.0000 0.92200  0.72000  0.49750  Biso   1.000  H
  O75      1.0000 0.93680  0.48300  0.70717  Biso   1.000  O
  O76      1.0000 0.04560  0.32710  0.70973  Biso   1.000  O
  H18      1.0000 0.06060  0.26600  0.72840  Biso   1.000  H
  O77      1.0000 0.08838  0.99210  0.52552  Biso   1.000  O
  O78      1.0000 0.23688  0.99170  0.54287  Biso   1.000  O
  O79      1.0000 0.09342  0.02700  0.64474  Biso   1.000  O
  O80      1.0000 0.24131  0.01640  0.66394  Biso   1.000  O
  O81      1.0000 0.99558  0.21730  0.55143  Biso   1.000  O
  O82      1.0000 0.94490  0.39460  0.57025  Biso   1.000  O
  O83      1.0000 0.88477  0.11740  0.61542  Biso   1.000  O
  O84      1.0000 0.82423  0.29090  0.62599  Biso   1.000  O
  C21      1.0000 0.16510  0.99850  0.55938  Biso   1.000  C
  C22      1.0000 0.16730  0.01600  0.62913  Biso   1.000  C
  C23      1.0000 0.94660  0.28610  0.57397  Biso   1.000  C
  C24      1.0000 0.87960  0.22700  0.60819  Biso   1.000  C
  Mn13     1.0000 0.52496  0.52607  0.92878  Biso   1.000  Mn
  Mn14     1.0000 0.64519  0.98388  0.87964  Biso   1.000  Mn
  P7       1.0000 0.61933  0.26108  0.92569  Biso   1.000  P
  O85      1.0000 0.55494  0.35770  0.90534  Biso   1.000  O
  O86      1.0000 0.60022  0.15580  0.88610  Biso   1.000  O
  O87      1.0000 0.71480  0.30600  0.92374  Biso   1.000  O
  H19      1.0000 0.74960  0.28500  0.95490  Biso   1.000  H
  O88      1.0000 0.62763  0.23120  0.99542  Biso   1.000  O
  H20      1.0000 0.57800  0.22000  0.00250  Biso   1.000  H
  O89      1.0000 0.56320  0.98300  0.79283  Biso   1.000  O
  O90      1.0000 0.45440  0.82710  0.79027  Biso   1.000  O
  H21      1.0000 0.43940  0.76600  0.77160  Biso   1.000  H
  O91      1.0000 0.41162  0.49210  0.97448  Biso   1.000  O
  O92      1.0000 0.26312  0.49170  0.95713  Biso   1.000  O
  O93      1.0000 0.40658  0.52700  0.85526  Biso   1.000  O
  O94      1.0000 0.25869  0.51640  0.83606  Biso   1.000  O
  O95      1.0000 0.50442  0.71730  0.94857  Biso   1.000  O
  O96      1.0000 0.55510  0.89460  0.92975  Biso   1.000  O
  O97      1.0000 0.61523  0.61740  0.88458  Biso   1.000  O
  O98      1.0000 0.67577  0.79090  0.87401  Biso   1.000  O
  C25      1.0000 0.33490  0.49850  0.94062  Biso   1.000  C
  C26      1.0000 0.33270  0.51600  0.87087  Biso   1.000  C
  C27      1.0000 0.55340  0.78610  0.92603  Biso   1.000  C
  C28      1.0000 0.62040  0.72700  0.89181  Biso   1.000  C
  Mn15     1.0000 0.02496  0.02607  0.92878  Biso   1.000  Mn
  Mn16     1.0000 0.14519  0.48388  0.87964  Biso   1.000  Mn
  P8       1.0000 0.11933  0.76108  0.92569  Biso   1.000  P
  O99      1.0000 0.05494  0.85770  0.90534  Biso   1.000  O
  O100     1.0000 0.10022  0.65580  0.88610  Biso   1.000  O
  O101     1.0000 0.21480  0.80600  0.92374  Biso   1.000  O
  H22      1.0000 0.24960  0.78500  0.95490  Biso   1.000  H
  O102     1.0000 0.12763  0.73120  0.99542  Biso   1.000  O
  H23      1.0000 0.07800  0.72000  0.00250  Biso   1.000  H
  O103     1.0000 0.06320  0.48300  0.79283  Biso   1.000  O
  O104     1.0000 0.95440  0.32710  0.79027  Biso   1.000  O
  H24      1.0000 0.93940  0.26600  0.77160  Biso   1.000  H
  O105     1.0000 0.91162  0.99210  0.97448  Biso   1.000  O
  O106     1.0000 0.76312  0.99170  0.95713  Biso   1.000  O
  O107     1.0000 0.90658  0.02700  0.85526  Biso   1.000  O
  O108     1.0000 0.75869  0.01640  0.83606  Biso   1.000  O
  O109     1.0000 0.00442  0.21730  0.94857  Biso   1.000  O
  O110     1.0000 0.05510  0.39460  0.92975  Biso   1.000  O
  O111     1.0000 0.11523  0.11740  0.88458  Biso   1.000  O
  O112     1.0000 0.17577  0.29090  0.87401  Biso   1.000  O
  C29      1.0000 0.83490  0.99850  0.94062  Biso   1.000  C
  C30      1.0000 0.83270  0.01600  0.87087  Biso   1.000  C
  C31      1.0000 0.05340  0.28610  0.92603  Biso   1.000  C
  C32      1.0000 0.12040  0.22700  0.89181  Biso   1.000  C
  P9       1.0000 0.50000  0.09041  0.25000  Biso   1.000  P
  P10      1.0000 0.00000  0.59041  0.25000  Biso   1.000  P
  P11      1.0000 0.50000  0.90959  0.75000  Biso   1.000  P
  P12      1.0000 0.00000  0.40959  0.75000  Biso   1.000  P
