data_image0
_cell_length_a       19.552
_cell_length_b       21.898
_cell_length_c       25.297
_cell_angle_alpha    90
_cell_angle_beta     90
_cell_angle_gamma    90

_symmetry_space_group_name_H-M    "P 1"
_symmetry_int_tables_number       1

loop_
  _symmetry_equiv_pos_as_xyz
  'x, y, z'

loop_
  _atom_site_label
  _atom_site_occupancy
  _atom_site_fract_x
  _atom_site_fract_y
  _atom_site_fract_z
  _atom_site_thermal_displace_type
  _atom_site_B_iso_or_equiv
  _atom_site_type_symbol
  U1       1.0000 0.79746  0.18151  0.33131  Biso   1.000  U
  P1       1.0000 0.51640  0.99340  0.55129  Biso   1.000  P
  C1       1.0000 0.59470  0.00170  0.45940  Biso   1.000  C
  H1       1.0000 0.57590  0.96410  0.45010  Biso   1.000  H
  O1       1.0000 0.73100  0.09290  0.36110  Biso   1.000  O
  C2       1.0000 0.58430  0.87140  0.66040  Biso   1.000  C
  H2       1.0000 0.57310  0.83120  0.66870  Biso   1.000  H
  C3       1.0000 0.56730  0.95940  0.60510  Biso   1.000  C
  O2       1.0000 0.73710  0.16700  0.41560  Biso   1.000  O
  C4       1.0000 0.55470  0.89880  0.61900  Biso   1.000  C
  H3       1.0000 0.52430  0.87630  0.59860  Biso   1.000  H
  C5       1.0000 0.61380  0.98980  0.63230  Biso   1.000  C
  H4       1.0000 0.62280  0.03030  0.62370  Biso   1.000  H
  C6       1.0000 0.65010  0.96210  0.67380  Biso   1.000  C
  H5       1.0000 0.68600  0.98160  0.69110  Biso   1.000  H
  C7       1.0000 0.70770  0.11530  0.40760  Biso   1.000  C
  C8       1.0000 0.63650  0.02960  0.42690  Biso   1.000  C
  H6       1.0000 0.64720  0.01220  0.39440  Biso   1.000  H
  C9       1.0000 0.61300  0.08680  0.52210  Biso   1.000  C
  H7       1.0000 0.60530  0.10560  0.55450  Biso   1.000  H
  O3       1.0000 0.47400  0.94650  0.52220  Biso   1.000  O
  C10      1.0000 0.57730  0.02910  0.51030  Biso   1.000  C
  C11      1.0000 0.66490  0.08610  0.44180  Biso   1.000  C
  C12      1.0000 0.65440  0.11200  0.48920  Biso   1.000  C
  H8       1.0000 0.67680  0.14800  0.49820  Biso   1.000  H
  C13      1.0000 0.46770  0.05080  0.58010  Biso   1.000  C
  C14      1.0000 0.62740  0.89990  0.68830  Biso   1.000  C
  O4       1.0000 0.30500  0.22920  0.61030  Biso   1.000  O
  O5       1.0000 0.36120  0.22390  0.68420  Biso   1.000  O
  C15      1.0000 0.38620  0.14900  0.61760  Biso   1.000  C
  C16      1.0000 0.35140  0.20120  0.63810  Biso   1.000  C
  C17      1.0000 0.37500  0.12740  0.57290  Biso   1.000  C
  H9       1.0000 0.34310  0.14470  0.55000  Biso   1.000  H
  C18      1.0000 0.41520  0.07280  0.55840  Biso   1.000  C
  H10      1.0000 0.39950  0.05150  0.52890  Biso   1.000  H
  C19      1.0000 0.48050  0.07770  0.63280  Biso   1.000  C
  H11      1.0000 0.51180  0.06020  0.65590  Biso   1.000  H
  C20      1.0000 0.44470  0.12980  0.64670  Biso   1.000  C
  H12      1.0000 0.45910  0.15270  0.67550  Biso   1.000  H
  O6       1.0000 0.70130  0.90010  0.76560  Biso   1.000  O
  O7       1.0000 0.64920  0.82120  0.74500  Biso   1.000  O
  C21      1.0000 0.66210  0.87340  0.73420  Biso   1.000  C
  U2       1.0000 0.70254  0.81849  0.83131  Biso   1.000  U
  P2       1.0000 0.98360  0.00660  0.05129  Biso   1.000  P
  C22      1.0000 0.90530  0.99830  0.95940  Biso   1.000  C
  H13      1.0000 0.92410  0.03590  0.95010  Biso   1.000  H
  O8       1.0000 0.76900  0.90710  0.86110  Biso   1.000  O
  C23      1.0000 0.91570  0.12860  0.16040  Biso   1.000  C
  H14      1.0000 0.92690  0.16880  0.16870  Biso   1.000  H
  C24      1.0000 0.93270  0.04060  0.10510  Biso   1.000  C
  O9       1.0000 0.76290  0.83300  0.91560  Biso   1.000  O
  C25      1.0000 0.94530  0.10120  0.11900  Biso   1.000  C
  H15      1.0000 0.97570  0.12370  0.09860  Biso   1.000  H
  C26      1.0000 0.88620  0.01020  0.13230  Biso   1.000  C
  H16      1.0000 0.87720  0.96970  0.12370  Biso   1.000  H
  C27      1.0000 0.84990  0.03790  0.17380  Biso   1.000  C
  H17      1.0000 0.81400  0.01840  0.19110  Biso   1.000  H
  C28      1.0000 0.79230  0.88470  0.90760  Biso   1.000  C
  C29      1.0000 0.86350  0.97040  0.92690  Biso   1.000  C
  H18      1.0000 0.85280  0.98780  0.89440  Biso   1.000  H
  C30      1.0000 0.88700  0.91320  0.02210  Biso   1.000  C
  H19      1.0000 0.89470  0.89440  0.05450  Biso   1.000  H
  O10      1.0000 0.02600  0.05350  0.02220  Biso   1.000  O
  C31      1.0000 0.92270  0.97090  0.01030  Biso   1.000  C
  C32      1.0000 0.83510  0.91390  0.94180  Biso   1.000  C
  C33      1.0000 0.84560  0.88800  0.98920  Biso   1.000  C
  H20      1.0000 0.82320  0.85200  0.99820  Biso   1.000  H
  C34      1.0000 0.03230  0.94920  0.08010  Biso   1.000  C
  C35      1.0000 0.87260  0.10010  0.18830  Biso   1.000  C
  O11      1.0000 0.19500  0.77080  0.11030  Biso   1.000  O
  O12      1.0000 0.13880  0.77610  0.18420  Biso   1.000  O
  C36      1.0000 0.11380  0.85100  0.11760  Biso   1.000  C
  C37      1.0000 0.14860  0.79880  0.13810  Biso   1.000  C
  C38      1.0000 0.12500  0.87260  0.07290  Biso   1.000  C
  H21      1.0000 0.15690  0.85530  0.05000  Biso   1.000  H
  C39      1.0000 0.08480  0.92720  0.05840  Biso   1.000  C
  H22      1.0000 0.10050  0.94850  0.02890  Biso   1.000  H
  C40      1.0000 0.01950  0.92230  0.13280  Biso   1.000  C
  H23      1.0000 0.98820  0.93980  0.15590  Biso   1.000  H
  C41      1.0000 0.05530  0.87020  0.14670  Biso   1.000  C
  H24      1.0000 0.04090  0.84730  0.17550  Biso   1.000  H
  O13      1.0000 0.79870  0.09990  0.26560  Biso   1.000  O
  O14      1.0000 0.85080  0.17880  0.24500  Biso   1.000  O
  C42      1.0000 0.83790  0.12660  0.23420  Biso   1.000  C
  U3       1.0000 0.20254  0.68151  0.16869  Biso   1.000  U
  P3       1.0000 0.48360  0.49340  0.94871  Biso   1.000  P
  C43      1.0000 0.40530  0.50170  0.04060  Biso   1.000  C
  H25      1.0000 0.42410  0.46410  0.04990  Biso   1.000  H
  O15      1.0000 0.26900  0.59290  0.13890  Biso   1.000  O
  C44      1.0000 0.41570  0.37140  0.83960  Biso   1.000  C
  H26      1.0000 0.42690  0.33120  0.83130  Biso   1.000  H
  C45      1.0000 0.43270  0.45940  0.89490  Biso   1.000  C
  O16      1.0000 0.26290  0.66700  0.08440  Biso   1.000  O
  C46      1.0000 0.44530  0.39880  0.88100  Biso   1.000  C
  H27      1.0000 0.47570  0.37630  0.90140  Biso   1.000  H
  C47      1.0000 0.38620  0.48980  0.86770  Biso   1.000  C
  H28      1.0000 0.37720  0.53030  0.87630  Biso   1.000  H
  C48      1.0000 0.34990  0.46210  0.82620  Biso   1.000  C
  H29      1.0000 0.31400  0.48160  0.80890  Biso   1.000  H
  C49      1.0000 0.29230  0.61530  0.09240  Biso   1.000  C
  C50      1.0000 0.36350  0.52960  0.07310  Biso   1.000  C
  H30      1.0000 0.35280  0.51220  0.10560  Biso   1.000  H
  C51      1.0000 0.38700  0.58680  0.97790  Biso   1.000  C
  H31      1.0000 0.39470  0.60560  0.94550  Biso   1.000  H
  O17      1.0000 0.52600  0.44650  0.97780  Biso   1.000  O
  C52      1.0000 0.42270  0.52910  0.98970  Biso   1.000  C
  C53      1.0000 0.33510  0.58610  0.05820  Biso   1.000  C
  C54      1.0000 0.34560  0.61200  0.01080  Biso   1.000  C
  H32      1.0000 0.32320  0.64800  0.00180  Biso   1.000  H
  C55      1.0000 0.53230  0.55080  0.91990  Biso   1.000  C
  C56      1.0000 0.37260  0.39990  0.81170  Biso   1.000  C
  O18      1.0000 0.69500  0.72920  0.88970  Biso   1.000  O
  O19      1.0000 0.63880  0.72390  0.81580  Biso   1.000  O
  C57      1.0000 0.61380  0.64900  0.88240  Biso   1.000  C
  C58      1.0000 0.64860  0.70120  0.86190  Biso   1.000  C
  C59      1.0000 0.62500  0.62740  0.92710  Biso   1.000  C
  H33      1.0000 0.65690  0.64470  0.95000  Biso   1.000  H
  C60      1.0000 0.58480  0.57280  0.94160  Biso   1.000  C
  H34      1.0000 0.60050  0.55150  0.97110  Biso   1.000  H
  C61      1.0000 0.51950  0.57770  0.86720  Biso   1.000  C
  H35      1.0000 0.48820  0.56020  0.84410  Biso   1.000  H
  C62      1.0000 0.55530  0.62980  0.85330  Biso   1.000  C
  H36      1.0000 0.54090  0.65270  0.82450  Biso   1.000  H
  O20      1.0000 0.29870  0.40010  0.73440  Biso   1.000  O
  O21      1.0000 0.35080  0.32120  0.75500  Biso   1.000  O
  C63      1.0000 0.33790  0.37340  0.76580  Biso   1.000  C
  U4       1.0000 0.29746  0.31849  0.66869  Biso   1.000  U
  P4       1.0000 0.01640  0.50660  0.44871  Biso   1.000  P
  C64      1.0000 0.09470  0.49830  0.54060  Biso   1.000  C
  H37      1.0000 0.07590  0.53590  0.54990  Biso   1.000  H
  O22      1.0000 0.23100  0.40710  0.63890  Biso   1.000  O
  C65      1.0000 0.08430  0.62860  0.33960  Biso   1.000  C
  H38      1.0000 0.07310  0.66880  0.33130  Biso   1.000  H
  C66      1.0000 0.06730  0.54060  0.39490  Biso   1.000  C
  O23      1.0000 0.23710  0.33300  0.58440  Biso   1.000  O
  C67      1.0000 0.05470  0.60120  0.38100  Biso   1.000  C
  H39      1.0000 0.02430  0.62370  0.40140  Biso   1.000  H
  C68      1.0000 0.11380  0.51020  0.36770  Biso   1.000  C
  H40      1.0000 0.12280  0.46970  0.37630  Biso   1.000  H
  C69      1.0000 0.15010  0.53790  0.32620  Biso   1.000  C
  H41      1.0000 0.18600  0.51840  0.30890  Biso   1.000  H
  C70      1.0000 0.20770  0.38470  0.59240  Biso   1.000  C
  C71      1.0000 0.13650  0.47040  0.57310  Biso   1.000  C
  H42      1.0000 0.14720  0.48780  0.60560  Biso   1.000  H
  C72      1.0000 0.11300  0.41320  0.47790  Biso   1.000  C
  H43      1.0000 0.10530  0.39440  0.44550  Biso   1.000  H
  O24      1.0000 0.97400  0.55350  0.47780  Biso   1.000  O
  C73      1.0000 0.07730  0.47090  0.48970  Biso   1.000  C
  C74      1.0000 0.16490  0.41390  0.55820  Biso   1.000  C
  C75      1.0000 0.15440  0.38800  0.51080  Biso   1.000  C
  H44      1.0000 0.17680  0.35200  0.50180  Biso   1.000  H
  C76      1.0000 0.96770  0.44920  0.41990  Biso   1.000  C
  C77      1.0000 0.12740  0.60010  0.31170  Biso   1.000  C
  O25      1.0000 0.80500  0.27080  0.38970  Biso   1.000  O
  O26      1.0000 0.86120  0.27610  0.31580  Biso   1.000  O
  C78      1.0000 0.88620  0.35100  0.38240  Biso   1.000  C
  C79      1.0000 0.85140  0.29880  0.36190  Biso   1.000  C
  C80      1.0000 0.87500  0.37260  0.42710  Biso   1.000  C
  H45      1.0000 0.84310  0.35530  0.45000  Biso   1.000  H
  C81      1.0000 0.91520  0.42720  0.44160  Biso   1.000  C
  H46      1.0000 0.89950  0.44850  0.47110  Biso   1.000  H
  C82      1.0000 0.98050  0.42230  0.36720  Biso   1.000  C
  H47      1.0000 0.01180  0.43980  0.34410  Biso   1.000  H
  C83      1.0000 0.94470  0.37020  0.35330  Biso   1.000  C
  H48      1.0000 0.95910  0.34730  0.32450  Biso   1.000  H
  O27      1.0000 0.20130  0.59990  0.23440  Biso   1.000  O
  O28      1.0000 0.14920  0.67880  0.25500  Biso   1.000  O
  C84      1.0000 0.16210  0.62660  0.26580  Biso   1.000  C
  U5       1.0000 0.29746  0.68151  0.83131  Biso   1.000  U
  P5       1.0000 0.01640  0.49340  0.05129  Biso   1.000  P
  C85      1.0000 0.09470  0.50170  0.95940  Biso   1.000  C
  H49      1.0000 0.07590  0.46410  0.95010  Biso   1.000  H
  O29      1.0000 0.23100  0.59290  0.86110  Biso   1.000  O
  C86      1.0000 0.08430  0.37140  0.16040  Biso   1.000  C
  H50      1.0000 0.07310  0.33120  0.16870  Biso   1.000  H
  C87      1.0000 0.06730  0.45940  0.10510  Biso   1.000  C
  O30      1.0000 0.23710  0.66700  0.91560  Biso   1.000  O
  C88      1.0000 0.05470  0.39880  0.11900  Biso   1.000  C
  H51      1.0000 0.02430  0.37630  0.09860  Biso   1.000  H
  C89      1.0000 0.11380  0.48980  0.13230  Biso   1.000  C
  H52      1.0000 0.12280  0.53030  0.12370  Biso   1.000  H
  C90      1.0000 0.15010  0.46210  0.17380  Biso   1.000  C
  H53      1.0000 0.18600  0.48160  0.19110  Biso   1.000  H
  C91      1.0000 0.20770  0.61530  0.90760  Biso   1.000  C
  C92      1.0000 0.13650  0.52960  0.92690  Biso   1.000  C
  H54      1.0000 0.14720  0.51220  0.89440  Biso   1.000  H
  C93      1.0000 0.11300  0.58680  0.02210  Biso   1.000  C
  H55      1.0000 0.10530  0.60560  0.05450  Biso   1.000  H
  O31      1.0000 0.97400  0.44650  0.02220  Biso   1.000  O
  C94      1.0000 0.07730  0.52910  0.01030  Biso   1.000  C
  C95      1.0000 0.16490  0.58610  0.94180  Biso   1.000  C
  C96      1.0000 0.15440  0.61200  0.98920  Biso   1.000  C
  H56      1.0000 0.17680  0.64800  0.99820  Biso   1.000  H
  C97      1.0000 0.96770  0.55080  0.08010  Biso   1.000  C
  C98      1.0000 0.12740  0.39990  0.18830  Biso   1.000  C
  O32      1.0000 0.80500  0.72920  0.11030  Biso   1.000  O
  O33      1.0000 0.86120  0.72390  0.18420  Biso   1.000  O
  C99      1.0000 0.88620  0.64900  0.11760  Biso   1.000  C
  C100     1.0000 0.85140  0.70120  0.13810  Biso   1.000  C
  C101     1.0000 0.87500  0.62740  0.07290  Biso   1.000  C
  H57      1.0000 0.84310  0.64470  0.05000  Biso   1.000  H
  C102     1.0000 0.91520  0.57280  0.05840  Biso   1.000  C
  H58      1.0000 0.89950  0.55150  0.02890  Biso   1.000  H
  C103     1.0000 0.98050  0.57770  0.13280  Biso   1.000  C
  H59      1.0000 0.01180  0.56020  0.15590  Biso   1.000  H
  C104     1.0000 0.94470  0.62980  0.14670  Biso   1.000  C
  H60      1.0000 0.95910  0.65270  0.17550  Biso   1.000  H
  O34      1.0000 0.20130  0.40010  0.26560  Biso   1.000  O
  O35      1.0000 0.14920  0.32120  0.24500  Biso   1.000  O
  C105     1.0000 0.16210  0.37340  0.23420  Biso   1.000  C
  U6       1.0000 0.20254  0.31849  0.33131  Biso   1.000  U
  P6       1.0000 0.48360  0.50660  0.55129  Biso   1.000  P
  C106     1.0000 0.40530  0.49830  0.45940  Biso   1.000  C
  H61      1.0000 0.42410  0.53590  0.45010  Biso   1.000  H
  O36      1.0000 0.26900  0.40710  0.36110  Biso   1.000  O
  C107     1.0000 0.41570  0.62860  0.66040  Biso   1.000  C
  H62      1.0000 0.42690  0.66880  0.66870  Biso   1.000  H
  C108     1.0000 0.43270  0.54060  0.60510  Biso   1.000  C
  O37      1.0000 0.26290  0.33300  0.41560  Biso   1.000  O
  C109     1.0000 0.44530  0.60120  0.61900  Biso   1.000  C
  H63      1.0000 0.47570  0.62370  0.59860  Biso   1.000  H
  C110     1.0000 0.38620  0.51020  0.63230  Biso   1.000  C
  H64      1.0000 0.37720  0.46970  0.62370  Biso   1.000  H
  C111     1.0000 0.34990  0.53790  0.67380  Biso   1.000  C
  H65      1.0000 0.31400  0.51840  0.69110  Biso   1.000  H
  C112     1.0000 0.29230  0.38470  0.40760  Biso   1.000  C
  C113     1.0000 0.36350  0.47040  0.42690  Biso   1.000  C
  H66      1.0000 0.35280  0.48780  0.39440  Biso   1.000  H
  C114     1.0000 0.38700  0.41320  0.52210  Biso   1.000  C
  H67      1.0000 0.39470  0.39440  0.55450  Biso   1.000  H
  O38      1.0000 0.52600  0.55350  0.52220  Biso   1.000  O
  C115     1.0000 0.42270  0.47090  0.51030  Biso   1.000  C
  C116     1.0000 0.33510  0.41390  0.44180  Biso   1.000  C
  C117     1.0000 0.34560  0.38800  0.48920  Biso   1.000  C
  H68      1.0000 0.32320  0.35200  0.49820  Biso   1.000  H
  C118     1.0000 0.53230  0.44920  0.58010  Biso   1.000  C
  C119     1.0000 0.37260  0.60010  0.68830  Biso   1.000  C
  O39      1.0000 0.69500  0.27080  0.61030  Biso   1.000  O
  O40      1.0000 0.63880  0.27610  0.68420  Biso   1.000  O
  C120     1.0000 0.61380  0.35100  0.61760  Biso   1.000  C
  C121     1.0000 0.64860  0.29880  0.63810  Biso   1.000  C
  C122     1.0000 0.62500  0.37260  0.57290  Biso   1.000  C
  H69      1.0000 0.65690  0.35530  0.55000  Biso   1.000  H
  C123     1.0000 0.58480  0.42720  0.55840  Biso   1.000  C
  H70      1.0000 0.60050  0.44850  0.52890  Biso   1.000  H
  C124     1.0000 0.51950  0.42230  0.63280  Biso   1.000  C
  H71      1.0000 0.48820  0.43980  0.65590  Biso   1.000  H
  C125     1.0000 0.55530  0.37020  0.64670  Biso   1.000  C
  H72      1.0000 0.54090  0.34730  0.67550  Biso   1.000  H
  O41      1.0000 0.29870  0.59990  0.76560  Biso   1.000  O
  O42      1.0000 0.35080  0.67880  0.74500  Biso   1.000  O
  C126     1.0000 0.33790  0.62660  0.73420  Biso   1.000  C
  U7       1.0000 0.70254  0.18151  0.66869  Biso   1.000  U
  P7       1.0000 0.98360  0.99340  0.44871  Biso   1.000  P
  C127     1.0000 0.90530  0.00170  0.54060  Biso   1.000  C
  H73      1.0000 0.92410  0.96410  0.54990  Biso   1.000  H
  O43      1.0000 0.76900  0.09290  0.63890  Biso   1.000  O
  C128     1.0000 0.91570  0.87140  0.33960  Biso   1.000  C
  H74      1.0000 0.92690  0.83120  0.33130  Biso   1.000  H
  C129     1.0000 0.93270  0.95940  0.39490  Biso   1.000  C
  O44      1.0000 0.76290  0.16700  0.58440  Biso   1.000  O
  C130     1.0000 0.94530  0.89880  0.38100  Biso   1.000  C
  H75      1.0000 0.97570  0.87630  0.40140  Biso   1.000  H
  C131     1.0000 0.88620  0.98980  0.36770  Biso   1.000  C
  H76      1.0000 0.87720  0.03030  0.37630  Biso   1.000  H
  C132     1.0000 0.84990  0.96210  0.32620  Biso   1.000  C
  H77      1.0000 0.81400  0.98160  0.30890  Biso   1.000  H
  C133     1.0000 0.79230  0.11530  0.59240  Biso   1.000  C
  C134     1.0000 0.86350  0.02960  0.57310  Biso   1.000  C
  H78      1.0000 0.85280  0.01220  0.60560  Biso   1.000  H
  C135     1.0000 0.88700  0.08680  0.47790  Biso   1.000  C
  H79      1.0000 0.89470  0.10560  0.44550  Biso   1.000  H
  O45      1.0000 0.02600  0.94650  0.47780  Biso   1.000  O
  C136     1.0000 0.92270  0.02910  0.48970  Biso   1.000  C
  C137     1.0000 0.83510  0.08610  0.55820  Biso   1.000  C
  C138     1.0000 0.84560  0.11200  0.51080  Biso   1.000  C
  H80      1.0000 0.82320  0.14800  0.50180  Biso   1.000  H
  C139     1.0000 0.03230  0.05080  0.41990  Biso   1.000  C
  C140     1.0000 0.87260  0.89990  0.31170  Biso   1.000  C
  O46      1.0000 0.19500  0.22920  0.38970  Biso   1.000  O
  O47      1.0000 0.13880  0.22390  0.31580  Biso   1.000  O
  C141     1.0000 0.11380  0.14900  0.38240  Biso   1.000  C
  C142     1.0000 0.14860  0.20120  0.36190  Biso   1.000  C
  C143     1.0000 0.12500  0.12740  0.42710  Biso   1.000  C
  H81      1.0000 0.15690  0.14470  0.45000  Biso   1.000  H
  C144     1.0000 0.08480  0.07280  0.44160  Biso   1.000  C
  H82      1.0000 0.10050  0.05150  0.47110  Biso   1.000  H
  C145     1.0000 0.01950  0.07770  0.36720  Biso   1.000  C
  H83      1.0000 0.98820  0.06020  0.34410  Biso   1.000  H
  C146     1.0000 0.05530  0.12980  0.35330  Biso   1.000  C
  H84      1.0000 0.04090  0.15270  0.32450  Biso   1.000  H
  O48      1.0000 0.79870  0.90010  0.23440  Biso   1.000  O
  O49      1.0000 0.85080  0.82120  0.25500  Biso   1.000  O
  C147     1.0000 0.83790  0.87340  0.26580  Biso   1.000  C
  U8       1.0000 0.79746  0.81849  0.16869  Biso   1.000  U
  P8       1.0000 0.51640  0.00660  0.94871  Biso   1.000  P
  C148     1.0000 0.59470  0.99830  0.04060  Biso   1.000  C
  H85      1.0000 0.57590  0.03590  0.04990  Biso   1.000  H
  O50      1.0000 0.73100  0.90710  0.13890  Biso   1.000  O
  C149     1.0000 0.58430  0.12860  0.83960  Biso   1.000  C
  H86      1.0000 0.57310  0.16880  0.83130  Biso   1.000  H
  C150     1.0000 0.56730  0.04060  0.89490  Biso   1.000  C
  O51      1.0000 0.73710  0.83300  0.08440  Biso   1.000  O
  C151     1.0000 0.55470  0.10120  0.88100  Biso   1.000  C
  H87      1.0000 0.52430  0.12370  0.90140  Biso   1.000  H
  C152     1.0000 0.61380  0.01020  0.86770  Biso   1.000  C
  H88      1.0000 0.62280  0.96970  0.87630  Biso   1.000  H
  C153     1.0000 0.65010  0.03790  0.82620  Biso   1.000  C
  H89      1.0000 0.68600  0.01840  0.80890  Biso   1.000  H
  C154     1.0000 0.70770  0.88470  0.09240  Biso   1.000  C
  C155     1.0000 0.63650  0.97040  0.07310  Biso   1.000  C
  H90      1.0000 0.64720  0.98780  0.10560  Biso   1.000  H
  C156     1.0000 0.61300  0.91320  0.97790  Biso   1.000  C
  H91      1.0000 0.60530  0.89440  0.94550  Biso   1.000  H
  O52      1.0000 0.47400  0.05350  0.97780  Biso   1.000  O
  C157     1.0000 0.57730  0.97090  0.98970  Biso   1.000  C
  C158     1.0000 0.66490  0.91390  0.05820  Biso   1.000  C
  C159     1.0000 0.65440  0.88800  0.01080  Biso   1.000  C
  H92      1.0000 0.67680  0.85200  0.00180  Biso   1.000  H
  C160     1.0000 0.46770  0.94920  0.91990  Biso   1.000  C
  C161     1.0000 0.62740  0.10010  0.81170  Biso   1.000  C
  O53      1.0000 0.30500  0.77080  0.88970  Biso   1.000  O
  O54      1.0000 0.36120  0.77610  0.81580  Biso   1.000  O
  C162     1.0000 0.38620  0.85100  0.88240  Biso   1.000  C
  C163     1.0000 0.35140  0.79880  0.86190  Biso   1.000  C
  C164     1.0000 0.37500  0.87260  0.92710  Biso   1.000  C
  H93      1.0000 0.34310  0.85530  0.95000  Biso   1.000  H
  C165     1.0000 0.41520  0.92720  0.94160  Biso   1.000  C
  H94      1.0000 0.39950  0.94850  0.97110  Biso   1.000  H
  C166     1.0000 0.48050  0.92230  0.86720  Biso   1.000  C
  H95      1.0000 0.51180  0.93980  0.84410  Biso   1.000  H
  C167     1.0000 0.44470  0.87020  0.85330  Biso   1.000  C
  H96      1.0000 0.45910  0.84730  0.82450  Biso   1.000  H
  O55      1.0000 0.70130  0.09990  0.73440  Biso   1.000  O
  O56      1.0000 0.64920  0.17880  0.75500  Biso   1.000  O
  C168     1.0000 0.66210  0.12660  0.76580  Biso   1.000  C
