data_image0
_cell_length_a       8.3259
_cell_length_b       22.773
_cell_length_c       20.105
_cell_angle_alpha    90
_cell_angle_beta     93.7
_cell_angle_gamma    90

_symmetry_space_group_name_H-M    "P 1"
_symmetry_int_tables_number       1

loop_
  _symmetry_equiv_pos_as_xyz
  'x, y, z'

loop_
  _atom_site_label
  _atom_site_occupancy
  _atom_site_fract_x
  _atom_site_fract_y
  _atom_site_fract_z
  _atom_site_thermal_displace_type
  _atom_site_B_iso_or_equiv
  _atom_site_type_symbol
  C1       1.0000 0.69200  0.44890  0.56560  Biso   1.000  C
  C2       1.0000 0.74870  0.40620  0.61990  Biso   1.000  C
  C3       1.0000 0.64650  0.36190  0.63780  Biso   1.000  C
  H1       1.0000 0.54420  0.35760  0.61450  Biso   1.000  H
  C4       1.0000 0.69230  0.32360  0.68970  Biso   1.000  C
  H2       1.0000 0.61930  0.29440  0.70290  Biso   1.000  H
  C5       1.0000 0.84130  0.32780  0.72160  Biso   1.000  C
  C6       1.0000 0.94670  0.37160  0.70420  Biso   1.000  C
  H3       1.0000 0.04960  0.37500  0.72720  Biso   1.000  H
  C7       1.0000 0.90070  0.41080  0.65230  Biso   1.000  C
  H4       1.0000 0.97330  0.44030  0.63960  Biso   1.000  H
  C8       1.0000 0.89800  0.28800  0.77790  Biso   1.000  C
  C9       1.0000 0.93360  0.15000  0.93070  Biso   1.000  C
  H5       1.0000 0.00790  0.15150  0.96850  Biso   1.000  H
  C10      1.0000 0.94400  0.19310  0.88330  Biso   1.000  C
  H6       1.0000 0.02120  0.22370  0.88900  Biso   1.000  H
  C11      1.0000 0.83740  0.19080  0.82620  Biso   1.000  C
  C12      1.0000 0.73340  0.14260  0.81980  Biso   1.000  C
  H7       1.0000 0.66420  0.13800  0.78070  Biso   1.000  H
  C13      1.0000 0.73140  0.10210  0.87000  Biso   1.000  C
  H8       1.0000 0.66000  0.06970  0.86440  Biso   1.000  H
  C14      1.0000 0.85190  0.65670  0.45240  Biso   1.000  C
  C15      1.0000 0.85640  0.71300  0.41120  Biso   1.000  C
  C16      1.0000 0.74760  0.72450  0.36100  Biso   1.000  C
  H9       1.0000 0.66030  0.69800  0.35320  Biso   1.000  H
  C17      1.0000 0.75560  0.77240  0.32060  Biso   1.000  C
  H10      1.0000 0.68070  0.77600  0.28310  Biso   1.000  H
  C18      1.0000 0.86630  0.81460  0.33230  Biso   1.000  C
  C19      1.0000 0.97760  0.80310  0.38280  Biso   1.000  C
  H11      1.0000 0.05990  0.83120  0.39320  Biso   1.000  H
  C20      1.0000 0.97540  0.75180  0.42000  Biso   1.000  C
  H12      1.0000 0.06090  0.74430  0.45250  Biso   1.000  H
  C21      1.0000 0.88070  0.86810  0.29270  Biso   1.000  C
  C22      1.0000 0.78600  0.91500  0.18470  Biso   1.000  C
  C23      1.0000 0.68730  0.90660  0.12710  Biso   1.000  C
  H13      1.0000 0.62510  0.87170  0.12190  Biso   1.000  H
  C24      1.0000 0.67860  0.94850  0.07730  Biso   1.000  C
  H14      1.0000 0.61370  0.94120  0.03750  Biso   1.000  H
  C25      1.0000 0.85340  0.00880  0.14040  Biso   1.000  C
  H15      1.0000 0.91180  0.04450  0.14520  Biso   1.000  H
  C26      1.0000 0.86860  0.96900  0.19170  Biso   1.000  C
  H16      1.0000 0.93350  0.97760  0.23110  Biso   1.000  H
  N1       1.0000 0.82620  0.10580  0.92740  Biso   1.000  N
  N2       1.0000 0.82840  0.23330  0.77580  Biso   1.000  N
  N3       1.0000 0.76140  0.00038  0.08390  Biso   1.000  N
  N4       1.0000 0.79260  0.87050  0.23230  Biso   1.000  N
  O1       1.0000 0.78440  0.49285  0.55803  Biso   1.000  O
  O2       1.0000 0.56420  0.43922  0.53291  Biso   1.000  O
  O3       1.0000 0.73140  0.62349  0.43695  Biso   1.000  O
  O4       1.0000 0.95810  0.64730  0.49580  Biso   1.000  O
  O5       1.0000 0.96450  0.90960  0.31270  Biso   1.000  O
  O6       1.0000 0.99490  0.30320  0.82180  Biso   1.000  O
  Cu1      1.0000 0.71295  0.55428  0.49448  Biso   1.000  Cu
  H17      1.0000 0.77000  0.22100  0.74020  Biso   1.000  H
  H18      1.0000 0.73050  0.84000  0.22290  Biso   1.000  H
  C27      1.0000 0.80800  0.94890  0.93440  Biso   1.000  C
  C28      1.0000 0.75130  0.90620  0.88010  Biso   1.000  C
  C29      1.0000 0.85350  0.86190  0.86220  Biso   1.000  C
  H19      1.0000 0.95580  0.85760  0.88550  Biso   1.000  H
  C30      1.0000 0.80770  0.82360  0.81030  Biso   1.000  C
  H20      1.0000 0.88070  0.79440  0.79710  Biso   1.000  H
  C31      1.0000 0.65870  0.82780  0.77840  Biso   1.000  C
  C32      1.0000 0.55330  0.87160  0.79580  Biso   1.000  C
  H21      1.0000 0.45040  0.87500  0.77280  Biso   1.000  H
  C33      1.0000 0.59930  0.91080  0.84770  Biso   1.000  C
  H22      1.0000 0.52670  0.94030  0.86040  Biso   1.000  H
  C34      1.0000 0.60200  0.78800  0.72210  Biso   1.000  C
  C35      1.0000 0.56640  0.65000  0.56930  Biso   1.000  C
  H23      1.0000 0.49210  0.65150  0.53150  Biso   1.000  H
  C36      1.0000 0.55600  0.69310  0.61670  Biso   1.000  C
  H24      1.0000 0.47880  0.72370  0.61100  Biso   1.000  H
  C37      1.0000 0.66260  0.69080  0.67380  Biso   1.000  C
  C38      1.0000 0.76660  0.64260  0.68020  Biso   1.000  C
  H25      1.0000 0.83580  0.63800  0.71930  Biso   1.000  H
  C39      1.0000 0.76860  0.60210  0.63000  Biso   1.000  C
  H26      1.0000 0.84000  0.56970  0.63560  Biso   1.000  H
  C40      1.0000 0.64810  0.15670  0.04760  Biso   1.000  C
  C41      1.0000 0.64360  0.21300  0.08880  Biso   1.000  C
  C42      1.0000 0.75240  0.22450  0.13900  Biso   1.000  C
  H27      1.0000 0.83970  0.19800  0.14680  Biso   1.000  H
  C43      1.0000 0.74440  0.27240  0.17940  Biso   1.000  C
  H28      1.0000 0.81930  0.27600  0.21690  Biso   1.000  H
  C44      1.0000 0.63370  0.31460  0.16770  Biso   1.000  C
  C45      1.0000 0.52240  0.30310  0.11720  Biso   1.000  C
  H29      1.0000 0.44010  0.33120  0.10680  Biso   1.000  H
  C46      1.0000 0.52460  0.25180  0.08000  Biso   1.000  C
  H30      1.0000 0.43910  0.24430  0.04750  Biso   1.000  H
  C47      1.0000 0.61930  0.36810  0.20730  Biso   1.000  C
  C48      1.0000 0.71400  0.41500  0.31530  Biso   1.000  C
  C49      1.0000 0.81270  0.40660  0.37290  Biso   1.000  C
  H31      1.0000 0.87490  0.37170  0.37810  Biso   1.000  H
  C50      1.0000 0.82140  0.44850  0.42270  Biso   1.000  C
  H32      1.0000 0.88630  0.44120  0.46250  Biso   1.000  H
  C51      1.0000 0.64660  0.50880  0.35960  Biso   1.000  C
  H33      1.0000 0.58820  0.54450  0.35480  Biso   1.000  H
  C52      1.0000 0.63140  0.46900  0.30830  Biso   1.000  C
  H34      1.0000 0.56650  0.47760  0.26890  Biso   1.000  H
  N5       1.0000 0.67380  0.60580  0.57260  Biso   1.000  N
  N6       1.0000 0.67160  0.73330  0.72420  Biso   1.000  N
  N7       1.0000 0.73860  0.50038  0.41610  Biso   1.000  N
  N8       1.0000 0.70740  0.37050  0.26770  Biso   1.000  N
  O7       1.0000 0.71560  0.99285  0.94197  Biso   1.000  O
  O8       1.0000 0.93580  0.93922  0.96709  Biso   1.000  O
  O9       1.0000 0.76860  0.12349  0.06305  Biso   1.000  O
  O10      1.0000 0.54190  0.14730  0.00420  Biso   1.000  O
  O11      1.0000 0.53550  0.40960  0.18730  Biso   1.000  O
  O12      1.0000 0.50510  0.80320  0.67820  Biso   1.000  O
  Cu2      1.0000 0.78705  0.05428  0.00552  Biso   1.000  Cu
  H35      1.0000 0.73000  0.72100  0.75980  Biso   1.000  H
  H36      1.0000 0.76950  0.34000  0.27710  Biso   1.000  H
  C53      1.0000 0.30800  0.55110  0.43440  Biso   1.000  C
  C54      1.0000 0.25130  0.59380  0.38010  Biso   1.000  C
  C55      1.0000 0.35350  0.63810  0.36220  Biso   1.000  C
  H37      1.0000 0.45580  0.64240  0.38550  Biso   1.000  H
  C56      1.0000 0.30770  0.67640  0.31030  Biso   1.000  C
  H38      1.0000 0.38070  0.70560  0.29710  Biso   1.000  H
  C57      1.0000 0.15870  0.67220  0.27840  Biso   1.000  C
  C58      1.0000 0.05330  0.62840  0.29580  Biso   1.000  C
  H39      1.0000 0.95040  0.62500  0.27280  Biso   1.000  H
  C59      1.0000 0.09930  0.58920  0.34770  Biso   1.000  C
  H40      1.0000 0.02670  0.55970  0.36040  Biso   1.000  H
  C60      1.0000 0.10200  0.71200  0.22210  Biso   1.000  C
  C61      1.0000 0.06640  0.85000  0.06930  Biso   1.000  C
  H41      1.0000 0.99210  0.84850  0.03150  Biso   1.000  H
  C62      1.0000 0.05600  0.80690  0.11670  Biso   1.000  C
  H42      1.0000 0.97880  0.77630  0.11100  Biso   1.000  H
  C63      1.0000 0.16260  0.80920  0.17380  Biso   1.000  C
  C64      1.0000 0.26660  0.85740  0.18020  Biso   1.000  C
  H43      1.0000 0.33580  0.86200  0.21930  Biso   1.000  H
  C65      1.0000 0.26860  0.89790  0.13000  Biso   1.000  C
  H44      1.0000 0.34000  0.93030  0.13560  Biso   1.000  H
  C66      1.0000 0.14810  0.34330  0.54760  Biso   1.000  C
  C67      1.0000 0.14360  0.28700  0.58880  Biso   1.000  C
  C68      1.0000 0.25240  0.27550  0.63900  Biso   1.000  C
  H45      1.0000 0.33970  0.30200  0.64680  Biso   1.000  H
  C69      1.0000 0.24440  0.22760  0.67940  Biso   1.000  C
  H46      1.0000 0.31930  0.22400  0.71690  Biso   1.000  H
  C70      1.0000 0.13370  0.18540  0.66770  Biso   1.000  C
  C71      1.0000 0.02240  0.19690  0.61720  Biso   1.000  C
  H47      1.0000 0.94010  0.16880  0.60680  Biso   1.000  H
  C72      1.0000 0.02460  0.24820  0.58000  Biso   1.000  C
  H48      1.0000 0.93910  0.25570  0.54750  Biso   1.000  H
  C73      1.0000 0.11930  0.13190  0.70730  Biso   1.000  C
  C74      1.0000 0.21400  0.08500  0.81530  Biso   1.000  C
  C75      1.0000 0.31270  0.09340  0.87290  Biso   1.000  C
  H49      1.0000 0.37490  0.12830  0.87810  Biso   1.000  H
  C76      1.0000 0.32140  0.05150  0.92270  Biso   1.000  C
  H50      1.0000 0.38630  0.05880  0.96250  Biso   1.000  H
  C77      1.0000 0.14660  0.99120  0.85960  Biso   1.000  C
  H51      1.0000 0.08820  0.95550  0.85480  Biso   1.000  H
  C78      1.0000 0.13140  0.03100  0.80830  Biso   1.000  C
  H52      1.0000 0.06650  0.02240  0.76890  Biso   1.000  H
  N9       1.0000 0.17380  0.89420  0.07260  Biso   1.000  N
  N10      1.0000 0.17160  0.76670  0.22420  Biso   1.000  N
  N11      1.0000 0.23860  0.99962  0.91610  Biso   1.000  N
  N12      1.0000 0.20740  0.12950  0.76770  Biso   1.000  N
  O13      1.0000 0.21560  0.50715  0.44197  Biso   1.000  O
  O14      1.0000 0.43580  0.56078  0.46709  Biso   1.000  O
  O15      1.0000 0.26860  0.37651  0.56305  Biso   1.000  O
  O16      1.0000 0.04190  0.35270  0.50420  Biso   1.000  O
  O17      1.0000 0.03550  0.09040  0.68730  Biso   1.000  O
  O18      1.0000 0.00510  0.69680  0.17820  Biso   1.000  O
  Cu3      1.0000 0.28705  0.44572  0.50552  Biso   1.000  Cu
  H53      1.0000 0.23000  0.77900  0.25980  Biso   1.000  H
  H54      1.0000 0.26950  0.16000  0.77710  Biso   1.000  H
  C79      1.0000 0.19200  0.05110  0.06560  Biso   1.000  C
  C80      1.0000 0.24870  0.09380  0.11990  Biso   1.000  C
  C81      1.0000 0.14650  0.13810  0.13780  Biso   1.000  C
  H55      1.0000 0.04420  0.14240  0.11450  Biso   1.000  H
  C82      1.0000 0.19230  0.17640  0.18970  Biso   1.000  C
  H56      1.0000 0.11930  0.20560  0.20290  Biso   1.000  H
  C83      1.0000 0.34130  0.17220  0.22160  Biso   1.000  C
  C84      1.0000 0.44670  0.12840  0.20420  Biso   1.000  C
  H57      1.0000 0.54960  0.12500  0.22720  Biso   1.000  H
  C85      1.0000 0.40070  0.08920  0.15230  Biso   1.000  C
  H58      1.0000 0.47330  0.05970  0.13960  Biso   1.000  H
  C86      1.0000 0.39800  0.21200  0.27790  Biso   1.000  C
  C87      1.0000 0.43360  0.35000  0.43070  Biso   1.000  C
  H59      1.0000 0.50790  0.34850  0.46850  Biso   1.000  H
  C88      1.0000 0.44400  0.30690  0.38330  Biso   1.000  C
  H60      1.0000 0.52120  0.27630  0.38900  Biso   1.000  H
  C89      1.0000 0.33740  0.30920  0.32620  Biso   1.000  C
  C90      1.0000 0.23340  0.35740  0.31980  Biso   1.000  C
  H61      1.0000 0.16420  0.36200  0.28070  Biso   1.000  H
  C91      1.0000 0.23140  0.39790  0.37000  Biso   1.000  C
  H62      1.0000 0.16000  0.43030  0.36440  Biso   1.000  H
  C92      1.0000 0.35190  0.84330  0.95240  Biso   1.000  C
  C93      1.0000 0.35640  0.78700  0.91120  Biso   1.000  C
  C94      1.0000 0.24760  0.77550  0.86100  Biso   1.000  C
  H63      1.0000 0.16030  0.80200  0.85320  Biso   1.000  H
  C95      1.0000 0.25560  0.72760  0.82060  Biso   1.000  C
  H64      1.0000 0.18070  0.72400  0.78310  Biso   1.000  H
  C96      1.0000 0.36630  0.68540  0.83230  Biso   1.000  C
  C97      1.0000 0.47760  0.69690  0.88280  Biso   1.000  C
  H65      1.0000 0.55990  0.66880  0.89320  Biso   1.000  H
  C98      1.0000 0.47540  0.74820  0.92000  Biso   1.000  C
  H66      1.0000 0.56090  0.75570  0.95250  Biso   1.000  H
  C99      1.0000 0.38070  0.63190  0.79270  Biso   1.000  C
  C100     1.0000 0.28600  0.58500  0.68470  Biso   1.000  C
  C101     1.0000 0.18730  0.59340  0.62710  Biso   1.000  C
  H67      1.0000 0.12510  0.62830  0.62190  Biso   1.000  H
  C102     1.0000 0.17860  0.55150  0.57730  Biso   1.000  C
  H68      1.0000 0.11370  0.55880  0.53750  Biso   1.000  H
  C103     1.0000 0.35340  0.49120  0.64040  Biso   1.000  C
  H69      1.0000 0.41180  0.45550  0.64520  Biso   1.000  H
  C104     1.0000 0.36860  0.53100  0.69170  Biso   1.000  C
  H70      1.0000 0.43350  0.52240  0.73110  Biso   1.000  H
  N13      1.0000 0.32620  0.39420  0.42740  Biso   1.000  N
  N14      1.0000 0.32840  0.26670  0.27580  Biso   1.000  N
  N15      1.0000 0.26140  0.49962  0.58390  Biso   1.000  N
  N16      1.0000 0.29260  0.62950  0.73230  Biso   1.000  N
  O19      1.0000 0.28440  0.00715  0.05803  Biso   1.000  O
  O20      1.0000 0.06420  0.06078  0.03291  Biso   1.000  O
  O21      1.0000 0.23140  0.87651  0.93695  Biso   1.000  O
  O22      1.0000 0.45810  0.85270  0.99580  Biso   1.000  O
  O23      1.0000 0.46450  0.59040  0.81270  Biso   1.000  O
  O24      1.0000 0.49490  0.19680  0.32180  Biso   1.000  O
  Cu4      1.0000 0.21295  0.94572  0.99448  Biso   1.000  Cu
  H71      1.0000 0.27000  0.27900  0.24020  Biso   1.000  H
  H72      1.0000 0.23050  0.66000  0.72290  Biso   1.000  H
