data_image0
_cell_length_a       12.233
_cell_length_b       26.126
_cell_length_c       26.126
_cell_angle_alpha    90
_cell_angle_beta     90
_cell_angle_gamma    90

_symmetry_space_group_name_H-M    "P 1"
_symmetry_int_tables_number       1

loop_
  _symmetry_equiv_pos_as_xyz
  'x, y, z'

loop_
  _atom_site_label
  _atom_site_occupancy
  _atom_site_fract_x
  _atom_site_fract_y
  _atom_site_fract_z
  _atom_site_thermal_displace_type
  _atom_site_B_iso_or_equiv
  _atom_site_type_symbol
  O1       1.0000 0.70262  0.26258  0.19545  Biso   1.000  O
  O2       1.0000 0.54369  0.19022  0.19704  Biso   1.000  O
  C1       1.0000 0.65770  0.30265  0.17974  Biso   1.000  C
  C2       1.0000 0.70060  0.32792  0.13155  Biso   1.000  C
  O3       1.0000 0.57258  0.32396  0.19836  Biso   1.000  O
  O4       1.0000 0.41724  0.25137  0.19770  Biso   1.000  O
  C3       1.0000 0.64470  0.36941  0.11235  Biso   1.000  C
  C4       1.0000 0.78990  0.30630  0.10575  Biso   1.000  C
  H1       1.0000 0.58430  0.38280  0.12930  Biso   1.000  H
  C5       1.0000 0.68240  0.39105  0.06588  Biso   1.000  C
  C6       1.0000 0.82399  0.32828  0.05909  Biso   1.000  C
  H2       1.0000 0.82610  0.27800  0.11920  Biso   1.000  H
  C7       1.0000 0.76900  0.37070  0.03894  Biso   1.000  C
  C8       1.0000 0.61650  0.43446  0.04307  Biso   1.000  C
  O5       1.0000 0.90428  0.30970  0.02940  Biso   1.000  O
  H3       1.0000 0.79050  0.38490  0.00790  Biso   1.000  H
  O6       1.0000 0.52890  0.44637  0.06441  Biso   1.000  O
  O7       1.0000 0.65690  0.45492  0.00260  Biso   1.000  O
  C9       1.0000 0.96310  0.26586  0.04428  Biso   1.000  C
  O8       1.0000 0.37044  0.05929  0.00832  Biso   1.000  O
  Co1      1.0000 0.42415  0.49493  0.03641  Biso   1.000  Co
  H4       1.0000 0.91310  0.23840  0.05310  Biso   1.000  H
  H5       1.0000 0.00780  0.27340  0.07400  Biso   1.000  H
  O9       1.0000 0.49511  0.05111  0.06840  Biso   1.000  O
  C10      1.0000 0.10730  0.20521  0.01471  Biso   1.000  C
  H6       1.0000 0.06310  0.17540  0.02260  Biso   1.000  H
  H7       1.0000 0.15590  0.19660  0.98670  Biso   1.000  H
  O10      1.0000 0.16942  0.22040  0.05879  Biso   1.000  O
  C11      1.0000 0.25190  0.19132  0.07657  Biso   1.000  C
  C12      1.0000 0.28440  0.14602  0.05313  Biso   1.000  C
  C13      1.0000 0.30420  0.21236  0.11754  Biso   1.000  C
  H8       1.0000 0.24820  0.13330  0.02450  Biso   1.000  H
  C14      1.0000 0.37300  0.12057  0.07417  Biso   1.000  C
  C15      1.0000 0.39400  0.18586  0.13797  Biso   1.000  C
  H9       1.0000 0.28120  0.24330  0.13150  Biso   1.000  H
  C16      1.0000 0.43160  0.14015  0.11608  Biso   1.000  C
  C17      1.0000 0.41630  0.07412  0.04833  Biso   1.000  C
  C18      1.0000 0.45460  0.21084  0.17996  Biso   1.000  C
  H10      1.0000 0.49290  0.12340  0.12880  Biso   1.000  H
  O11      1.0000 0.29738  0.73742  0.69545  Biso   1.000  O
  O12      1.0000 0.45631  0.80978  0.69704  Biso   1.000  O
  C19      1.0000 0.34230  0.69735  0.67974  Biso   1.000  C
  C20      1.0000 0.29940  0.67208  0.63155  Biso   1.000  C
  O13      1.0000 0.42742  0.67604  0.69836  Biso   1.000  O
  O14      1.0000 0.58276  0.74863  0.69770  Biso   1.000  O
  C21      1.0000 0.35530  0.63059  0.61235  Biso   1.000  C
  C22      1.0000 0.21010  0.69370  0.60575  Biso   1.000  C
  H11      1.0000 0.41570  0.61720  0.62930  Biso   1.000  H
  C23      1.0000 0.31760  0.60895  0.56588  Biso   1.000  C
  C24      1.0000 0.17601  0.67172  0.55909  Biso   1.000  C
  H12      1.0000 0.17390  0.72200  0.61920  Biso   1.000  H
  C25      1.0000 0.23100  0.62930  0.53894  Biso   1.000  C
  C26      1.0000 0.38350  0.56554  0.54307  Biso   1.000  C
  O15      1.0000 0.09572  0.69030  0.52940  Biso   1.000  O
  H13      1.0000 0.20950  0.61510  0.50790  Biso   1.000  H
  O16      1.0000 0.47110  0.55363  0.56441  Biso   1.000  O
  O17      1.0000 0.34310  0.54508  0.50260  Biso   1.000  O
  C27      1.0000 0.03690  0.73414  0.54428  Biso   1.000  C
  O18      1.0000 0.62956  0.94071  0.50832  Biso   1.000  O
  Co2      1.0000 0.57585  0.50507  0.53641  Biso   1.000  Co
  H14      1.0000 0.08690  0.76160  0.55310  Biso   1.000  H
  H15      1.0000 0.99220  0.72660  0.57400  Biso   1.000  H
  O19      1.0000 0.50489  0.94889  0.56840  Biso   1.000  O
  C28      1.0000 0.89270  0.79479  0.51471  Biso   1.000  C
  H16      1.0000 0.93690  0.82460  0.52260  Biso   1.000  H
  H17      1.0000 0.84410  0.80340  0.48670  Biso   1.000  H
  O20      1.0000 0.83058  0.77960  0.55879  Biso   1.000  O
  C29      1.0000 0.74810  0.80868  0.57657  Biso   1.000  C
  C30      1.0000 0.71560  0.85398  0.55313  Biso   1.000  C
  C31      1.0000 0.69580  0.78764  0.61754  Biso   1.000  C
  H18      1.0000 0.75180  0.86670  0.52450  Biso   1.000  H
  C32      1.0000 0.62700  0.87943  0.57417  Biso   1.000  C
  C33      1.0000 0.60600  0.81414  0.63797  Biso   1.000  C
  H19      1.0000 0.71880  0.75670  0.63150  Biso   1.000  H
  C34      1.0000 0.56840  0.85985  0.61608  Biso   1.000  C
  C35      1.0000 0.58370  0.92588  0.54833  Biso   1.000  C
  C36      1.0000 0.54540  0.78916  0.67996  Biso   1.000  C
  H20      1.0000 0.50710  0.87660  0.62880  Biso   1.000  H
  O21      1.0000 0.29738  0.76258  0.30455  Biso   1.000  O
  O22      1.0000 0.45631  0.69022  0.30296  Biso   1.000  O
  C37      1.0000 0.34230  0.80265  0.32026  Biso   1.000  C
  C38      1.0000 0.29940  0.82792  0.36845  Biso   1.000  C
  O23      1.0000 0.42742  0.82396  0.30164  Biso   1.000  O
  O24      1.0000 0.58276  0.75137  0.30230  Biso   1.000  O
  C39      1.0000 0.35530  0.86941  0.38765  Biso   1.000  C
  C40      1.0000 0.21010  0.80630  0.39425  Biso   1.000  C
  H21      1.0000 0.41570  0.88280  0.37070  Biso   1.000  H
  C41      1.0000 0.31760  0.89105  0.43412  Biso   1.000  C
  C42      1.0000 0.17601  0.82828  0.44091  Biso   1.000  C
  H22      1.0000 0.17390  0.77800  0.38080  Biso   1.000  H
  C43      1.0000 0.23100  0.87070  0.46106  Biso   1.000  C
  C44      1.0000 0.38350  0.93446  0.45693  Biso   1.000  C
  O25      1.0000 0.09572  0.80970  0.47060  Biso   1.000  O
  H23      1.0000 0.20950  0.88490  0.49210  Biso   1.000  H
  O26      1.0000 0.47110  0.94637  0.43559  Biso   1.000  O
  O27      1.0000 0.34310  0.95492  0.49740  Biso   1.000  O
  C45      1.0000 0.03690  0.76586  0.45572  Biso   1.000  C
  O28      1.0000 0.62956  0.55929  0.49168  Biso   1.000  O
  Co3      1.0000 0.57585  0.99493  0.46359  Biso   1.000  Co
  H24      1.0000 0.08690  0.73840  0.44690  Biso   1.000  H
  H25      1.0000 0.99220  0.77340  0.42600  Biso   1.000  H
  O29      1.0000 0.50489  0.55111  0.43160  Biso   1.000  O
  C46      1.0000 0.89270  0.70521  0.48529  Biso   1.000  C
  H26      1.0000 0.93690  0.67540  0.47740  Biso   1.000  H
  H27      1.0000 0.84410  0.69660  0.51330  Biso   1.000  H
  O30      1.0000 0.83058  0.72040  0.44121  Biso   1.000  O
  C47      1.0000 0.74810  0.69132  0.42343  Biso   1.000  C
  C48      1.0000 0.71560  0.64602  0.44687  Biso   1.000  C
  C49      1.0000 0.69580  0.71236  0.38246  Biso   1.000  C
  H28      1.0000 0.75180  0.63330  0.47550  Biso   1.000  H
  C50      1.0000 0.62700  0.62057  0.42583  Biso   1.000  C
  C51      1.0000 0.60600  0.68586  0.36203  Biso   1.000  C
  H29      1.0000 0.71880  0.74330  0.36850  Biso   1.000  H
  C52      1.0000 0.56840  0.64015  0.38392  Biso   1.000  C
  C53      1.0000 0.58370  0.57412  0.45167  Biso   1.000  C
  C54      1.0000 0.54540  0.71084  0.32004  Biso   1.000  C
  H30      1.0000 0.50710  0.62340  0.37120  Biso   1.000  H
  O31      1.0000 0.70262  0.23742  0.80455  Biso   1.000  O
  O32      1.0000 0.54369  0.30978  0.80296  Biso   1.000  O
  C55      1.0000 0.65770  0.19735  0.82026  Biso   1.000  C
  C56      1.0000 0.70060  0.17208  0.86845  Biso   1.000  C
  O33      1.0000 0.57258  0.17604  0.80164  Biso   1.000  O
  O34      1.0000 0.41724  0.24863  0.80230  Biso   1.000  O
  C57      1.0000 0.64470  0.13059  0.88765  Biso   1.000  C
  C58      1.0000 0.78990  0.19370  0.89425  Biso   1.000  C
  H31      1.0000 0.58430  0.11720  0.87070  Biso   1.000  H
  C59      1.0000 0.68240  0.10895  0.93412  Biso   1.000  C
  C60      1.0000 0.82399  0.17172  0.94091  Biso   1.000  C
  H32      1.0000 0.82610  0.22200  0.88080  Biso   1.000  H
  C61      1.0000 0.76900  0.12930  0.96106  Biso   1.000  C
  C62      1.0000 0.61650  0.06554  0.95693  Biso   1.000  C
  O35      1.0000 0.90428  0.19030  0.97060  Biso   1.000  O
  H33      1.0000 0.79050  0.11510  0.99210  Biso   1.000  H
  O36      1.0000 0.52890  0.05363  0.93559  Biso   1.000  O
  O37      1.0000 0.65690  0.04508  0.99740  Biso   1.000  O
  C63      1.0000 0.96310  0.23414  0.95572  Biso   1.000  C
  O38      1.0000 0.37044  0.44071  0.99168  Biso   1.000  O
  Co4      1.0000 0.42415  0.00507  0.96359  Biso   1.000  Co
  H34      1.0000 0.91310  0.26160  0.94690  Biso   1.000  H
  H35      1.0000 0.00780  0.22660  0.92600  Biso   1.000  H
  O39      1.0000 0.49511  0.44889  0.93160  Biso   1.000  O
  C64      1.0000 0.10730  0.29479  0.98529  Biso   1.000  C
  H36      1.0000 0.06310  0.32460  0.97740  Biso   1.000  H
  H37      1.0000 0.15590  0.30340  0.01330  Biso   1.000  H
  O40      1.0000 0.16942  0.27960  0.94121  Biso   1.000  O
  C65      1.0000 0.25190  0.30868  0.92343  Biso   1.000  C
  C66      1.0000 0.28440  0.35398  0.94687  Biso   1.000  C
  C67      1.0000 0.30420  0.28764  0.88246  Biso   1.000  C
  H38      1.0000 0.24820  0.36670  0.97550  Biso   1.000  H
  C68      1.0000 0.37300  0.37943  0.92583  Biso   1.000  C
  C69      1.0000 0.39400  0.31414  0.86203  Biso   1.000  C
  H39      1.0000 0.28120  0.25670  0.86850  Biso   1.000  H
  C70      1.0000 0.43160  0.35985  0.88392  Biso   1.000  C
  C71      1.0000 0.41630  0.42588  0.95167  Biso   1.000  C
  C72      1.0000 0.45460  0.28916  0.82004  Biso   1.000  C
  H40      1.0000 0.49290  0.37660  0.87120  Biso   1.000  H
  O41      1.0000 0.29738  0.73742  0.80455  Biso   1.000  O
  O42      1.0000 0.45631  0.80978  0.80296  Biso   1.000  O
  C73      1.0000 0.34230  0.69735  0.82026  Biso   1.000  C
  C74      1.0000 0.29940  0.67208  0.86845  Biso   1.000  C
  O43      1.0000 0.42742  0.67604  0.80164  Biso   1.000  O
  O44      1.0000 0.58276  0.74863  0.80230  Biso   1.000  O
  C75      1.0000 0.35530  0.63059  0.88765  Biso   1.000  C
  C76      1.0000 0.21010  0.69370  0.89425  Biso   1.000  C
  H41      1.0000 0.41570  0.61720  0.87070  Biso   1.000  H
  C77      1.0000 0.31760  0.60895  0.93412  Biso   1.000  C
  C78      1.0000 0.17601  0.67172  0.94091  Biso   1.000  C
  H42      1.0000 0.17390  0.72200  0.88080  Biso   1.000  H
  C79      1.0000 0.23100  0.62930  0.96106  Biso   1.000  C
  C80      1.0000 0.38350  0.56554  0.95693  Biso   1.000  C
  O45      1.0000 0.09572  0.69030  0.97060  Biso   1.000  O
  H43      1.0000 0.20950  0.61510  0.99210  Biso   1.000  H
  O46      1.0000 0.47110  0.55363  0.93559  Biso   1.000  O
  O47      1.0000 0.34310  0.54508  0.99740  Biso   1.000  O
  C81      1.0000 0.03690  0.73414  0.95572  Biso   1.000  C
  O48      1.0000 0.62956  0.94071  0.99168  Biso   1.000  O
  Co5      1.0000 0.57585  0.50507  0.96359  Biso   1.000  Co
  H44      1.0000 0.08690  0.76160  0.94690  Biso   1.000  H
  H45      1.0000 0.99220  0.72660  0.92600  Biso   1.000  H
  O49      1.0000 0.50489  0.94889  0.93160  Biso   1.000  O
  C82      1.0000 0.89270  0.79479  0.98529  Biso   1.000  C
  H46      1.0000 0.93690  0.82460  0.97740  Biso   1.000  H
  H47      1.0000 0.84410  0.80340  0.01330  Biso   1.000  H
  O50      1.0000 0.83058  0.77960  0.94121  Biso   1.000  O
  C83      1.0000 0.74810  0.80868  0.92343  Biso   1.000  C
  C84      1.0000 0.71560  0.85398  0.94687  Biso   1.000  C
  C85      1.0000 0.69580  0.78764  0.88246  Biso   1.000  C
  H48      1.0000 0.75180  0.86670  0.97550  Biso   1.000  H
  C86      1.0000 0.62700  0.87943  0.92583  Biso   1.000  C
  C87      1.0000 0.60600  0.81414  0.86203  Biso   1.000  C
  H49      1.0000 0.71880  0.75670  0.86850  Biso   1.000  H
  C88      1.0000 0.56840  0.85985  0.88392  Biso   1.000  C
  C89      1.0000 0.58370  0.92588  0.95167  Biso   1.000  C
  C90      1.0000 0.54540  0.78916  0.82004  Biso   1.000  C
  H50      1.0000 0.50710  0.87660  0.87120  Biso   1.000  H
  O51      1.0000 0.70262  0.26258  0.30455  Biso   1.000  O
  O52      1.0000 0.54369  0.19022  0.30296  Biso   1.000  O
  C91      1.0000 0.65770  0.30265  0.32026  Biso   1.000  C
  C92      1.0000 0.70060  0.32792  0.36845  Biso   1.000  C
  O53      1.0000 0.57258  0.32396  0.30164  Biso   1.000  O
  O54      1.0000 0.41724  0.25137  0.30230  Biso   1.000  O
  C93      1.0000 0.64470  0.36941  0.38765  Biso   1.000  C
  C94      1.0000 0.78990  0.30630  0.39425  Biso   1.000  C
  H51      1.0000 0.58430  0.38280  0.37070  Biso   1.000  H
  C95      1.0000 0.68240  0.39105  0.43412  Biso   1.000  C
  C96      1.0000 0.82399  0.32828  0.44091  Biso   1.000  C
  H52      1.0000 0.82610  0.27800  0.38080  Biso   1.000  H
  C97      1.0000 0.76900  0.37070  0.46106  Biso   1.000  C
  C98      1.0000 0.61650  0.43446  0.45693  Biso   1.000  C
  O55      1.0000 0.90428  0.30970  0.47060  Biso   1.000  O
  H53      1.0000 0.79050  0.38490  0.49210  Biso   1.000  H
  O56      1.0000 0.52890  0.44637  0.43559  Biso   1.000  O
  O57      1.0000 0.65690  0.45492  0.49740  Biso   1.000  O
  C99      1.0000 0.96310  0.26586  0.45572  Biso   1.000  C
  O58      1.0000 0.37044  0.05929  0.49168  Biso   1.000  O
  Co6      1.0000 0.42415  0.49493  0.46359  Biso   1.000  Co
  H54      1.0000 0.91310  0.23840  0.44690  Biso   1.000  H
  H55      1.0000 0.00780  0.27340  0.42600  Biso   1.000  H
  O59      1.0000 0.49511  0.05111  0.43160  Biso   1.000  O
  C100     1.0000 0.10730  0.20521  0.48529  Biso   1.000  C
  H56      1.0000 0.06310  0.17540  0.47740  Biso   1.000  H
  H57      1.0000 0.15590  0.19660  0.51330  Biso   1.000  H
  O60      1.0000 0.16942  0.22040  0.44121  Biso   1.000  O
  C101     1.0000 0.25190  0.19132  0.42343  Biso   1.000  C
  C102     1.0000 0.28440  0.14602  0.44687  Biso   1.000  C
  C103     1.0000 0.30420  0.21236  0.38246  Biso   1.000  C
  H58      1.0000 0.24820  0.13330  0.47550  Biso   1.000  H
  C104     1.0000 0.37300  0.12057  0.42583  Biso   1.000  C
  C105     1.0000 0.39400  0.18586  0.36203  Biso   1.000  C
  H59      1.0000 0.28120  0.24330  0.36850  Biso   1.000  H
  C106     1.0000 0.43160  0.14015  0.38392  Biso   1.000  C
  C107     1.0000 0.41630  0.07412  0.45167  Biso   1.000  C
  C108     1.0000 0.45460  0.21084  0.32004  Biso   1.000  C
  H60      1.0000 0.49290  0.12340  0.37120  Biso   1.000  H
  O61      1.0000 0.70262  0.23742  0.69545  Biso   1.000  O
  O62      1.0000 0.54369  0.30978  0.69704  Biso   1.000  O
  C109     1.0000 0.65770  0.19735  0.67974  Biso   1.000  C
  C110     1.0000 0.70060  0.17208  0.63155  Biso   1.000  C
  O63      1.0000 0.57258  0.17604  0.69836  Biso   1.000  O
  O64      1.0000 0.41724  0.24863  0.69770  Biso   1.000  O
  C111     1.0000 0.64470  0.13059  0.61235  Biso   1.000  C
  C112     1.0000 0.78990  0.19370  0.60575  Biso   1.000  C
  H61      1.0000 0.58430  0.11720  0.62930  Biso   1.000  H
  C113     1.0000 0.68240  0.10895  0.56588  Biso   1.000  C
  C114     1.0000 0.82399  0.17172  0.55909  Biso   1.000  C
  H62      1.0000 0.82610  0.22200  0.61920  Biso   1.000  H
  C115     1.0000 0.76900  0.12930  0.53894  Biso   1.000  C
  C116     1.0000 0.61650  0.06554  0.54307  Biso   1.000  C
  O65      1.0000 0.90428  0.19030  0.52940  Biso   1.000  O
  H63      1.0000 0.79050  0.11510  0.50790  Biso   1.000  H
  O66      1.0000 0.52890  0.05363  0.56441  Biso   1.000  O
  O67      1.0000 0.65690  0.04508  0.50260  Biso   1.000  O
  C117     1.0000 0.96310  0.23414  0.54428  Biso   1.000  C
  O68      1.0000 0.37044  0.44071  0.50832  Biso   1.000  O
  Co7      1.0000 0.42415  0.00507  0.53641  Biso   1.000  Co
  H64      1.0000 0.91310  0.26160  0.55310  Biso   1.000  H
  H65      1.0000 0.00780  0.22660  0.57400  Biso   1.000  H
  O69      1.0000 0.49511  0.44889  0.56840  Biso   1.000  O
  C118     1.0000 0.10730  0.29479  0.51471  Biso   1.000  C
  H66      1.0000 0.06310  0.32460  0.52260  Biso   1.000  H
  H67      1.0000 0.15590  0.30340  0.48670  Biso   1.000  H
  O70      1.0000 0.16942  0.27960  0.55879  Biso   1.000  O
  C119     1.0000 0.25190  0.30868  0.57657  Biso   1.000  C
  C120     1.0000 0.28440  0.35398  0.55313  Biso   1.000  C
  C121     1.0000 0.30420  0.28764  0.61754  Biso   1.000  C
  H68      1.0000 0.24820  0.36670  0.52450  Biso   1.000  H
  C122     1.0000 0.37300  0.37943  0.57417  Biso   1.000  C
  C123     1.0000 0.39400  0.31414  0.63797  Biso   1.000  C
  H69      1.0000 0.28120  0.25670  0.63150  Biso   1.000  H
  C124     1.0000 0.43160  0.35985  0.61608  Biso   1.000  C
  C125     1.0000 0.41630  0.42588  0.54833  Biso   1.000  C
  C126     1.0000 0.45460  0.28916  0.67996  Biso   1.000  C
  H70      1.0000 0.49290  0.37660  0.62880  Biso   1.000  H
  O71      1.0000 0.29738  0.76258  0.19545  Biso   1.000  O
  O72      1.0000 0.45631  0.69022  0.19704  Biso   1.000  O
  C127     1.0000 0.34230  0.80265  0.17974  Biso   1.000  C
  C128     1.0000 0.29940  0.82792  0.13155  Biso   1.000  C
  O73      1.0000 0.42742  0.82396  0.19836  Biso   1.000  O
  O74      1.0000 0.58276  0.75137  0.19770  Biso   1.000  O
  C129     1.0000 0.35530  0.86941  0.11235  Biso   1.000  C
  C130     1.0000 0.21010  0.80630  0.10575  Biso   1.000  C
  H71      1.0000 0.41570  0.88280  0.12930  Biso   1.000  H
  C131     1.0000 0.31760  0.89105  0.06588  Biso   1.000  C
  C132     1.0000 0.17601  0.82828  0.05909  Biso   1.000  C
  H72      1.0000 0.17390  0.77800  0.11920  Biso   1.000  H
  C133     1.0000 0.23100  0.87070  0.03894  Biso   1.000  C
  C134     1.0000 0.38350  0.93446  0.04307  Biso   1.000  C
  O75      1.0000 0.09572  0.80970  0.02940  Biso   1.000  O
  H73      1.0000 0.20950  0.88490  0.00790  Biso   1.000  H
  O76      1.0000 0.47110  0.94637  0.06441  Biso   1.000  O
  O77      1.0000 0.34310  0.95492  0.00260  Biso   1.000  O
  C135     1.0000 0.03690  0.76586  0.04428  Biso   1.000  C
  O78      1.0000 0.62956  0.55929  0.00832  Biso   1.000  O
  Co8      1.0000 0.57585  0.99493  0.03641  Biso   1.000  Co
  H74      1.0000 0.08690  0.73840  0.05310  Biso   1.000  H
  H75      1.0000 0.99220  0.77340  0.07400  Biso   1.000  H
  O79      1.0000 0.50489  0.55111  0.06840  Biso   1.000  O
  C136     1.0000 0.89270  0.70521  0.01471  Biso   1.000  C
  H76      1.0000 0.93690  0.67540  0.02260  Biso   1.000  H
  H77      1.0000 0.84410  0.69660  0.98670  Biso   1.000  H
  O80      1.0000 0.83058  0.72040  0.05879  Biso   1.000  O
  C137     1.0000 0.74810  0.69132  0.07657  Biso   1.000  C
  C138     1.0000 0.71560  0.64602  0.05313  Biso   1.000  C
  C139     1.0000 0.69580  0.71236  0.11754  Biso   1.000  C
  H78      1.0000 0.75180  0.63330  0.02450  Biso   1.000  H
  C140     1.0000 0.62700  0.62057  0.07417  Biso   1.000  C
  C141     1.0000 0.60600  0.68586  0.13797  Biso   1.000  C
  H79      1.0000 0.71880  0.74330  0.13150  Biso   1.000  H
  C142     1.0000 0.56840  0.64015  0.11608  Biso   1.000  C
  C143     1.0000 0.58370  0.57412  0.04833  Biso   1.000  C
  C144     1.0000 0.54540  0.71084  0.17996  Biso   1.000  C
  H80      1.0000 0.50710  0.62340  0.12880  Biso   1.000  H
  Co9      1.0000 0.63617  0.22058  0.25000  Biso   1.000  Co
  Co10     1.0000 0.48268  0.29358  0.25000  Biso   1.000  Co
  Co11     1.0000 0.36383  0.77942  0.75000  Biso   1.000  Co
  Co12     1.0000 0.51732  0.70642  0.75000  Biso   1.000  Co
  Co13     1.0000 0.36383  0.72058  0.25000  Biso   1.000  Co
  Co14     1.0000 0.51732  0.79358  0.25000  Biso   1.000  Co
  Co15     1.0000 0.63617  0.27942  0.75000  Biso   1.000  Co
  Co16     1.0000 0.48268  0.20642  0.75000  Biso   1.000  Co
  C145     1.0000 0.03460  0.25000  0.00000  Biso   1.000  C
  C146     1.0000 0.96540  0.75000  0.50000  Biso   1.000  C
  C147     1.0000 0.96540  0.75000  0.00000  Biso   1.000  C
  C148     1.0000 0.03460  0.25000  0.50000  Biso   1.000  C
