data_image0
_cell_length_a       15.6152
_cell_length_b       15.6152
_cell_length_c       7.4963
_cell_angle_alpha    90
_cell_angle_beta     90
_cell_angle_gamma    90

_symmetry_space_group_name_H-M    "P 1"
_symmetry_int_tables_number       1

loop_
  _symmetry_equiv_pos_as_xyz
  'x, y, z'

loop_
  _atom_site_label
  _atom_site_occupancy
  _atom_site_fract_x
  _atom_site_fract_y
  _atom_site_fract_z
  _atom_site_thermal_displace_type
  _atom_site_B_iso_or_equiv
  _atom_site_type_symbol
  Zr1      1.0000 0.00000  0.00000  0.25000  Biso   1.000  Zr
  Zr2      1.0000 0.00000  0.00000  0.75000  Biso   1.000  Zr
  N1       1.0000 0.45773  0.00000  0.15250  Biso   1.000  N
  C1       1.0000 0.27682  0.00000  0.16058  Biso   1.000  C
  C2       1.0000 0.18780  0.00000  0.16058  Biso   1.000  C
  H1       1.0000 0.30660  0.00000  0.26802  Biso   1.000  H
  O1       1.0000 0.14618  0.00000  0.31077  Biso   1.000  O
  N2       1.0000 0.54227  0.00000  0.15250  Biso   1.000  N
  C3       1.0000 0.72318  0.00000  0.16058  Biso   1.000  C
  C4       1.0000 0.81220  0.00000  0.16058  Biso   1.000  C
  H2       1.0000 0.69340  0.00000  0.26802  Biso   1.000  H
  O2       1.0000 0.85382  0.00000  0.31077  Biso   1.000  O
  N3       1.0000 0.00000  0.45773  0.65250  Biso   1.000  N
  C5       1.0000 0.00000  0.27682  0.66058  Biso   1.000  C
  C6       1.0000 0.00000  0.18780  0.66058  Biso   1.000  C
  H3       1.0000 0.00000  0.30660  0.76802  Biso   1.000  H
  O3       1.0000 0.00000  0.14618  0.81077  Biso   1.000  O
  N4       1.0000 0.00000  0.54227  0.65250  Biso   1.000  N
  C7       1.0000 0.00000  0.72318  0.66058  Biso   1.000  C
  C8       1.0000 0.00000  0.81220  0.66058  Biso   1.000  C
  H4       1.0000 0.00000  0.69340  0.76802  Biso   1.000  H
  O4       1.0000 0.00000  0.85382  0.81077  Biso   1.000  O
  N5       1.0000 0.54227  0.00000  0.84750  Biso   1.000  N
  C9       1.0000 0.72318  0.00000  0.83942  Biso   1.000  C
  C10      1.0000 0.81220  0.00000  0.83942  Biso   1.000  C
  H5       1.0000 0.69340  0.00000  0.73198  Biso   1.000  H
  O5       1.0000 0.85382  0.00000  0.68923  Biso   1.000  O
  N6       1.0000 0.45773  0.00000  0.84750  Biso   1.000  N
  C11      1.0000 0.27682  0.00000  0.83942  Biso   1.000  C
  C12      1.0000 0.18780  0.00000  0.83942  Biso   1.000  C
  H6       1.0000 0.30660  0.00000  0.73198  Biso   1.000  H
  O6       1.0000 0.14618  0.00000  0.68923  Biso   1.000  O
  N7       1.0000 0.00000  0.45773  0.34750  Biso   1.000  N
  C13      1.0000 0.00000  0.27682  0.33942  Biso   1.000  C
  C14      1.0000 0.00000  0.18780  0.33942  Biso   1.000  C
  H7       1.0000 0.00000  0.30660  0.23198  Biso   1.000  H
  O7       1.0000 0.00000  0.14618  0.18923  Biso   1.000  O
  N8       1.0000 0.00000  0.54227  0.34750  Biso   1.000  N
  C15      1.0000 0.00000  0.72318  0.33942  Biso   1.000  C
  C16      1.0000 0.00000  0.81220  0.33942  Biso   1.000  C
  H8       1.0000 0.00000  0.69340  0.23198  Biso   1.000  H
  O8       1.0000 0.00000  0.85382  0.18923  Biso   1.000  O
  C17      1.0000 0.41547  0.00000  0.00000  Biso   1.000  C
  C18      1.0000 0.32133  0.00000  0.00000  Biso   1.000  C
  C19      1.0000 0.14330  0.00000  0.00000  Biso   1.000  C
  O9       1.0000 0.06643  0.00000  0.00000  Biso   1.000  O
  C20      1.0000 0.58453  0.00000  0.00000  Biso   1.000  C
  C21      1.0000 0.67867  0.00000  0.00000  Biso   1.000  C
  C22      1.0000 0.85670  0.00000  0.00000  Biso   1.000  C
  O10      1.0000 0.93357  0.00000  0.00000  Biso   1.000  O
  C23      1.0000 0.00000  0.41547  0.50000  Biso   1.000  C
  C24      1.0000 0.00000  0.32133  0.50000  Biso   1.000  C
  C25      1.0000 0.00000  0.14330  0.50000  Biso   1.000  C
  O11      1.0000 0.00000  0.06643  0.50000  Biso   1.000  O
  C26      1.0000 0.00000  0.58453  0.50000  Biso   1.000  C
  C27      1.0000 0.00000  0.67867  0.50000  Biso   1.000  C
  C28      1.0000 0.00000  0.85670  0.50000  Biso   1.000  C
  O12      1.0000 0.00000  0.93357  0.50000  Biso   1.000  O
