data_WUTCAP_clean
_audit_creation_date              2014-07-02
_audit_creation_method            'Materials Studio'
_symmetry_space_group_name_H-M    'P1'
_symmetry_Int_Tables_number       1
_symmetry_cell_setting            triclinic
loop_
_symmetry_equiv_pos_as_xyz
  x,y,z
_cell_length_a                    13.3031
_cell_length_b                    13.3031
_cell_length_c                    14.5660
_cell_angle_alpha                 90.0000
_cell_angle_beta                  90.0000
_cell_angle_gamma                 120.0000
loop_
_atom_site_label
_atom_site_type_symbol
_atom_site_fract_x
_atom_site_fract_y
_atom_site_fract_z
_atom_site_U_iso_or_equiv
_atom_site_adp_type
_atom_site_occupancy
Eu1    Eu    0.33333   0.66666   0.66859   0.01267  Uiso   1.00
Eu2    Eu    0.66667   0.33334   0.83142   0.01267  Uiso   1.00
Eu3    Eu    0.66667   0.33334   0.33142   0.01267  Uiso   1.00
Eu4    Eu    0.33333   0.66666   0.16858   0.01267  Uiso   1.00
Cu1    Cu    0.50000   0.00000   0.50000   0.01267  Uiso   1.00
Cu2    Cu    0.50000   0.50000   0.50000   0.01267  Uiso   1.00
Cu3    Cu    0.00000   0.50000   0.50000   0.01267  Uiso   1.00
Cu4    Cu    0.50000   0.00000   0.00000   0.01267  Uiso   1.00
Cu5    Cu    0.00000   0.50000   0.00000   0.01267  Uiso   1.00
Cu6    Cu    0.50000   0.50000   0.00000   0.01267  Uiso   1.00
H1     H     0.70760   0.96150   0.55050   0.01267  Uiso   1.00
H2     H     0.68270   0.86170   0.48090   0.01267  Uiso   1.00
H3     H     0.67580   0.02460   0.42250   0.01267  Uiso   1.00
H4     H     0.54160   0.80750   0.37210   0.01267  Uiso   1.00
H5     H     0.60380   0.91640   0.30820   0.01267  Uiso   1.00
H6     H     0.25390   0.29240   0.55050   0.01267  Uiso   1.00
H7     H     0.17900   0.31730   0.48090   0.01267  Uiso   1.00
H8     H     0.34880   0.32420   0.42250   0.01267  Uiso   1.00
H9     H     0.26590   0.45840   0.37210   0.01267  Uiso   1.00
H10    H     0.31260   0.39620   0.30820   0.01267  Uiso   1.00
H11    H     0.03850   0.74610   0.55050   0.01267  Uiso   1.00
H12    H     0.13830   0.82100   0.48090   0.01267  Uiso   1.00
H13    H     0.97540   0.65120   0.42250   0.01267  Uiso   1.00
H14    H     0.19250   0.73410   0.37210   0.01267  Uiso   1.00
H15    H     0.08360   0.68740   0.30820   0.01267  Uiso   1.00
H16    H     0.74610   0.03850   0.94950   0.01267  Uiso   1.00
H17    H     0.82100   0.13830   0.01910   0.01267  Uiso   1.00
H18    H     0.65120   0.97540   0.07750   0.01267  Uiso   1.00
H19    H     0.73410   0.19250   0.12790   0.01267  Uiso   1.00
H20    H     0.68740   0.08360   0.19180   0.01267  Uiso   1.00
H21    H     0.96150   0.70760   0.94950   0.01267  Uiso   1.00
H22    H     0.86170   0.68270   0.01910   0.01267  Uiso   1.00
H23    H     0.02460   0.67580   0.07750   0.01267  Uiso   1.00
H24    H     0.80750   0.54160   0.12790   0.01267  Uiso   1.00
H25    H     0.91640   0.60380   0.19180   0.01267  Uiso   1.00
H26    H     0.29240   0.25390   0.94950   0.01267  Uiso   1.00
H27    H     0.31730   0.17900   0.01910   0.01267  Uiso   1.00
H28    H     0.32420   0.34880   0.07750   0.01267  Uiso   1.00
H29    H     0.45840   0.26590   0.12790   0.01267  Uiso   1.00
H30    H     0.39620   0.31260   0.19180   0.01267  Uiso   1.00
H31    H     0.29240   0.03850   0.44950   0.01267  Uiso   1.00
H32    H     0.31730   0.13830   0.51910   0.01267  Uiso   1.00
H33    H     0.32420   0.97540   0.57750   0.01267  Uiso   1.00
H34    H     0.45840   0.19250   0.62790   0.01267  Uiso   1.00
H35    H     0.39620   0.08360   0.69180   0.01267  Uiso   1.00
H36    H     0.74610   0.70760   0.44950   0.01267  Uiso   1.00
H37    H     0.82100   0.68270   0.51910   0.01267  Uiso   1.00
H38    H     0.65120   0.67580   0.57750   0.01267  Uiso   1.00
H39    H     0.73410   0.54160   0.62790   0.01267  Uiso   1.00
H40    H     0.68740   0.60380   0.69180   0.01267  Uiso   1.00
H41    H     0.96150   0.25390   0.44950   0.01267  Uiso   1.00
H42    H     0.86170   0.17900   0.51910   0.01267  Uiso   1.00
H43    H     0.02460   0.34880   0.57750   0.01267  Uiso   1.00
H44    H     0.80750   0.26590   0.62790   0.01267  Uiso   1.00
H45    H     0.91640   0.31260   0.69180   0.01267  Uiso   1.00
H46    H     0.25390   0.96150   0.05050   0.01267  Uiso   1.00
H47    H     0.17900   0.86170   0.98090   0.01267  Uiso   1.00
H48    H     0.34880   0.02460   0.92250   0.01267  Uiso   1.00
H49    H     0.26590   0.80750   0.87210   0.01267  Uiso   1.00
H50    H     0.31260   0.91640   0.80820   0.01267  Uiso   1.00
H51    H     0.03850   0.29240   0.05050   0.01267  Uiso   1.00
H52    H     0.13830   0.31730   0.98090   0.01267  Uiso   1.00
H53    H     0.97540   0.32420   0.92250   0.01267  Uiso   1.00
H54    H     0.19250   0.45840   0.87210   0.01267  Uiso   1.00
H55    H     0.08360   0.39620   0.80820   0.01267  Uiso   1.00
H56    H     0.70760   0.74610   0.05050   0.01267  Uiso   1.00
H57    H     0.68270   0.82100   0.98090   0.01267  Uiso   1.00
H58    H     0.67580   0.65120   0.92250   0.01267  Uiso   1.00
H59    H     0.54160   0.73410   0.87210   0.01267  Uiso   1.00
H60    H     0.60380   0.68740   0.80820   0.01267  Uiso   1.00
C1     C     0.54840   0.81770   0.57000   0.01267  Uiso   1.00
C2     C     0.64860   0.90230   0.51150   0.01267  Uiso   1.00
C3     C     0.55360   0.88460   0.36130   0.01267  Uiso   1.00
C4     C     0.43910   0.87580   0.34060   0.01267  Uiso   1.00
C5     C     0.26930   0.45160   0.57000   0.01267  Uiso   1.00
C6     C     0.25370   0.35140   0.51150   0.01267  Uiso   1.00
C7     C     0.33100   0.44640   0.36130   0.01267  Uiso   1.00
C8     C     0.43670   0.56090   0.34060   0.01267  Uiso   1.00
C9     C     0.18230   0.73070   0.57000   0.01267  Uiso   1.00
C10    C     0.09770   0.74630   0.51150   0.01267  Uiso   1.00
C11    C     0.11540   0.66900   0.36130   0.01267  Uiso   1.00
C12    C     0.12420   0.56330   0.34060   0.01267  Uiso   1.00
C13    C     0.73070   0.18230   0.93000   0.01267  Uiso   1.00
C14    C     0.74630   0.09770   0.98850   0.01267  Uiso   1.00
C15    C     0.66900   0.11540   0.13870   0.01267  Uiso   1.00
C16    C     0.56330   0.12420   0.15940   0.01267  Uiso   1.00
C17    C     0.81770   0.54840   0.93000   0.01267  Uiso   1.00
C18    C     0.90230   0.64860   0.98850   0.01267  Uiso   1.00
C19    C     0.88460   0.55360   0.13870   0.01267  Uiso   1.00
C20    C     0.87580   0.43910   0.15940   0.01267  Uiso   1.00
C21    C     0.45160   0.26930   0.93000   0.01267  Uiso   1.00
C22    C     0.35140   0.25370   0.98850   0.01267  Uiso   1.00
C23    C     0.44640   0.33100   0.13870   0.01267  Uiso   1.00
C24    C     0.56090   0.43670   0.15940   0.01267  Uiso   1.00
C25    C     0.45160   0.18230   0.43000   0.01267  Uiso   1.00
C26    C     0.35140   0.09770   0.48850   0.01267  Uiso   1.00
C27    C     0.44640   0.11540   0.63870   0.01267  Uiso   1.00
C28    C     0.56090   0.12420   0.65940   0.01267  Uiso   1.00
C29    C     0.73070   0.54840   0.43000   0.01267  Uiso   1.00
C30    C     0.74630   0.64860   0.48850   0.01267  Uiso   1.00
C31    C     0.66900   0.55360   0.63870   0.01267  Uiso   1.00
C32    C     0.56330   0.43910   0.65940   0.01267  Uiso   1.00
C33    C     0.81770   0.26930   0.43000   0.01267  Uiso   1.00
C34    C     0.90230   0.25370   0.48850   0.01267  Uiso   1.00
C35    C     0.88460   0.33100   0.63870   0.01267  Uiso   1.00
C36    C     0.87580   0.43670   0.65940   0.01267  Uiso   1.00
C37    C     0.26930   0.81770   0.07000   0.01267  Uiso   1.00
C38    C     0.25370   0.90230   0.01150   0.01267  Uiso   1.00
C39    C     0.33100   0.88460   0.86130   0.01267  Uiso   1.00
C40    C     0.43670   0.87580   0.84060   0.01267  Uiso   1.00
C41    C     0.18230   0.45160   0.07000   0.01267  Uiso   1.00
C42    C     0.09770   0.35140   0.01150   0.01267  Uiso   1.00
C43    C     0.11540   0.44640   0.86130   0.01267  Uiso   1.00
C44    C     0.12420   0.56090   0.84060   0.01267  Uiso   1.00
C45    C     0.54840   0.73070   0.07000   0.01267  Uiso   1.00
C46    C     0.64860   0.74630   0.01150   0.01267  Uiso   1.00
C47    C     0.55360   0.66900   0.86130   0.01267  Uiso   1.00
C48    C     0.43910   0.56330   0.84060   0.01267  Uiso   1.00
N1     N     0.61220   0.95830   0.44198   0.01267  Uiso   1.00
N2     N     0.34610   0.38780   0.44198   0.01267  Uiso   1.00
N3     N     0.04170   0.65390   0.44198   0.01267  Uiso   1.00
N4     N     0.65390   0.04170   0.05802   0.01267  Uiso   1.00
N5     N     0.95830   0.61220   0.05802   0.01267  Uiso   1.00
N6     N     0.38780   0.34610   0.05802   0.01267  Uiso   1.00
N7     N     0.38780   0.04170   0.55802   0.01267  Uiso   1.00
N8     N     0.65390   0.61220   0.55802   0.01267  Uiso   1.00
N9     N     0.95830   0.34610   0.55802   0.01267  Uiso   1.00
N10    N     0.34610   0.95830   0.94198   0.01267  Uiso   1.00
N11    N     0.04170   0.38780   0.94198   0.01267  Uiso   1.00
N12    N     0.61220   0.65390   0.94198   0.01267  Uiso   1.00
O1     O     0.45210   0.81270   0.55906   0.01267  Uiso   1.00
O2     O     0.56170   0.75600   0.62670   0.01267  Uiso   1.00
O3     O     0.40110   0.92490   0.39370   0.01267  Uiso   1.00
O4     O     0.38290   0.81860   0.27233   0.01267  Uiso   1.00
O5     O     0.36060   0.54790   0.55906   0.01267  Uiso   1.00
O6     O     0.19430   0.43830   0.62670   0.01267  Uiso   1.00
O7     O     0.52380   0.59890   0.39370   0.01267  Uiso   1.00
O8     O     0.43570   0.61710   0.27233   0.01267  Uiso   1.00
O9     O     0.18730   0.63940   0.55906   0.01267  Uiso   1.00
O10    O     0.24400   0.80570   0.62670   0.01267  Uiso   1.00
O11    O     0.07510   0.47620   0.39370   0.01267  Uiso   1.00
O12    O     0.18140   0.56430   0.27233   0.01267  Uiso   1.00
O13    O     0.63940   0.18730   0.94094   0.01267  Uiso   1.00
O14    O     0.80570   0.24400   0.87330   0.01267  Uiso   1.00
O15    O     0.47620   0.07510   0.10630   0.01267  Uiso   1.00
O16    O     0.56430   0.18140   0.22767   0.01267  Uiso   1.00
O17    O     0.81270   0.45210   0.94094   0.01267  Uiso   1.00
O18    O     0.75600   0.56170   0.87330   0.01267  Uiso   1.00
O19    O     0.92490   0.40110   0.10630   0.01267  Uiso   1.00
O20    O     0.81860   0.38290   0.22767   0.01267  Uiso   1.00
O21    O     0.54790   0.36060   0.94094   0.01267  Uiso   1.00
O22    O     0.43830   0.19430   0.87330   0.01267  Uiso   1.00
O23    O     0.59890   0.52380   0.10630   0.01267  Uiso   1.00
O24    O     0.61710   0.43570   0.22767   0.01267  Uiso   1.00
O25    O     0.54790   0.18730   0.44094   0.01267  Uiso   1.00
O26    O     0.43830   0.24400   0.37330   0.01267  Uiso   1.00
O27    O     0.59890   0.07510   0.60630   0.01267  Uiso   1.00
O28    O     0.61710   0.18140   0.72767   0.01267  Uiso   1.00
O29    O     0.63940   0.45210   0.44094   0.01267  Uiso   1.00
O30    O     0.80570   0.56170   0.37330   0.01267  Uiso   1.00
O31    O     0.47620   0.40110   0.60630   0.01267  Uiso   1.00
O32    O     0.56430   0.38290   0.72767   0.01267  Uiso   1.00
O33    O     0.81270   0.36060   0.44094   0.01267  Uiso   1.00
O34    O     0.75600   0.19430   0.37330   0.01267  Uiso   1.00
O35    O     0.92490   0.52380   0.60630   0.01267  Uiso   1.00
O36    O     0.81860   0.43570   0.72767   0.01267  Uiso   1.00
O37    O     0.36060   0.81270   0.05906   0.01267  Uiso   1.00
O38    O     0.19430   0.75600   0.12670   0.01267  Uiso   1.00
O39    O     0.52380   0.92490   0.89370   0.01267  Uiso   1.00
O40    O     0.43570   0.81860   0.77233   0.01267  Uiso   1.00
O41    O     0.18730   0.54790   0.05906   0.01267  Uiso   1.00
O42    O     0.24400   0.43830   0.12670   0.01267  Uiso   1.00
O43    O     0.07510   0.59890   0.89370   0.01267  Uiso   1.00
O44    O     0.18140   0.61710   0.77233   0.01267  Uiso   1.00
O45    O     0.45210   0.63940   0.05906   0.01267  Uiso   1.00
O46    O     0.56170   0.80570   0.12670   0.01267  Uiso   1.00
O47    O     0.40110   0.47620   0.89370   0.01267  Uiso   1.00
O48    O     0.38290   0.56430   0.77233   0.01267  Uiso   1.00
