data_image0
_cell_length_a       8.2508
_cell_length_b       8.2508
_cell_length_c       18.745
_cell_angle_alpha    90
_cell_angle_beta     90
_cell_angle_gamma    120

_symmetry_space_group_name_H-M    "P 1"
_symmetry_int_tables_number       1

loop_
  _symmetry_equiv_pos_as_xyz
  'x, y, z'

loop_
  _atom_site_label
  _atom_site_occupancy
  _atom_site_fract_x
  _atom_site_fract_y
  _atom_site_fract_z
  _atom_site_thermal_displace_type
  _atom_site_B_iso_or_equiv
  _atom_site_type_symbol
  S1       1.0000 0.34540  0.16300  0.42850  Biso   1.000  S
  C1       1.0000 0.33020  0.32360  0.38050  Biso   1.000  C
  N1       1.0000 0.32570  0.43310  0.34520  Biso   1.000  N
  S2       1.0000 0.83700  0.18240  0.42850  Biso   1.000  S
  C2       1.0000 0.67640  0.00660  0.38050  Biso   1.000  C
  N2       1.0000 0.56690  0.89260  0.34520  Biso   1.000  N
  S3       1.0000 0.81760  0.65460  0.42850  Biso   1.000  S
  C3       1.0000 0.99340  0.66980  0.38050  Biso   1.000  C
  N3       1.0000 0.10740  0.67430  0.34520  Biso   1.000  N
  S4       1.0000 0.65460  0.83700  0.92850  Biso   1.000  S
  C4       1.0000 0.66980  0.67640  0.88050  Biso   1.000  C
  N4       1.0000 0.67430  0.56690  0.84520  Biso   1.000  N
  S5       1.0000 0.16300  0.81760  0.92850  Biso   1.000  S
  C5       1.0000 0.32360  0.99340  0.88050  Biso   1.000  C
  N5       1.0000 0.43310  0.10740  0.84520  Biso   1.000  N
  S6       1.0000 0.18240  0.34540  0.92850  Biso   1.000  S
  C6       1.0000 0.00660  0.33020  0.88050  Biso   1.000  C
  N6       1.0000 0.89260  0.32570  0.84520  Biso   1.000  N
  S7       1.0000 0.65460  0.83700  0.57150  Biso   1.000  S
  C7       1.0000 0.66980  0.67640  0.61950  Biso   1.000  C
  N7       1.0000 0.67430  0.56690  0.65480  Biso   1.000  N
  S8       1.0000 0.16300  0.81760  0.57150  Biso   1.000  S
  C8       1.0000 0.32360  0.99340  0.61950  Biso   1.000  C
  N8       1.0000 0.43310  0.10740  0.65480  Biso   1.000  N
  S9       1.0000 0.18240  0.34540  0.57150  Biso   1.000  S
  C9       1.0000 0.00660  0.33020  0.61950  Biso   1.000  C
  N9       1.0000 0.89260  0.32570  0.65480  Biso   1.000  N
  S10      1.0000 0.34540  0.16300  0.07150  Biso   1.000  S
  C10      1.0000 0.33020  0.32360  0.11950  Biso   1.000  C
  N10      1.0000 0.32570  0.43310  0.15480  Biso   1.000  N
  S11      1.0000 0.83700  0.18240  0.07150  Biso   1.000  S
  C11      1.0000 0.67640  0.00660  0.11950  Biso   1.000  C
  N11      1.0000 0.56690  0.89260  0.15480  Biso   1.000  N
  S12      1.0000 0.81760  0.65460  0.07150  Biso   1.000  S
  C12      1.0000 0.99340  0.66980  0.11950  Biso   1.000  C
  N12      1.0000 0.10740  0.67430  0.15480  Biso   1.000  N
  Bi1      1.0000 0.00000  0.00000  0.50000  Biso   1.000  Bi
  Bi2      1.0000 0.00000  0.00000  0.00000  Biso   1.000  Bi
  La1      1.0000 0.33333  0.66667  0.25000  Biso   1.000  La
  La2      1.0000 0.66667  0.33333  0.75000  Biso   1.000  La
