data_image0
_cell_length_a       8.2
_cell_length_b       8.2
_cell_length_c       18.606
_cell_angle_alpha    90
_cell_angle_beta     90
_cell_angle_gamma    120

_symmetry_space_group_name_H-M    "P 1"
_symmetry_int_tables_number       1

loop_
  _symmetry_equiv_pos_as_xyz
  'x, y, z'

loop_
  _atom_site_label
  _atom_site_occupancy
  _atom_site_fract_x
  _atom_site_fract_y
  _atom_site_fract_z
  _atom_site_thermal_displace_type
  _atom_site_B_iso_or_equiv
  _atom_site_type_symbol
  S1       1.0000 0.34780  0.16840  0.42840  Biso   1.000  S
  C1       1.0000 0.33100  0.32720  0.37930  Biso   1.000  C
  N1       1.0000 0.32590  0.43880  0.34370  Biso   1.000  N
  S2       1.0000 0.83160  0.17940  0.42840  Biso   1.000  S
  C2       1.0000 0.67280  0.00380  0.37930  Biso   1.000  C
  N2       1.0000 0.56120  0.88710  0.34370  Biso   1.000  N
  S3       1.0000 0.82060  0.65220  0.42840  Biso   1.000  S
  C3       1.0000 0.99620  0.66900  0.37930  Biso   1.000  C
  N3       1.0000 0.11290  0.67410  0.34370  Biso   1.000  N
  S4       1.0000 0.65220  0.83160  0.92840  Biso   1.000  S
  C4       1.0000 0.66900  0.67280  0.87930  Biso   1.000  C
  N4       1.0000 0.67410  0.56120  0.84370  Biso   1.000  N
  S5       1.0000 0.16840  0.82060  0.92840  Biso   1.000  S
  C5       1.0000 0.32720  0.99620  0.87930  Biso   1.000  C
  N5       1.0000 0.43880  0.11290  0.84370  Biso   1.000  N
  S6       1.0000 0.17940  0.34780  0.92840  Biso   1.000  S
  C6       1.0000 0.00380  0.33100  0.87930  Biso   1.000  C
  N6       1.0000 0.88710  0.32590  0.84370  Biso   1.000  N
  S7       1.0000 0.65220  0.83160  0.57160  Biso   1.000  S
  C7       1.0000 0.66900  0.67280  0.62070  Biso   1.000  C
  N7       1.0000 0.67410  0.56120  0.65630  Biso   1.000  N
  S8       1.0000 0.16840  0.82060  0.57160  Biso   1.000  S
  C8       1.0000 0.32720  0.99620  0.62070  Biso   1.000  C
  N8       1.0000 0.43880  0.11290  0.65630  Biso   1.000  N
  S9       1.0000 0.17940  0.34780  0.57160  Biso   1.000  S
  C9       1.0000 0.00380  0.33100  0.62070  Biso   1.000  C
  N9       1.0000 0.88710  0.32590  0.65630  Biso   1.000  N
  S10      1.0000 0.34780  0.16840  0.07160  Biso   1.000  S
  C10      1.0000 0.33100  0.32720  0.12070  Biso   1.000  C
  N10      1.0000 0.32590  0.43880  0.15630  Biso   1.000  N
  S11      1.0000 0.83160  0.17940  0.07160  Biso   1.000  S
  C11      1.0000 0.67280  0.00380  0.12070  Biso   1.000  C
  N11      1.0000 0.56120  0.88710  0.15630  Biso   1.000  N
  S12      1.0000 0.82060  0.65220  0.07160  Biso   1.000  S
  C12      1.0000 0.99620  0.66900  0.12070  Biso   1.000  C
  N12      1.0000 0.11290  0.67410  0.15630  Biso   1.000  N
  Bi1      1.0000 0.00000  0.00000  0.50000  Biso   1.000  Bi
  Bi2      1.0000 0.00000  0.00000  0.00000  Biso   1.000  Bi
  Nd1      1.0000 0.33333  0.66667  0.25000  Biso   1.000  Nd
  Nd2      1.0000 0.66667  0.33333  0.75000  Biso   1.000  Nd
