data_image0
_cell_length_a       11.506
_cell_length_b       6.638
_cell_length_c       17.148
_cell_angle_alpha    90
_cell_angle_beta     96.05
_cell_angle_gamma    90

_symmetry_space_group_name_H-M    "P 1"
_symmetry_int_tables_number       1

loop_
  _symmetry_equiv_pos_as_xyz
  'x, y, z'

loop_
  _atom_site_label
  _atom_site_occupancy
  _atom_site_fract_x
  _atom_site_fract_y
  _atom_site_fract_z
  _atom_site_thermal_displace_type
  _atom_site_B_iso_or_equiv
  _atom_site_type_symbol
  Zr1      1.0000 0.40212  0.07149  0.13798  Biso   1.000  Zr
  Zr2      1.0000 0.14752  0.57948  0.27762  Biso   1.000  Zr
  P1       1.0000 0.14088  0.07440  0.22681  Biso   1.000  P
  P2       1.0000 0.41307  0.57001  0.19047  Biso   1.000  P
  P3       1.0000 0.66979  0.09740  0.04984  Biso   1.000  P
  F1       1.0000 0.07060  0.58620  0.16850  Biso   1.000  F
  O1       1.0000 0.15590  0.26670  0.27693  Biso   1.000  O
  O2       1.0000 0.01820  0.07290  0.18150  Biso   1.000  O
  O3       1.0000 0.23410  0.06690  0.16870  Biso   1.000  O
  O4       1.0000 0.15450  0.89070  0.28280  Biso   1.000  O
  O5       1.0000 0.41220  0.75410  0.13562  Biso   1.000  O
  O6       1.0000 0.52540  0.56440  0.24660  Biso   1.000  O
  O7       1.0000 0.30830  0.58330  0.23790  Biso   1.000  O
  O8       1.0000 0.40350  0.37920  0.13810  Biso   1.000  O
  O9       1.0000 0.56350  0.07380  0.09410  Biso   1.000  O
  O10      1.0000 0.66800  0.95260  0.98030  Biso   1.000  O
  O11      1.0000 0.78240  0.06960  0.10360  Biso   1.000  O
  O12      1.0000 0.67390  0.32070  0.01810  Biso   1.000  O
  Zr3      1.0000 0.59788  0.57149  0.36202  Biso   1.000  Zr
  Zr4      1.0000 0.85248  0.07948  0.22238  Biso   1.000  Zr
  P4       1.0000 0.85912  0.57440  0.27319  Biso   1.000  P
  P5       1.0000 0.58693  0.07001  0.30953  Biso   1.000  P
  P6       1.0000 0.33021  0.59740  0.45016  Biso   1.000  P
  F2       1.0000 0.92940  0.08620  0.33150  Biso   1.000  F
  O13      1.0000 0.84410  0.76670  0.22307  Biso   1.000  O
  O14      1.0000 0.98180  0.57290  0.31850  Biso   1.000  O
  O15      1.0000 0.76590  0.56690  0.33130  Biso   1.000  O
  O16      1.0000 0.84550  0.39070  0.21720  Biso   1.000  O
  O17      1.0000 0.58780  0.25410  0.36438  Biso   1.000  O
  O18      1.0000 0.47460  0.06440  0.25340  Biso   1.000  O
  O19      1.0000 0.69170  0.08330  0.26210  Biso   1.000  O
  O20      1.0000 0.59650  0.87920  0.36190  Biso   1.000  O
  O21      1.0000 0.43650  0.57380  0.40590  Biso   1.000  O
  O22      1.0000 0.33200  0.45260  0.51970  Biso   1.000  O
  O23      1.0000 0.21760  0.56960  0.39640  Biso   1.000  O
  O24      1.0000 0.32610  0.82070  0.48190  Biso   1.000  O
  Zr5      1.0000 0.59788  0.92851  0.86202  Biso   1.000  Zr
  Zr6      1.0000 0.85248  0.42052  0.72238  Biso   1.000  Zr
  P7       1.0000 0.85912  0.92560  0.77319  Biso   1.000  P
  P8       1.0000 0.58693  0.42999  0.80953  Biso   1.000  P
  P9       1.0000 0.33021  0.90260  0.95016  Biso   1.000  P
  F3       1.0000 0.92940  0.41380  0.83150  Biso   1.000  F
  O25      1.0000 0.84410  0.73330  0.72307  Biso   1.000  O
  O26      1.0000 0.98180  0.92710  0.81850  Biso   1.000  O
  O27      1.0000 0.76590  0.93310  0.83130  Biso   1.000  O
  O28      1.0000 0.84550  0.10930  0.71720  Biso   1.000  O
  O29      1.0000 0.58780  0.24590  0.86438  Biso   1.000  O
  O30      1.0000 0.47460  0.43560  0.75340  Biso   1.000  O
  O31      1.0000 0.69170  0.41670  0.76210  Biso   1.000  O
  O32      1.0000 0.59650  0.62080  0.86190  Biso   1.000  O
  O33      1.0000 0.43650  0.92620  0.90590  Biso   1.000  O
  O34      1.0000 0.33200  0.04740  0.01970  Biso   1.000  O
  O35      1.0000 0.21760  0.93040  0.89640  Biso   1.000  O
  O36      1.0000 0.32610  0.67930  0.98190  Biso   1.000  O
  Zr7      1.0000 0.40212  0.42851  0.63798  Biso   1.000  Zr
  Zr8      1.0000 0.14752  0.92052  0.77762  Biso   1.000  Zr
  P10      1.0000 0.14088  0.42560  0.72681  Biso   1.000  P
  P11      1.0000 0.41307  0.92999  0.69047  Biso   1.000  P
  P12      1.0000 0.66979  0.40260  0.54984  Biso   1.000  P
  F4       1.0000 0.07060  0.91380  0.66850  Biso   1.000  F
  O37      1.0000 0.15590  0.23330  0.77693  Biso   1.000  O
  O38      1.0000 0.01820  0.42710  0.68150  Biso   1.000  O
  O39      1.0000 0.23410  0.43310  0.66870  Biso   1.000  O
  O40      1.0000 0.15450  0.60930  0.78280  Biso   1.000  O
  O41      1.0000 0.41220  0.74590  0.63562  Biso   1.000  O
  O42      1.0000 0.52540  0.93560  0.74660  Biso   1.000  O
  O43      1.0000 0.30830  0.91670  0.73790  Biso   1.000  O
  O44      1.0000 0.40350  0.12080  0.63810  Biso   1.000  O
  O45      1.0000 0.56350  0.42620  0.59410  Biso   1.000  O
  O46      1.0000 0.66800  0.54740  0.48030  Biso   1.000  O
  O47      1.0000 0.78240  0.43040  0.60360  Biso   1.000  O
  O48      1.0000 0.67390  0.17930  0.51810  Biso   1.000  O
