data_image0
_cell_length_a       11.868
_cell_length_b       14.931
_cell_length_c       17.741
_cell_angle_alpha    90
_cell_angle_beta     90
_cell_angle_gamma    90

_symmetry_space_group_name_H-M    "P 1"
_symmetry_int_tables_number       1

loop_
  _symmetry_equiv_pos_as_xyz
  'x, y, z'

loop_
  _atom_site_label
  _atom_site_occupancy
  _atom_site_fract_x
  _atom_site_fract_y
  _atom_site_fract_z
  _atom_site_thermal_displace_type
  _atom_site_B_iso_or_equiv
  _atom_site_type_symbol
  Mo1      1.0000 0.29045  0.11916  0.63722  Biso   1.000  Mo
  Cu1      1.0000 0.29040  0.86067  0.43014  Biso   1.000  Cu
  N1       1.0000 0.25880  0.98066  0.49310  Biso   1.000  N
  N2       1.0000 0.08160  0.98841  0.69120  Biso   1.000  N
  N3       1.0000 0.09030  0.25040  0.70009  Biso   1.000  N
  N4       1.0000 0.22400  0.26110  0.50229  Biso   1.000  N
  N5       1.0000 0.42020  0.93601  0.69443  Biso   1.000  N
  N6       1.0000 0.30130  0.11020  0.82185  Biso   1.000  N
  N7       1.0000 0.41960  0.30230  0.69456  Biso   1.000  N
  N8       1.0000 0.54370  0.13160  0.56187  Biso   1.000  N
  C1       1.0000 0.26740  0.03100  0.54160  Biso   1.000  C
  C2       1.0000 0.15100  0.03420  0.66800  Biso   1.000  C
  C3       1.0000 0.15710  0.20370  0.67620  Biso   1.000  C
  C4       1.0000 0.24570  0.20900  0.54680  Biso   1.000  C
  C5       1.0000 0.37660  0.99910  0.67140  Biso   1.000  C
  C6       1.0000 0.30240  0.11380  0.75810  Biso   1.000  C
  C7       1.0000 0.37480  0.23920  0.67330  Biso   1.000  C
  C8       1.0000 0.45390  0.12580  0.58460  Biso   1.000  C
  Mo2      1.0000 0.20955  0.38084  0.13722  Biso   1.000  Mo
  Cu2      1.0000 0.20960  0.63933  0.93014  Biso   1.000  Cu
  N9       1.0000 0.24120  0.51934  0.99310  Biso   1.000  N
  N10      1.0000 0.41840  0.51159  0.19120  Biso   1.000  N
  N11      1.0000 0.40970  0.24960  0.20009  Biso   1.000  N
  N12      1.0000 0.27600  0.23890  0.00229  Biso   1.000  N
  N13      1.0000 0.07980  0.56399  0.19443  Biso   1.000  N
  N14      1.0000 0.19870  0.38980  0.32185  Biso   1.000  N
  N15      1.0000 0.08040  0.19770  0.19456  Biso   1.000  N
  N16      1.0000 0.95630  0.36840  0.06187  Biso   1.000  N
  C9       1.0000 0.23260  0.46900  0.04160  Biso   1.000  C
  C10      1.0000 0.34900  0.46580  0.16800  Biso   1.000  C
  C11      1.0000 0.34290  0.29630  0.17620  Biso   1.000  C
  C12      1.0000 0.25430  0.29100  0.04680  Biso   1.000  C
  C13      1.0000 0.12340  0.50090  0.17140  Biso   1.000  C
  C14      1.0000 0.19760  0.38620  0.25810  Biso   1.000  C
  C15      1.0000 0.12520  0.26080  0.17330  Biso   1.000  C
  C16      1.0000 0.04610  0.37420  0.08460  Biso   1.000  C
  Mo3      1.0000 0.70955  0.11916  0.86278  Biso   1.000  Mo
  Cu3      1.0000 0.70960  0.86067  0.06986  Biso   1.000  Cu
  N17      1.0000 0.74120  0.98066  0.00690  Biso   1.000  N
  N18      1.0000 0.91840  0.98841  0.80880  Biso   1.000  N
  N19      1.0000 0.90970  0.25040  0.79991  Biso   1.000  N
  N20      1.0000 0.77600  0.26110  0.99771  Biso   1.000  N
  N21      1.0000 0.57980  0.93601  0.80557  Biso   1.000  N
  N22      1.0000 0.69870  0.11020  0.67815  Biso   1.000  N
  N23      1.0000 0.58040  0.30230  0.80544  Biso   1.000  N
  N24      1.0000 0.45630  0.13160  0.93813  Biso   1.000  N
  C17      1.0000 0.73260  0.03100  0.95840  Biso   1.000  C
  C18      1.0000 0.84900  0.03420  0.83200  Biso   1.000  C
  C19      1.0000 0.84290  0.20370  0.82380  Biso   1.000  C
  C20      1.0000 0.75430  0.20900  0.95320  Biso   1.000  C
  C21      1.0000 0.62340  0.99910  0.82860  Biso   1.000  C
  C22      1.0000 0.69760  0.11380  0.74190  Biso   1.000  C
  C23      1.0000 0.62520  0.23920  0.82670  Biso   1.000  C
  C24      1.0000 0.54610  0.12580  0.91540  Biso   1.000  C
  Mo4      1.0000 0.79045  0.38084  0.36278  Biso   1.000  Mo
  Cu4      1.0000 0.79040  0.63933  0.56986  Biso   1.000  Cu
  N25      1.0000 0.75880  0.51934  0.50690  Biso   1.000  N
  N26      1.0000 0.58160  0.51159  0.30880  Biso   1.000  N
  N27      1.0000 0.59030  0.24960  0.29991  Biso   1.000  N
  N28      1.0000 0.72400  0.23890  0.49771  Biso   1.000  N
  N29      1.0000 0.92020  0.56399  0.30557  Biso   1.000  N
  N30      1.0000 0.80130  0.38980  0.17815  Biso   1.000  N
  N31      1.0000 0.91960  0.19770  0.30544  Biso   1.000  N
  N32      1.0000 0.04370  0.36840  0.43813  Biso   1.000  N
  C25      1.0000 0.76740  0.46900  0.45840  Biso   1.000  C
  C26      1.0000 0.65100  0.46580  0.33200  Biso   1.000  C
  C27      1.0000 0.65710  0.29630  0.32380  Biso   1.000  C
  C28      1.0000 0.74570  0.29100  0.45320  Biso   1.000  C
  C29      1.0000 0.87660  0.50090  0.32860  Biso   1.000  C
  C30      1.0000 0.80240  0.38620  0.24190  Biso   1.000  C
  C31      1.0000 0.87480  0.26080  0.32670  Biso   1.000  C
  C32      1.0000 0.95390  0.37420  0.41540  Biso   1.000  C
  Mo5      1.0000 0.70955  0.88084  0.36278  Biso   1.000  Mo
  Cu5      1.0000 0.70960  0.13933  0.56986  Biso   1.000  Cu
  N33      1.0000 0.74120  0.01934  0.50690  Biso   1.000  N
  N34      1.0000 0.91840  0.01159  0.30880  Biso   1.000  N
  N35      1.0000 0.90970  0.74960  0.29991  Biso   1.000  N
  N36      1.0000 0.77600  0.73890  0.49771  Biso   1.000  N
  N37      1.0000 0.57980  0.06399  0.30557  Biso   1.000  N
  N38      1.0000 0.69870  0.88980  0.17815  Biso   1.000  N
  N39      1.0000 0.58040  0.69770  0.30544  Biso   1.000  N
  N40      1.0000 0.45630  0.86840  0.43813  Biso   1.000  N
  C33      1.0000 0.73260  0.96900  0.45840  Biso   1.000  C
  C34      1.0000 0.84900  0.96580  0.33200  Biso   1.000  C
  C35      1.0000 0.84290  0.79630  0.32380  Biso   1.000  C
  C36      1.0000 0.75430  0.79100  0.45320  Biso   1.000  C
  C37      1.0000 0.62340  0.00090  0.32860  Biso   1.000  C
  C38      1.0000 0.69760  0.88620  0.24190  Biso   1.000  C
  C39      1.0000 0.62520  0.76080  0.32670  Biso   1.000  C
  C40      1.0000 0.54610  0.87420  0.41540  Biso   1.000  C
  Mo6      1.0000 0.79045  0.61916  0.86278  Biso   1.000  Mo
  Cu6      1.0000 0.79040  0.36067  0.06986  Biso   1.000  Cu
  N41      1.0000 0.75880  0.48066  0.00690  Biso   1.000  N
  N42      1.0000 0.58160  0.48841  0.80880  Biso   1.000  N
  N43      1.0000 0.59030  0.75040  0.79991  Biso   1.000  N
  N44      1.0000 0.72400  0.76110  0.99771  Biso   1.000  N
  N45      1.0000 0.92020  0.43601  0.80557  Biso   1.000  N
  N46      1.0000 0.80130  0.61020  0.67815  Biso   1.000  N
  N47      1.0000 0.91960  0.80230  0.80544  Biso   1.000  N
  N48      1.0000 0.04370  0.63160  0.93813  Biso   1.000  N
  C41      1.0000 0.76740  0.53100  0.95840  Biso   1.000  C
  C42      1.0000 0.65100  0.53420  0.83200  Biso   1.000  C
  C43      1.0000 0.65710  0.70370  0.82380  Biso   1.000  C
  C44      1.0000 0.74570  0.70900  0.95320  Biso   1.000  C
  C45      1.0000 0.87660  0.49910  0.82860  Biso   1.000  C
  C46      1.0000 0.80240  0.61380  0.74190  Biso   1.000  C
  C47      1.0000 0.87480  0.73920  0.82670  Biso   1.000  C
  C48      1.0000 0.95390  0.62580  0.91540  Biso   1.000  C
  Mo7      1.0000 0.29045  0.88084  0.13722  Biso   1.000  Mo
  Cu7      1.0000 0.29040  0.13933  0.93014  Biso   1.000  Cu
  N49      1.0000 0.25880  0.01934  0.99310  Biso   1.000  N
  N50      1.0000 0.08160  0.01159  0.19120  Biso   1.000  N
  N51      1.0000 0.09030  0.74960  0.20009  Biso   1.000  N
  N52      1.0000 0.22400  0.73890  0.00229  Biso   1.000  N
  N53      1.0000 0.42020  0.06399  0.19443  Biso   1.000  N
  N54      1.0000 0.30130  0.88980  0.32185  Biso   1.000  N
  N55      1.0000 0.41960  0.69770  0.19456  Biso   1.000  N
  N56      1.0000 0.54370  0.86840  0.06187  Biso   1.000  N
  C49      1.0000 0.26740  0.96900  0.04160  Biso   1.000  C
  C50      1.0000 0.15100  0.96580  0.16800  Biso   1.000  C
  C51      1.0000 0.15710  0.79630  0.17620  Biso   1.000  C
  C52      1.0000 0.24570  0.79100  0.04680  Biso   1.000  C
  C53      1.0000 0.37660  0.00090  0.17140  Biso   1.000  C
  C54      1.0000 0.30240  0.88620  0.25810  Biso   1.000  C
  C55      1.0000 0.37480  0.76080  0.17330  Biso   1.000  C
  C56      1.0000 0.45390  0.87420  0.08460  Biso   1.000  C
  Mo8      1.0000 0.20955  0.61916  0.63722  Biso   1.000  Mo
  Cu8      1.0000 0.20960  0.36067  0.43014  Biso   1.000  Cu
  N57      1.0000 0.24120  0.48066  0.49310  Biso   1.000  N
  N58      1.0000 0.41840  0.48841  0.69120  Biso   1.000  N
  N59      1.0000 0.40970  0.75040  0.70009  Biso   1.000  N
  N60      1.0000 0.27600  0.76110  0.50229  Biso   1.000  N
  N61      1.0000 0.07980  0.43601  0.69443  Biso   1.000  N
  N62      1.0000 0.19870  0.61020  0.82185  Biso   1.000  N
  N63      1.0000 0.08040  0.80230  0.69456  Biso   1.000  N
  N64      1.0000 0.95630  0.63160  0.56187  Biso   1.000  N
  C57      1.0000 0.23260  0.53100  0.54160  Biso   1.000  C
  C58      1.0000 0.34900  0.53420  0.66800  Biso   1.000  C
  C59      1.0000 0.34290  0.70370  0.67620  Biso   1.000  C
  C60      1.0000 0.25430  0.70900  0.54680  Biso   1.000  C
  C61      1.0000 0.12340  0.49910  0.67140  Biso   1.000  C
  C62      1.0000 0.19760  0.61380  0.75810  Biso   1.000  C
  C63      1.0000 0.12520  0.73920  0.67330  Biso   1.000  C
  C64      1.0000 0.04610  0.62580  0.58460  Biso   1.000  C
  Cu9      1.0000 0.00000  0.89666  0.75000  Biso   1.000  Cu
  Cu10     1.0000 0.00000  0.34278  0.75000  Biso   1.000  Cu
  Cu11     1.0000 0.50000  0.60334  0.25000  Biso   1.000  Cu
  Cu12     1.0000 0.50000  0.15722  0.25000  Biso   1.000  Cu
  Cu13     1.0000 0.00000  0.10334  0.25000  Biso   1.000  Cu
  Cu14     1.0000 0.00000  0.65722  0.25000  Biso   1.000  Cu
  Cu15     1.0000 0.50000  0.39666  0.75000  Biso   1.000  Cu
  Cu16     1.0000 0.50000  0.84278  0.75000  Biso   1.000  Cu
