data_image0
_cell_length_a       15.6469
_cell_length_b       18.471
_cell_length_c       27.45
_cell_angle_alpha    99.525
_cell_angle_beta     90.063
_cell_angle_gamma    103.876

_symmetry_space_group_name_H-M    "P 1"
_symmetry_int_tables_number       1

loop_
  _symmetry_equiv_pos_as_xyz
  'x, y, z'

loop_
  _atom_site_label
  _atom_site_occupancy
  _atom_site_fract_x
  _atom_site_fract_y
  _atom_site_fract_z
  _atom_site_thermal_displace_type
  _atom_site_B_iso_or_equiv
  _atom_site_type_symbol
  C1       1.0000 0.52710  0.67970  0.99090  Biso   1.000  C
  C2       1.0000 0.52400  0.68420  0.93740  Biso   1.000  C
  C3       1.0000 0.55210  0.63420  0.90450  Biso   1.000  C
  H1       1.0000 0.57810  0.59900  0.91520  Biso   1.000  H
  C4       1.0000 0.54280  0.63460  0.85370  Biso   1.000  C
  H2       1.0000 0.56320  0.59970  0.83140  Biso   1.000  H
  C5       1.0000 0.50400  0.68550  0.83590  Biso   1.000  C
  C6       1.0000 0.47740  0.74020  0.87150  Biso   1.000  C
  H3       1.0000 0.45370  0.77710  0.86130  Biso   1.000  H
  C7       1.0000 0.48670  0.73820  0.92070  Biso   1.000  C
  H4       1.0000 0.46800  0.77350  0.94370  Biso   1.000  H
  C8       1.0000 0.48420  0.67840  0.78260  Biso   1.000  C
  C9       1.0000 0.49990  0.73700  0.75480  Biso   1.000  C
  C10      1.0000 0.47640  0.72620  0.70480  Biso   1.000  C
  C11      1.0000 0.43490  0.64980  0.68070  Biso   1.000  C
  C12      1.0000 0.41680  0.59070  0.70750  Biso   1.000  C
  C13      1.0000 0.44260  0.60550  0.75700  Biso   1.000  C
  H5       1.0000 0.43190  0.56530  0.77440  Biso   1.000  H
  C14      1.0000 0.36540  0.51410  0.68550  Biso   1.000  C
  C15      1.0000 0.38000  0.47700  0.63860  Biso   1.000  C
  H6       1.0000 0.42410  0.50110  0.62010  Biso   1.000  H
  C16      1.0000 0.33120  0.40640  0.61960  Biso   1.000  C
  H7       1.0000 0.34320  0.38300  0.58850  Biso   1.000  H
  C17      1.0000 0.26230  0.36790  0.64650  Biso   1.000  C
  C18      1.0000 0.24820  0.40440  0.69350  Biso   1.000  C
  H8       1.0000 0.20330  0.38060  0.71190  Biso   1.000  H
  C19      1.0000 0.29960  0.47520  0.71330  Biso   1.000  C
  H9       1.0000 0.29070  0.49750  0.74520  Biso   1.000  H
  C20      1.0000 0.20760  0.29230  0.62360  Biso   1.000  C
  C21      1.0000 0.49250  0.79030  0.67770  Biso   1.000  C
  C22      1.0000 0.57750  0.82530  0.66560  Biso   1.000  C
  C23      1.0000 0.59180  0.88870  0.64220  Biso   1.000  C
  C24      1.0000 0.52050  0.91360  0.62810  Biso   1.000  C
  H10      1.0000 0.53030  0.95420  0.61110  Biso   1.000  H
  C25      1.0000 0.43250  0.87900  0.63880  Biso   1.000  C
  C26      1.0000 0.42250  0.81780  0.66440  Biso   1.000  C
  C27      1.0000 0.48200  0.64590  0.59830  Biso   1.000  C
  H11      1.0000 0.50460  0.60150  0.59540  Biso   1.000  H
  H12      1.0000 0.52800  0.68980  0.61090  Biso   1.000  H
  H13      1.0000 0.46090  0.65050  0.56640  Biso   1.000  H
  C28      1.0000 0.62790  0.82520  0.79550  Biso   1.000  C
  H14      1.0000 0.65510  0.87830  0.79900  Biso   1.000  H
  H15      1.0000 0.65910  0.79750  0.77220  Biso   1.000  H
  H16      1.0000 0.62990  0.80920  0.82690  Biso   1.000  H
  C29      1.0000 0.69370  0.76850  0.64010  Biso   1.000  C
  H17      1.0000 0.75250  0.77190  0.65200  Biso   1.000  H
  H18      1.0000 0.69600  0.79740  0.61390  Biso   1.000  H
  H19      1.0000 0.66520  0.71650  0.62790  Biso   1.000  H
  C30      1.0000 0.31070  0.82150  0.71980  Biso   1.000  C
  H20      1.0000 0.31800  0.87360  0.71660  Biso   1.000  H
  H21      1.0000 0.34620  0.81840  0.74760  Biso   1.000  H
  H22      1.0000 0.24990  0.79970  0.72480  Biso   1.000  H
  C31      1.0000 0.35960  0.91020  0.62480  Biso   1.000  C
  C32      1.0000 0.28560  0.86520  0.59710  Biso   1.000  C
  H23      1.0000 0.27990  0.81320  0.58900  Biso   1.000  H
  C33      1.0000 0.21910  0.89710  0.58120  Biso   1.000  C
  H24      1.0000 0.16980  0.86670  0.56270  Biso   1.000  H
  C34      1.0000 0.22890  0.97530  0.59390  Biso   1.000  C
  C35      1.0000 0.30060  0.01850  0.62290  Biso   1.000  C
  H25      1.0000 0.30540  0.07010  0.63250  Biso   1.000  H
  C36      1.0000 0.36590  0.98720  0.63810  Biso   1.000  C
  H26      1.0000 0.41420  0.01790  0.65730  Biso   1.000  H
  C37      1.0000 0.15870  0.00890  0.57570  Biso   1.000  C
  C38      1.0000 0.74440  0.96170  0.67310  Biso   1.000  C
  H27      1.0000 0.73190  0.94790  0.70390  Biso   1.000  H
  C39      1.0000 0.68140  0.93320  0.63460  Biso   1.000  C
  C40      1.0000 0.70570  0.94960  0.58810  Biso   1.000  C
  H28      1.0000 0.66580  0.92970  0.56130  Biso   1.000  H
  C41      1.0000 0.78670  0.99420  0.58050  Biso   1.000  C
  H29      1.0000 0.80160  0.00280  0.54880  Biso   1.000  H
  C42      1.0000 0.84640  0.02650  0.62000  Biso   1.000  C
  C43      1.0000 0.82260  0.00860  0.66760  Biso   1.000  C
  H30      1.0000 0.86140  0.02930  0.69480  Biso   1.000  H
  C44      1.0000 0.93530  0.07550  0.61170  Biso   1.000  C
  C45      1.0000 0.05640  0.17490  0.48940  Biso   1.000  C
  C46      1.0000 0.03330  0.18050  0.43970  Biso   1.000  C
  C47      1.0000 0.99450  0.23840  0.42930  Biso   1.000  C
  H31      1.0000 0.98790  0.27640  0.45480  Biso   1.000  H
  C48      1.0000 0.96650  0.23920  0.38210  Biso   1.000  C
  H32      1.0000 0.94020  0.27720  0.37620  Biso   1.000  H
  C49      1.0000 0.97670  0.18440  0.34320  Biso   1.000  C
  C50      1.0000 0.01580  0.12710  0.35280  Biso   1.000  C
  H33      1.0000 0.02300  0.08950  0.32720  Biso   1.000  H
  C51      1.0000 0.04300  0.12680  0.39990  Biso   1.000  C
  H34      1.0000 0.06940  0.08880  0.40560  Biso   1.000  H
  C52      1.0000 0.94170  0.18130  0.29290  Biso   1.000  C
  C53      1.0000 0.96090  0.24380  0.26800  Biso   1.000  C
  C54      1.0000 0.92890  0.23970  0.22050  Biso   1.000  C
  C55      1.0000 0.87160  0.17060  0.19630  Biso   1.000  C
  C56      1.0000 0.85680  0.10640  0.21790  Biso   1.000  C
  C57      1.0000 0.89070  0.11320  0.26590  Biso   1.000  C
  H35      1.0000 0.87910  0.07030  0.28080  Biso   1.000  H
  C58      1.0000 0.80370  0.03140  0.19300  Biso   1.000  C
  C59      1.0000 0.73570  0.99140  0.21850  Biso   1.000  C
  H36      1.0000 0.72440  0.01250  0.25020  Biso   1.000  H
  C60      1.0000 0.68450  0.92030  0.19680  Biso   1.000  C
  H37      1.0000 0.64000  0.89430  0.21440  Biso   1.000  H
  C61      1.0000 0.69960  0.88870  0.15020  Biso   1.000  C
  C62      1.0000 0.76780  0.92880  0.12510  Biso   1.000  C
  C63      1.0000 0.81940  0.00060  0.14650  Biso   1.000  C
  C64      1.0000 0.64680  0.81060  0.12560  Biso   1.000  C
  C65      1.0000 0.94650  0.30910  0.19580  Biso   1.000  C
  C66      1.0000 0.02790  0.33750  0.17840  Biso   1.000  C
  C67      1.0000 0.04580  0.40670  0.16030  Biso   1.000  C
  C68      1.0000 0.97890  0.44370  0.15690  Biso   1.000  C
  H38      1.0000 0.99890  0.49430  0.17600  Biso   1.000  H
  C69      1.0000 0.89170  0.41180  0.17250  Biso   1.000  C
  C70      1.0000 0.87980  0.34630  0.19200  Biso   1.000  C
  C71      1.0000 0.78570  0.35440  0.26010  Biso   1.000  C
  H39      1.0000 0.83010  0.39460  0.27590  Biso   1.000  H
  H40      1.0000 0.73360  0.33870  0.27590  Biso   1.000  H
  C72      1.0000 0.10020  0.31840  0.30220  Biso   1.000  C
  H41      1.0000 0.12680  0.36530  0.32340  Biso   1.000  H
  H42      1.0000 0.13020  0.31530  0.27170  Biso   1.000  H
  H43      1.0000 0.10450  0.27690  0.31820  Biso   1.000  H
  C73      1.0000 0.08950  0.23100  0.15190  Biso   1.000  C
  H44      1.0000 0.14510  0.22900  0.13770  Biso   1.000  H
  H45      1.0000 0.04540  0.22330  0.12600  Biso   1.000  H
  H46      1.0000 0.07300  0.19210  0.17180  Biso   1.000  H
  C74      1.0000 0.74930  0.15380  0.14070  Biso   1.000  C
  H47      1.0000 0.73310  0.13520  0.10640  Biso   1.000  H
  H48      1.0000 0.73090  0.19980  0.15090  Biso   1.000  H
  H49      1.0000 0.72110  0.11670  0.16010  Biso   1.000  H
  C75      1.0000 0.81990  0.44560  0.16140  Biso   1.000  C
  C76      1.0000 0.74300  0.40250  0.13680  Biso   1.000  C
  H50      1.0000 0.73230  0.35010  0.13310  Biso   1.000  H
  C77      1.0000 0.68130  0.43300  0.11750  Biso   1.000  C
  H51      1.0000 0.63200  0.40240  0.09920  Biso   1.000  H
  C78      1.0000 0.69510  0.51110  0.12630  Biso   1.000  C
  C79      1.0000 0.76720  0.55470  0.15380  Biso   1.000  C
  H52      1.0000 0.77440  0.60680  0.16120  Biso   1.000  H
  C80      1.0000 0.82840  0.52290  0.17040  Biso   1.000  C
  H53      1.0000 0.87780  0.55400  0.18850  Biso   1.000  H
  C81      1.0000 0.62980  0.54610  0.10180  Biso   1.000  C
  C82      1.0000 0.13170  0.44290  0.14470  Biso   1.000  C
  C83      1.0000 0.17190  0.40440  0.10620  Biso   1.000  C
  H54      1.0000 0.14660  0.35420  0.09270  Biso   1.000  H
  C84      1.0000 0.25150  0.44390  0.08820  Biso   1.000  C
  H55      1.0000 0.27720  0.41920  0.06210  Biso   1.000  H
  C85      1.0000 0.29370  0.52060  0.10900  Biso   1.000  C
  C86      1.0000 0.25320  0.55530  0.14690  Biso   1.000  C
  H56      1.0000 0.27960  0.60470  0.16180  Biso   1.000  H
  C87      1.0000 0.17270  0.51810  0.16370  Biso   1.000  C
  H57      1.0000 0.14560  0.54440  0.18840  Biso   1.000  H
  C88      1.0000 0.37560  0.55780  0.08880  Biso   1.000  C
  O1       1.0000 0.56090  0.62990  0.00339  Biso   1.000  O
  O2       1.0000 0.49810  0.72560  0.02120  Biso   1.000  O
  O3       1.0000 0.98020  0.12110  0.64720  Biso   1.000  O
  O4       1.0000 0.96070  0.07440  0.56840  Biso   1.000  O
  O5       1.0000 0.16060  0.07540  0.59880  Biso   1.000  O
  O6       1.0000 0.10840  0.97360  0.54000  Biso   1.000  O
  O7       1.0000 0.23010  0.25390  0.58730  Biso   1.000  O
  O8       1.0000 0.13500  0.27020  0.64460  Biso   1.000  O
  O9       1.0000 0.41120  0.63970  0.63140  Biso   1.000  O
  O10      1.0000 0.53730  0.81100  0.77800  Biso   1.000  O
  O11      1.0000 0.33670  0.78210  0.67690  Biso   1.000  O
  O12      1.0000 0.64520  0.79780  0.67980  Biso   1.000  O
  O13      1.0000 0.08890  0.11960  0.49749  Biso   1.000  O
  O14      1.0000 0.04550  0.22400  0.52560  Biso   1.000  O
  O15      1.0000 0.39590  0.52710  0.04800  Biso   1.000  O
  O16      1.0000 0.41660  0.61990  0.11240  Biso   1.000  O
  O17      1.0000 0.57780  0.78270  0.14610  Biso   1.000  O
  O18      1.0000 0.67330  0.77980  0.08680  Biso   1.000  O
  O19      1.0000 0.58490  0.50580  0.06610  Biso   1.000  O
  O20      1.0000 0.63180  0.61360  0.11980  Biso   1.000  O
  O21      1.0000 0.79770  0.31670  0.21140  Biso   1.000  O
  O22      1.0000 0.09730  0.30500  0.18280  Biso   1.000  O
  O23      1.0000 0.84360  0.16850  0.14800  Biso   1.000  O
  O24      1.0000 0.00940  0.31500  0.29210  Biso   1.000  O
  Cd1      1.0000 0.54771  0.67492  0.08798  Biso   1.000  Cd
  Cd2      1.0000 0.09270  0.16377  0.58609  Biso   1.000  Cd
  H58      1.0000 0.74210  0.93450  0.09420  Biso   1.000  H
  H59      1.0000 0.81340  0.03580  0.12490  Biso   1.000  H
  H60      1.0000 0.80800  0.89650  0.11660  Biso   1.000  H
  H61      1.0000 0.88050  0.99770  0.14630  Biso   1.000  H
  H62      1.0000 0.97310  0.44940  0.12270  Biso   1.000  H
  C89      1.0000 0.47290  0.32030  0.00910  Biso   1.000  C
  C90      1.0000 0.47600  0.31580  0.06260  Biso   1.000  C
  C91      1.0000 0.44790  0.36580  0.09550  Biso   1.000  C
  H63      1.0000 0.42190  0.40100  0.08480  Biso   1.000  H
  C92      1.0000 0.45720  0.36540  0.14630  Biso   1.000  C
  H64      1.0000 0.43680  0.40030  0.16860  Biso   1.000  H
  C93      1.0000 0.49600  0.31450  0.16410  Biso   1.000  C
  C94      1.0000 0.52260  0.25980  0.12850  Biso   1.000  C
  H65      1.0000 0.54630  0.22290  0.13870  Biso   1.000  H
  C95      1.0000 0.51330  0.26180  0.07930  Biso   1.000  C
  H66      1.0000 0.53200  0.22650  0.05630  Biso   1.000  H
  C96      1.0000 0.51580  0.32160  0.21740  Biso   1.000  C
  C97      1.0000 0.50010  0.26300  0.24520  Biso   1.000  C
  C98      1.0000 0.52360  0.27380  0.29520  Biso   1.000  C
  C99      1.0000 0.56510  0.35020  0.31930  Biso   1.000  C
  C100     1.0000 0.58320  0.40930  0.29250  Biso   1.000  C
  C101     1.0000 0.55740  0.39450  0.24300  Biso   1.000  C
  H67      1.0000 0.56810  0.43470  0.22560  Biso   1.000  H
  C102     1.0000 0.63460  0.48590  0.31450  Biso   1.000  C
  C103     1.0000 0.62000  0.52300  0.36140  Biso   1.000  C
  H68      1.0000 0.57590  0.49890  0.37990  Biso   1.000  H
  C104     1.0000 0.66880  0.59360  0.38040  Biso   1.000  C
  H69      1.0000 0.65680  0.61700  0.41150  Biso   1.000  H
  C105     1.0000 0.73770  0.63210  0.35350  Biso   1.000  C
  C106     1.0000 0.75180  0.59560  0.30650  Biso   1.000  C
  H70      1.0000 0.79670  0.61940  0.28810  Biso   1.000  H
  C107     1.0000 0.70040  0.52480  0.28670  Biso   1.000  C
  H71      1.0000 0.70930  0.50250  0.25480  Biso   1.000  H
  C108     1.0000 0.79240  0.70770  0.37640  Biso   1.000  C
  C109     1.0000 0.50750  0.20970  0.32230  Biso   1.000  C
  C110     1.0000 0.42250  0.17470  0.33440  Biso   1.000  C
  C111     1.0000 0.40820  0.11130  0.35780  Biso   1.000  C
  C112     1.0000 0.47950  0.08640  0.37190  Biso   1.000  C
  H72      1.0000 0.46970  0.04580  0.38890  Biso   1.000  H
  C113     1.0000 0.56750  0.12100  0.36120  Biso   1.000  C
  C114     1.0000 0.57750  0.18220  0.33560  Biso   1.000  C
  C115     1.0000 0.51800  0.35410  0.40170  Biso   1.000  C
  H73      1.0000 0.49540  0.39850  0.40460  Biso   1.000  H
  H74      1.0000 0.47200  0.31020  0.38910  Biso   1.000  H
  H75      1.0000 0.53910  0.34950  0.43360  Biso   1.000  H
  C116     1.0000 0.37210  0.17480  0.20450  Biso   1.000  C
  H76      1.0000 0.34490  0.12170  0.20100  Biso   1.000  H
  H77      1.0000 0.34090  0.20250  0.22780  Biso   1.000  H
  H78      1.0000 0.37010  0.19080  0.17310  Biso   1.000  H
  C117     1.0000 0.30630  0.23150  0.35990  Biso   1.000  C
  H79      1.0000 0.24750  0.22810  0.34800  Biso   1.000  H
  H80      1.0000 0.30400  0.20260  0.38610  Biso   1.000  H
  H81      1.0000 0.33480  0.28350  0.37210  Biso   1.000  H
  C118     1.0000 0.68930  0.17850  0.28020  Biso   1.000  C
  H82      1.0000 0.68200  0.12640  0.28340  Biso   1.000  H
  H83      1.0000 0.65380  0.18160  0.25240  Biso   1.000  H
  H84      1.0000 0.75010  0.20030  0.27520  Biso   1.000  H
  C119     1.0000 0.64040  0.08980  0.37520  Biso   1.000  C
  C120     1.0000 0.71440  0.13480  0.40290  Biso   1.000  C
  H85      1.0000 0.72010  0.18680  0.41100  Biso   1.000  H
  C121     1.0000 0.78090  0.10290  0.41880  Biso   1.000  C
  H86      1.0000 0.83020  0.13330  0.43730  Biso   1.000  H
  C122     1.0000 0.77110  0.02470  0.40610  Biso   1.000  C
  C123     1.0000 0.69940  0.98150  0.37710  Biso   1.000  C
  H87      1.0000 0.69460  0.92990  0.36750  Biso   1.000  H
  C124     1.0000 0.63410  0.01280  0.36190  Biso   1.000  C
  H88      1.0000 0.58580  0.98210  0.34270  Biso   1.000  H
  C125     1.0000 0.84130  0.99110  0.42430  Biso   1.000  C
  C126     1.0000 0.25560  0.03830  0.32690  Biso   1.000  C
  H89      1.0000 0.26810  0.05210  0.29610  Biso   1.000  H
  C127     1.0000 0.31860  0.06680  0.36540  Biso   1.000  C
  C128     1.0000 0.29430  0.05040  0.41190  Biso   1.000  C
  H90      1.0000 0.33420  0.07030  0.43870  Biso   1.000  H
  C129     1.0000 0.21330  0.00580  0.41950  Biso   1.000  C
  H91      1.0000 0.19840  0.99720  0.45120  Biso   1.000  H
  C130     1.0000 0.15360  0.97350  0.38000  Biso   1.000  C
  C131     1.0000 0.17740  0.99140  0.33240  Biso   1.000  C
  H92      1.0000 0.13860  0.97070  0.30520  Biso   1.000  H
  C132     1.0000 0.06470  0.92450  0.38830  Biso   1.000  C
  C133     1.0000 0.94360  0.82510  0.51060  Biso   1.000  C
  C134     1.0000 0.96670  0.81950  0.56030  Biso   1.000  C
  C135     1.0000 0.00550  0.76160  0.57070  Biso   1.000  C
  H93      1.0000 0.01210  0.72360  0.54520  Biso   1.000  H
  C136     1.0000 0.03350  0.76080  0.61790  Biso   1.000  C
  H94      1.0000 0.05980  0.72280  0.62380  Biso   1.000  H
  C137     1.0000 0.02330  0.81560  0.65680  Biso   1.000  C
  C138     1.0000 0.98420  0.87290  0.64720  Biso   1.000  C
  H95      1.0000 0.97700  0.91050  0.67280  Biso   1.000  H
  C139     1.0000 0.95700  0.87320  0.60010  Biso   1.000  C
  H96      1.0000 0.93060  0.91120  0.59440  Biso   1.000  H
  C140     1.0000 0.05830  0.81870  0.70710  Biso   1.000  C
  C141     1.0000 0.03910  0.75620  0.73200  Biso   1.000  C
  C142     1.0000 0.07110  0.76030  0.77950  Biso   1.000  C
  C143     1.0000 0.12840  0.82940  0.80370  Biso   1.000  C
  C144     1.0000 0.14320  0.89360  0.78210  Biso   1.000  C
  C145     1.0000 0.10930  0.88680  0.73410  Biso   1.000  C
  H97      1.0000 0.12090  0.92970  0.71920  Biso   1.000  H
  C146     1.0000 0.19630  0.96860  0.80700  Biso   1.000  C
  C147     1.0000 0.26430  0.00860  0.78150  Biso   1.000  C
  H98      1.0000 0.27560  0.98750  0.74980  Biso   1.000  H
  C148     1.0000 0.31550  0.07970  0.80320  Biso   1.000  C
  H99      1.0000 0.36000  0.10570  0.78560  Biso   1.000  H
  C149     1.0000 0.30040  0.11130  0.84980  Biso   1.000  C
  C150     1.0000 0.23220  0.07120  0.87490  Biso   1.000  C
  C151     1.0000 0.18060  0.99940  0.85350  Biso   1.000  C
  C152     1.0000 0.35320  0.18940  0.87440  Biso   1.000  C
  C153     1.0000 0.05350  0.69090  0.80420  Biso   1.000  C
  C154     1.0000 0.97210  0.66250  0.82160  Biso   1.000  C
  C155     1.0000 0.95420  0.59330  0.83970  Biso   1.000  C
  C156     1.0000 0.02110  0.55630  0.84310  Biso   1.000  C
  H100     1.0000 0.00110  0.50570  0.82400  Biso   1.000  H
  C157     1.0000 0.10830  0.58820  0.82750  Biso   1.000  C
  C158     1.0000 0.12020  0.65370  0.80800  Biso   1.000  C
  C159     1.0000 0.21430  0.64560  0.73990  Biso   1.000  C
  H101     1.0000 0.16990  0.60540  0.72410  Biso   1.000  H
  H102     1.0000 0.26640  0.66130  0.72410  Biso   1.000  H
  C160     1.0000 0.89980  0.68160  0.69780  Biso   1.000  C
  H103     1.0000 0.87320  0.63470  0.67660  Biso   1.000  H
  H104     1.0000 0.86980  0.68470  0.72830  Biso   1.000  H
  H105     1.0000 0.89550  0.72310  0.68180  Biso   1.000  H
  C161     1.0000 0.91050  0.76900  0.84810  Biso   1.000  C
  H106     1.0000 0.85490  0.77100  0.86230  Biso   1.000  H
  H107     1.0000 0.95460  0.77670  0.87400  Biso   1.000  H
  H108     1.0000 0.92700  0.80790  0.82820  Biso   1.000  H
  C162     1.0000 0.25070  0.84620  0.85930  Biso   1.000  C
  H109     1.0000 0.26690  0.86480  0.89360  Biso   1.000  H
  H110     1.0000 0.26910  0.80020  0.84910  Biso   1.000  H
  H111     1.0000 0.27890  0.88330  0.83990  Biso   1.000  H
  C163     1.0000 0.18010  0.55440  0.83860  Biso   1.000  C
  C164     1.0000 0.25700  0.59750  0.86320  Biso   1.000  C
  H112     1.0000 0.26770  0.64990  0.86690  Biso   1.000  H
  C165     1.0000 0.31870  0.56700  0.88250  Biso   1.000  C
  H113     1.0000 0.36800  0.59760  0.90080  Biso   1.000  H
  C166     1.0000 0.30490  0.48890  0.87370  Biso   1.000  C
  C167     1.0000 0.23280  0.44530  0.84620  Biso   1.000  C
  H114     1.0000 0.22560  0.39320  0.83880  Biso   1.000  H
  C168     1.0000 0.17160  0.47710  0.82960  Biso   1.000  C
  H115     1.0000 0.12220  0.44600  0.81150  Biso   1.000  H
  C169     1.0000 0.37020  0.45390  0.89820  Biso   1.000  C
  C170     1.0000 0.86830  0.55710  0.85530  Biso   1.000  C
  C171     1.0000 0.82810  0.59560  0.89380  Biso   1.000  C
  H116     1.0000 0.85340  0.64580  0.90730  Biso   1.000  H
  C172     1.0000 0.74850  0.55610  0.91180  Biso   1.000  C
  H117     1.0000 0.72280  0.58080  0.93790  Biso   1.000  H
  C173     1.0000 0.70630  0.47940  0.89100  Biso   1.000  C
  C174     1.0000 0.74680  0.44470  0.85310  Biso   1.000  C
  H118     1.0000 0.72040  0.39530  0.83820  Biso   1.000  H
  C175     1.0000 0.82730  0.48190  0.83630  Biso   1.000  C
  H119     1.0000 0.85440  0.45560  0.81160  Biso   1.000  H
  C176     1.0000 0.62440  0.44220  0.91120  Biso   1.000  C
  O25      1.0000 0.43910  0.37010  0.99661  Biso   1.000  O
  O26      1.0000 0.50190  0.27440  0.97880  Biso   1.000  O
  O27      1.0000 0.01980  0.87890  0.35280  Biso   1.000  O
  O28      1.0000 0.03930  0.92560  0.43160  Biso   1.000  O
  O29      1.0000 0.83940  0.92460  0.40120  Biso   1.000  O
  O30      1.0000 0.89160  0.02640  0.46000  Biso   1.000  O
  O31      1.0000 0.76990  0.74610  0.41270  Biso   1.000  O
  O32      1.0000 0.86500  0.72980  0.35540  Biso   1.000  O
  O33      1.0000 0.58880  0.36030  0.36860  Biso   1.000  O
  O34      1.0000 0.46270  0.18900  0.22200  Biso   1.000  O
  O35      1.0000 0.66330  0.21790  0.32310  Biso   1.000  O
  O36      1.0000 0.35480  0.20220  0.32020  Biso   1.000  O
  O37      1.0000 0.91110  0.88040  0.50251  Biso   1.000  O
  O38      1.0000 0.95450  0.77600  0.47440  Biso   1.000  O
  O39      1.0000 0.60410  0.47290  0.95200  Biso   1.000  O
  O40      1.0000 0.58340  0.38010  0.88760  Biso   1.000  O
  O41      1.0000 0.42220  0.21730  0.85390  Biso   1.000  O
  O42      1.0000 0.32670  0.22020  0.91320  Biso   1.000  O
  O43      1.0000 0.41510  0.49420  0.93390  Biso   1.000  O
  O44      1.0000 0.36820  0.38640  0.88020  Biso   1.000  O
  O45      1.0000 0.20230  0.68330  0.78860  Biso   1.000  O
  O46      1.0000 0.90270  0.69500  0.81720  Biso   1.000  O
  O47      1.0000 0.15640  0.83150  0.85200  Biso   1.000  O
  O48      1.0000 0.99060  0.68500  0.70790  Biso   1.000  O
  Cd3      1.0000 0.45229  0.32508  0.91202  Biso   1.000  Cd
  Cd4      1.0000 0.90730  0.83623  0.41391  Biso   1.000  Cd
  H120     1.0000 0.25790  0.06550  0.90580  Biso   1.000  H
  H121     1.0000 0.18660  0.96420  0.87510  Biso   1.000  H
  H122     1.0000 0.19200  0.10350  0.88340  Biso   1.000  H
  H123     1.0000 0.11950  0.00230  0.85370  Biso   1.000  H
  H124     1.0000 0.02690  0.55060  0.87730  Biso   1.000  H
  Cd5      1.0000 0.50000  0.50000  0.00000  Biso   1.000  Cd
  Cd6      1.0000 0.00000  0.00000  0.50000  Biso   1.000  Cd
