data_image0
_cell_length_a       15.468
_cell_length_b       15.785
_cell_length_c       18.038
_cell_angle_alpha    107.27
_cell_angle_beta     103.949
_cell_angle_gamma    107.163

_symmetry_space_group_name_H-M    "P 1"
_symmetry_int_tables_number       1

loop_
  _symmetry_equiv_pos_as_xyz
  'x, y, z'

loop_
  _atom_site_label
  _atom_site_occupancy
  _atom_site_fract_x
  _atom_site_fract_y
  _atom_site_fract_z
  _atom_site_thermal_displace_type
  _atom_site_B_iso_or_equiv
  _atom_site_type_symbol
  Co1      1.0000 0.02536  0.17788  0.91484  Biso   1.000  Co
  O1       1.0000 0.95830  0.10460  0.06200  Biso   1.000  O
  O2       1.0000 0.97680  0.22800  0.01280  Biso   1.000  O
  O3       1.0000 0.94890  0.02010  0.88040  Biso   1.000  O
  O4       1.0000 0.02490  0.06480  0.79740  Biso   1.000  O
  O5       1.0000 0.89040  0.17820  0.82140  Biso   1.000  O
  O6       1.0000 0.03590  0.29210  0.87050  Biso   1.000  O
  O7       1.0000 0.17240  0.22730  0.98790  Biso   1.000  O
  O8       1.0000 0.14200  0.10370  0.02820  Biso   1.000  O
  C1       1.0000 0.97160  0.99960  0.81280  Biso   1.000  C
  C2       1.0000 0.92430  0.89730  0.75630  Biso   1.000  C
  C3       1.0000 0.86370  0.82660  0.77410  Biso   1.000  C
  H1       1.0000 0.84860  0.84500  0.82170  Biso   1.000  H
  C4       1.0000 0.82680  0.73160  0.72290  Biso   1.000  C
  H2       1.0000 0.78500  0.68640  0.73510  Biso   1.000  H
  C5       1.0000 0.85010  0.70030  0.65280  Biso   1.000  C
  C6       1.0000 0.90650  0.76760  0.63170  Biso   1.000  C
  H3       1.0000 0.91850  0.74710  0.58270  Biso   1.000  H
  C7       1.0000 0.94660  0.86750  0.68260  Biso   1.000  C
  H4       1.0000 0.98620  0.91240  0.66860  Biso   1.000  H
  C8       1.0000 0.82100  0.59460  0.60590  Biso   1.000  C
  C9       1.0000 0.84110  0.54070  0.65040  Biso   1.000  C
  H5       1.0000 0.87010  0.57140  0.70810  Biso   1.000  H
  O9       1.0000 0.76360  0.59680  0.47030  Biso   1.000  O
  C10      1.0000 0.81990  0.44210  0.61290  Biso   1.000  C
  O10      1.0000 0.75360  0.29720  0.48590  Biso   1.000  O
  C11      1.0000 0.77990  0.39670  0.52980  Biso   1.000  C
  O11      1.0000 0.56150  0.39220  0.37830  Biso   1.000  O
  C12      1.0000 0.75890  0.44910  0.48140  Biso   1.000  C
  O12      1.0000 0.87950  0.41160  0.39630  Biso   1.000  O
  C13      1.0000 0.78260  0.54640  0.52040  Biso   1.000  C
  C14      1.0000 0.68470  0.63370  0.47480  Biso   1.000  C
  H6       1.0000 0.68480  0.67460  0.44460  Biso   1.000  H
  H7       1.0000 0.69620  0.67000  0.53190  Biso   1.000  H
  H8       1.0000 0.62300  0.58010  0.45070  Biso   1.000  H
  C15      1.0000 0.83790  0.26920  0.48420  Biso   1.000  C
  H9       1.0000 0.81720  0.20080  0.46900  Biso   1.000  H
  H10      1.0000 0.88820  0.30270  0.53820  Biso   1.000  H
  H11      1.0000 0.86230  0.28610  0.44410  Biso   1.000  H
  C16      1.0000 0.94770  0.25530  0.82290  Biso   1.000  C
  C17      1.0000 0.91240  0.30330  0.77250  Biso   1.000  C
  C18      1.0000 0.82140  0.26220  0.71350  Biso   1.000  C
  H12      1.0000 0.77860  0.20390  0.70930  Biso   1.000  H
  C19      1.0000 0.79030  0.30140  0.66100  Biso   1.000  C
  H13      1.0000 0.72960  0.26740  0.61880  Biso   1.000  H
  C20      1.0000 0.84830  0.39210  0.66950  Biso   1.000  C
  C21      1.0000 0.94120  0.43950  0.73360  Biso   1.000  C
  H14      1.0000 0.97990  0.50180  0.74230  Biso   1.000  H
  C22      1.0000 0.97540  0.39760  0.78210  Biso   1.000  C
  H15      1.0000 0.03830  0.42850  0.82110  Biso   1.000  H
  C23      1.0000 0.95440  0.18000  0.06300  Biso   1.000  C
  C24      1.0000 0.91250  0.23720  0.11730  Biso   1.000  C
  C25      1.0000 0.91420  0.22080  0.18970  Biso   1.000  C
  H16      1.0000 0.94370  0.18120  0.20350  Biso   1.000  H
  C26      1.0000 0.87120  0.26420  0.24140  Biso   1.000  C
  H17      1.0000 0.87780  0.25850  0.29210  Biso   1.000  H
  C27      1.0000 0.81660  0.31780  0.21650  Biso   1.000  C
  C28      1.0000 0.81840  0.33690  0.14530  Biso   1.000  C
  H18      1.0000 0.78920  0.37660  0.13130  Biso   1.000  H
  C29      1.0000 0.86500  0.29530  0.09490  Biso   1.000  C
  H19      1.0000 0.86430  0.30600  0.04680  Biso   1.000  H
  C30      1.0000 0.75140  0.34270  0.25980  Biso   1.000  C
  C31      1.0000 0.78530  0.38660  0.34910  Biso   1.000  C
  C32      1.0000 0.94060  0.50720  0.40860  Biso   1.000  C
  H20      1.0000 0.00740  0.51700  0.43040  Biso   1.000  H
  H21      1.0000 0.92780  0.55430  0.44720  Biso   1.000  H
  H22      1.0000 0.92720  0.51410  0.35640  Biso   1.000  H
  C33      1.0000 0.71980  0.40180  0.38770  Biso   1.000  C
  C34      1.0000 0.62380  0.37270  0.34010  Biso   1.000  C
  C35      1.0000 0.59110  0.33110  0.25330  Biso   1.000  C
  C36      1.0000 0.65780  0.32020  0.21600  Biso   1.000  C
  H23      1.0000 0.63720  0.29620  0.15830  Biso   1.000  H
  C37      1.0000 0.52660  0.33130  0.42170  Biso   1.000  C
  H24      1.0000 0.48110  0.35000  0.44330  Biso   1.000  H
  H25      1.0000 0.58060  0.33930  0.46680  Biso   1.000  H
  H26      1.0000 0.49560  0.26480  0.38340  Biso   1.000  H
  C38      1.0000 0.48950  0.29660  0.19970  Biso   1.000  C
  C39      1.0000 0.46180  0.33530  0.13810  Biso   1.000  C
  H27      1.0000 0.50780  0.38350  0.13200  Biso   1.000  H
  C40      1.0000 0.36520  0.29820  0.08920  Biso   1.000  C
  H28      1.0000 0.34610  0.32840  0.05500  Biso   1.000  H
  C41      1.0000 0.29770  0.22240  0.08760  Biso   1.000  C
  C42      1.0000 0.32590  0.18620  0.14160  Biso   1.000  C
  H29      1.0000 0.28050  0.13240  0.14180  Biso   1.000  H
  C43      1.0000 0.42190  0.22520  0.19920  Biso   1.000  C
  H30      1.0000 0.43650  0.19860  0.23780  Biso   1.000  H
  C44      1.0000 0.19610  0.18440  0.03060  Biso   1.000  C
  Co2      1.0000 0.97464  0.82212  0.08516  Biso   1.000  Co
  O13      1.0000 0.04170  0.89540  0.93800  Biso   1.000  O
  O14      1.0000 0.02320  0.77200  0.98720  Biso   1.000  O
  O15      1.0000 0.05110  0.97990  0.11960  Biso   1.000  O
  O16      1.0000 0.97510  0.93520  0.20260  Biso   1.000  O
  O17      1.0000 0.10960  0.82180  0.17860  Biso   1.000  O
  O18      1.0000 0.96410  0.70790  0.12950  Biso   1.000  O
  O19      1.0000 0.82760  0.77270  0.01210  Biso   1.000  O
  O20      1.0000 0.85800  0.89630  0.97180  Biso   1.000  O
  C45      1.0000 0.02840  0.00040  0.18720  Biso   1.000  C
  C46      1.0000 0.07570  0.10270  0.24370  Biso   1.000  C
  C47      1.0000 0.13630  0.17340  0.22590  Biso   1.000  C
  H31      1.0000 0.15140  0.15500  0.17830  Biso   1.000  H
  C48      1.0000 0.17320  0.26840  0.27710  Biso   1.000  C
  H32      1.0000 0.21500  0.31360  0.26490  Biso   1.000  H
  C49      1.0000 0.14990  0.29970  0.34720  Biso   1.000  C
  C50      1.0000 0.09350  0.23240  0.36830  Biso   1.000  C
  H33      1.0000 0.08150  0.25290  0.41730  Biso   1.000  H
  C51      1.0000 0.05340  0.13250  0.31740  Biso   1.000  C
  H34      1.0000 0.01380  0.08760  0.33140  Biso   1.000  H
  C52      1.0000 0.17900  0.40540  0.39410  Biso   1.000  C
  C53      1.0000 0.15890  0.45930  0.34960  Biso   1.000  C
  H35      1.0000 0.12990  0.42860  0.29190  Biso   1.000  H
  O21      1.0000 0.23640  0.40320  0.52970  Biso   1.000  O
  C54      1.0000 0.18010  0.55790  0.38710  Biso   1.000  C
  O22      1.0000 0.24640  0.70280  0.51410  Biso   1.000  O
  C55      1.0000 0.22010  0.60330  0.47020  Biso   1.000  C
  O23      1.0000 0.43850  0.60780  0.62170  Biso   1.000  O
  C56      1.0000 0.24110  0.55090  0.51860  Biso   1.000  C
  O24      1.0000 0.12050  0.58840  0.60370  Biso   1.000  O
  C57      1.0000 0.21740  0.45360  0.47960  Biso   1.000  C
  C58      1.0000 0.31530  0.36630  0.52520  Biso   1.000  C
  H36      1.0000 0.31520  0.32540  0.55540  Biso   1.000  H
  H37      1.0000 0.30380  0.33000  0.46810  Biso   1.000  H
  H38      1.0000 0.37700  0.41990  0.54930  Biso   1.000  H
  C59      1.0000 0.16210  0.73080  0.51580  Biso   1.000  C
  H39      1.0000 0.18280  0.79920  0.53100  Biso   1.000  H
  H40      1.0000 0.11180  0.69730  0.46180  Biso   1.000  H
  H41      1.0000 0.13770  0.71390  0.55590  Biso   1.000  H
  C60      1.0000 0.05230  0.74470  0.17710  Biso   1.000  C
  C61      1.0000 0.08760  0.69670  0.22750  Biso   1.000  C
  C62      1.0000 0.17860  0.73780  0.28650  Biso   1.000  C
  H42      1.0000 0.22140  0.79610  0.29070  Biso   1.000  H
  C63      1.0000 0.20970  0.69860  0.33900  Biso   1.000  C
  H43      1.0000 0.27040  0.73260  0.38120  Biso   1.000  H
  C64      1.0000 0.15170  0.60790  0.33050  Biso   1.000  C
  C65      1.0000 0.05880  0.56050  0.26640  Biso   1.000  C
  H44      1.0000 0.02010  0.49820  0.25770  Biso   1.000  H
  C66      1.0000 0.02460  0.60240  0.21790  Biso   1.000  C
  H45      1.0000 0.96170  0.57150  0.17890  Biso   1.000  H
  C67      1.0000 0.04560  0.82000  0.93700  Biso   1.000  C
  C68      1.0000 0.08750  0.76280  0.88270  Biso   1.000  C
  C69      1.0000 0.08580  0.77920  0.81030  Biso   1.000  C
  H46      1.0000 0.05630  0.81880  0.79650  Biso   1.000  H
  C70      1.0000 0.12880  0.73580  0.75860  Biso   1.000  C
  H47      1.0000 0.12220  0.74150  0.70790  Biso   1.000  H
  C71      1.0000 0.18340  0.68220  0.78350  Biso   1.000  C
  C72      1.0000 0.18160  0.66310  0.85470  Biso   1.000  C
  H48      1.0000 0.21080  0.62340  0.86870  Biso   1.000  H
  C73      1.0000 0.13500  0.70470  0.90510  Biso   1.000  C
  H49      1.0000 0.13570  0.69400  0.95320  Biso   1.000  H
  C74      1.0000 0.24860  0.65730  0.74020  Biso   1.000  C
  C75      1.0000 0.21470  0.61340  0.65090  Biso   1.000  C
  C76      1.0000 0.05940  0.49280  0.59140  Biso   1.000  C
  H50      1.0000 0.99260  0.48300  0.56960  Biso   1.000  H
  H51      1.0000 0.07220  0.44570  0.55280  Biso   1.000  H
  H52      1.0000 0.07280  0.48590  0.64360  Biso   1.000  H
  C77      1.0000 0.28020  0.59820  0.61230  Biso   1.000  C
  C78      1.0000 0.37620  0.62730  0.65990  Biso   1.000  C
  C79      1.0000 0.40890  0.66890  0.74670  Biso   1.000  C
  C80      1.0000 0.34220  0.67980  0.78400  Biso   1.000  C
  H53      1.0000 0.36280  0.70380  0.84170  Biso   1.000  H
  C81      1.0000 0.47340  0.66870  0.57830  Biso   1.000  C
  H54      1.0000 0.51890  0.65000  0.55670  Biso   1.000  H
  H55      1.0000 0.41940  0.66070  0.53320  Biso   1.000  H
  H56      1.0000 0.50440  0.73520  0.61660  Biso   1.000  H
  C82      1.0000 0.51050  0.70340  0.80030  Biso   1.000  C
  C83      1.0000 0.53820  0.66470  0.86190  Biso   1.000  C
  H57      1.0000 0.49220  0.61650  0.86800  Biso   1.000  H
  C84      1.0000 0.63480  0.70180  0.91080  Biso   1.000  C
  H58      1.0000 0.65390  0.67160  0.94500  Biso   1.000  H
  C85      1.0000 0.70230  0.77760  0.91240  Biso   1.000  C
  C86      1.0000 0.67410  0.81380  0.85840  Biso   1.000  C
  H59      1.0000 0.71950  0.86760  0.85820  Biso   1.000  H
  C87      1.0000 0.57810  0.77480  0.80080  Biso   1.000  C
  H60      1.0000 0.56350  0.80140  0.76220  Biso   1.000  H
  C88      1.0000 0.80390  0.81560  0.96940  Biso   1.000  C
  Co3      1.0000 0.00000  0.00000  0.00000  Biso   1.000  Co
