data_image0
_cell_length_a       15.4562
_cell_length_b       16.278
_cell_length_c       18.346
_cell_angle_alpha    108.559
_cell_angle_beta     103.799
_cell_angle_gamma    108.453

_symmetry_space_group_name_H-M    "P 1"
_symmetry_int_tables_number       1

loop_
  _symmetry_equiv_pos_as_xyz
  'x, y, z'

loop_
  _atom_site_label
  _atom_site_occupancy
  _atom_site_fract_x
  _atom_site_fract_y
  _atom_site_fract_z
  _atom_site_thermal_displace_type
  _atom_site_B_iso_or_equiv
  _atom_site_type_symbol
  C1       1.0000 0.55400  0.02450  0.68980  Biso   1.000  C
  C2       1.0000 0.59490  0.12740  0.74480  Biso   1.000  C
  C3       1.0000 0.64370  0.19300  0.72200  Biso   1.000  C
  H1       1.0000 0.65610  0.17350  0.67360  Biso   1.000  H
  C4       1.0000 0.67620  0.29160  0.77160  Biso   1.000  C
  H2       1.0000 0.70930  0.33680  0.75550  Biso   1.000  H
  C5       1.0000 0.65890  0.32120  0.84420  Biso   1.000  C
  C6       1.0000 0.61150  0.25480  0.86780  Biso   1.000  C
  H3       1.0000 0.60040  0.27470  0.91670  Biso   1.000  H
  C7       1.0000 0.57960  0.15810  0.82020  Biso   1.000  C
  H4       1.0000 0.54820  0.11340  0.83760  Biso   1.000  H
  C8       1.0000 0.56220  0.75350  0.68110  Biso   1.000  C
  C9       1.0000 0.59280  0.70730  0.73150  Biso   1.000  C
  C10      1.0000 0.52840  0.61360  0.71630  Biso   1.000  C
  H5       1.0000 0.46640  0.58190  0.67390  Biso   1.000  H
  C11      1.0000 0.55730  0.57020  0.76350  Biso   1.000  C
  H6       1.0000 0.51590  0.50790  0.75140  Biso   1.000  H
  C12      1.0000 0.64890  0.61830  0.83060  Biso   1.000  C
  C13      1.0000 0.71290  0.70960  0.84310  Biso   1.000  C
  H7       1.0000 0.77520  0.74120  0.88500  Biso   1.000  H
  C14      1.0000 0.68460  0.75260  0.79440  Biso   1.000  C
  H8       1.0000 0.72800  0.81300  0.80400  Biso   1.000  H
  C15      1.0000 0.30850  0.80350  0.47630  Biso   1.000  C
  C16      1.0000 0.20860  0.77210  0.41260  Biso   1.000  C
  C17      1.0000 0.13140  0.69910  0.40820  Biso   1.000  C
  H9       1.0000 0.14020  0.66890  0.44280  Biso   1.000  H
  C18      1.0000 0.03390  0.66930  0.34780  Biso   1.000  C
  H10      1.0000 0.98050  0.61710  0.34150  Biso   1.000  H
  C19      1.0000 0.02070  0.71780  0.30020  Biso   1.000  C
  C20      1.0000 0.09330  0.80110  0.32140  Biso   1.000  C
  H11      1.0000 0.08090  0.84360  0.30120  Biso   1.000  H
  C21      1.0000 0.18720  0.82590  0.37300  Biso   1.000  C
  H12      1.0000 0.23810  0.88150  0.38140  Biso   1.000  H
  C22      1.0000 0.55690  0.82290  0.44000  Biso   1.000  C
  C23      1.0000 0.59660  0.77200  0.38020  Biso   1.000  C
  C24      1.0000 0.59110  0.78400  0.30760  Biso   1.000  C
  H13      1.0000 0.55620  0.81700  0.29240  Biso   1.000  H
  C25      1.0000 0.63630  0.74790  0.25840  Biso   1.000  C
  H14      1.0000 0.63060  0.75590  0.20970  Biso   1.000  H
  C26      1.0000 0.69110  0.69930  0.27990  Biso   1.000  C
  C27      1.0000 0.69260  0.68410  0.35230  Biso   1.000  C
  H15      1.0000 0.72690  0.65090  0.36800  Biso   1.000  H
  C28      1.0000 0.64410  0.71780  0.39900  Biso   1.000  C
  H16      1.0000 0.64290  0.70410  0.44440  Biso   1.000  H
  C29      1.0000 0.65910  0.47400  0.84510  Biso   1.000  C
  H17      1.0000 0.62820  0.44120  0.78770  Biso   1.000  H
  C30      1.0000 0.67630  0.57080  0.88290  Biso   1.000  C
  C31      1.0000 0.71780  0.61580  0.97040  Biso   1.000  C
  C32      1.0000 0.74700  0.57070  0.01660  Biso   1.000  C
  C33      1.0000 0.73340  0.47660  0.97590  Biso   1.000  C
  C34      1.0000 0.68580  0.42590  0.88940  Biso   1.000  C
  C35      1.0000 0.78660  0.61860  0.10820  Biso   1.000  C
  C36      1.0000 0.72360  0.63160  0.14970  Biso   1.000  C
  C37      1.0000 0.75380  0.67430  0.23610  Biso   1.000  C
  C38      1.0000 0.85200  0.70040  0.28110  Biso   1.000  C
  H18      1.0000 0.87390  0.72760  0.33880  Biso   1.000  H
  C39      1.0000 0.91880  0.68860  0.24550  Biso   1.000  C
  C40      1.0000 0.88520  0.64890  0.15760  Biso   1.000  C
  C41      1.0000 0.84330  0.41040  0.01110  Biso   1.000  C
  H19      1.0000 0.86090  0.38030  0.04590  Biso   1.000  H
  H20      1.0000 0.82290  0.36750  0.95400  Biso   1.000  H
  H21      1.0000 0.89910  0.46810  0.02510  Biso   1.000  H
  C42      1.0000 0.65430  0.73220  0.00680  Biso   1.000  C
  H22      1.0000 0.67610  0.79960  0.03820  Biso   1.000  H
  H23      1.0000 0.61750  0.71410  0.94970  Biso   1.000  H
  H24      1.0000 0.61320  0.69720  0.02850  Biso   1.000  H
  C43      1.0000 0.56090  0.51230  0.09810  Biso   1.000  C
  H25      1.0000 0.49430  0.49390  0.06370  Biso   1.000  H
  H26      1.0000 0.58100  0.46280  0.07570  Biso   1.000  H
  H27      1.0000 0.56470  0.52150  0.15330  Biso   1.000  H
  C44      1.0000 0.99180  0.70740  0.09440  Biso   1.000  C
  H28      1.0000 0.03550  0.69260  0.06860  Biso   1.000  H
  H29      1.0000 0.94030  0.71060  0.05570  Biso   1.000  H
  H30      1.0000 0.02790  0.76810  0.14220  Biso   1.000  H
  Cd1      1.0000 0.48569  0.83397  0.58842  Biso   1.000  Cd
  O1       1.0000 0.57550  0.99800  0.62500  Biso   1.000  O
  O2       1.0000 0.49930  0.96150  0.70600  Biso   1.000  O
  O3       1.0000 0.47010  0.71830  0.63410  Biso   1.000  O
  O4       1.0000 0.62130  0.82970  0.68520  Biso   1.000  O
  O5       1.0000 0.36970  0.88320  0.49850  Biso   1.000  O
  O6       1.0000 0.32350  0.74940  0.50500  Biso   1.000  O
  O7       1.0000 0.53700  0.78540  0.48800  Biso   1.000  O
  O8       1.0000 0.54900  0.89490  0.43490  Biso   1.000  O
  O9       1.0000 0.76430  0.43290  0.02340  Biso   1.000  O
  O10      1.0000 0.73710  0.71100  0.01280  Biso   1.000  O
  O11      1.0000 0.62510  0.60070  0.10040  Biso   1.000  O
  O12      1.0000 0.94960  0.63430  0.11950  Biso   1.000  O
  C45      1.0000 0.44600  0.97550  0.31020  Biso   1.000  C
  C46      1.0000 0.40510  0.87260  0.25520  Biso   1.000  C
  C47      1.0000 0.35630  0.80700  0.27800  Biso   1.000  C
  H31      1.0000 0.34390  0.82650  0.32640  Biso   1.000  H
  C48      1.0000 0.32380  0.70840  0.22840  Biso   1.000  C
  H32      1.0000 0.29070  0.66320  0.24450  Biso   1.000  H
  C49      1.0000 0.34110  0.67880  0.15580  Biso   1.000  C
  C50      1.0000 0.38850  0.74520  0.13220  Biso   1.000  C
  H33      1.0000 0.39960  0.72530  0.08330  Biso   1.000  H
  C51      1.0000 0.42040  0.84190  0.17980  Biso   1.000  C
  H34      1.0000 0.45180  0.88660  0.16240  Biso   1.000  H
  C52      1.0000 0.43780  0.24650  0.31890  Biso   1.000  C
  C53      1.0000 0.40720  0.29270  0.26850  Biso   1.000  C
  C54      1.0000 0.47160  0.38640  0.28370  Biso   1.000  C
  H35      1.0000 0.53360  0.41810  0.32610  Biso   1.000  H
  C55      1.0000 0.44270  0.42980  0.23650  Biso   1.000  C
  H36      1.0000 0.48410  0.49210  0.24860  Biso   1.000  H
  C56      1.0000 0.35110  0.38170  0.16940  Biso   1.000  C
  C57      1.0000 0.28710  0.29040  0.15690  Biso   1.000  C
  H37      1.0000 0.22480  0.25880  0.11500  Biso   1.000  H
  C58      1.0000 0.31540  0.24740  0.20560  Biso   1.000  C
  H38      1.0000 0.27200  0.18700  0.19600  Biso   1.000  H
  C59      1.0000 0.69150  0.19650  0.52370  Biso   1.000  C
  C60      1.0000 0.79140  0.22790  0.58740  Biso   1.000  C
  C61      1.0000 0.86860  0.30090  0.59180  Biso   1.000  C
  H39      1.0000 0.85980  0.33110  0.55720  Biso   1.000  H
  C62      1.0000 0.96610  0.33070  0.65220  Biso   1.000  C
  H40      1.0000 0.01950  0.38290  0.65850  Biso   1.000  H
  C63      1.0000 0.97930  0.28220  0.69980  Biso   1.000  C
  C64      1.0000 0.90670  0.19890  0.67860  Biso   1.000  C
  H41      1.0000 0.91910  0.15640  0.69880  Biso   1.000  H
  C65      1.0000 0.81280  0.17410  0.62700  Biso   1.000  C
  H42      1.0000 0.76190  0.11850  0.61860  Biso   1.000  H
  C66      1.0000 0.44310  0.17710  0.56000  Biso   1.000  C
  C67      1.0000 0.40340  0.22800  0.61980  Biso   1.000  C
  C68      1.0000 0.40890  0.21600  0.69240  Biso   1.000  C
  H43      1.0000 0.44380  0.18300  0.70760  Biso   1.000  H
  C69      1.0000 0.36370  0.25210  0.74160  Biso   1.000  C
  H44      1.0000 0.36940  0.24410  0.79030  Biso   1.000  H
  C70      1.0000 0.30890  0.30070  0.72010  Biso   1.000  C
  C71      1.0000 0.30740  0.31590  0.64770  Biso   1.000  C
  H45      1.0000 0.27310  0.34910  0.63200  Biso   1.000  H
  C72      1.0000 0.35590  0.28220  0.60100  Biso   1.000  C
  H46      1.0000 0.35710  0.29590  0.55560  Biso   1.000  H
  C73      1.0000 0.34090  0.52600  0.15490  Biso   1.000  C
  H47      1.0000 0.37180  0.55880  0.21230  Biso   1.000  H
  C74      1.0000 0.32370  0.42920  0.11710  Biso   1.000  C
  C75      1.0000 0.28220  0.38420  0.02960  Biso   1.000  C
  C76      1.0000 0.25300  0.42930  0.98340  Biso   1.000  C
  C77      1.0000 0.26660  0.52340  0.02410  Biso   1.000  C
  C78      1.0000 0.31420  0.57410  0.11060  Biso   1.000  C
  C79      1.0000 0.21340  0.38140  0.89180  Biso   1.000  C
  C80      1.0000 0.27640  0.36840  0.85030  Biso   1.000  C
  C81      1.0000 0.24620  0.32570  0.76390  Biso   1.000  C
  C82      1.0000 0.14800  0.29960  0.71890  Biso   1.000  C
  H48      1.0000 0.12610  0.27240  0.66120  Biso   1.000  H
  C83      1.0000 0.08120  0.31140  0.75450  Biso   1.000  C
  C84      1.0000 0.11480  0.35110  0.84240  Biso   1.000  C
  C85      1.0000 0.15670  0.58960  0.98890  Biso   1.000  C
  H49      1.0000 0.13910  0.61970  0.95410  Biso   1.000  H
  H50      1.0000 0.17710  0.63250  0.04600  Biso   1.000  H
  H51      1.0000 0.10090  0.53190  0.97490  Biso   1.000  H
  C86      1.0000 0.34570  0.26780  0.99320  Biso   1.000  C
  H52      1.0000 0.32390  0.20040  0.96180  Biso   1.000  H
  H53      1.0000 0.38250  0.28590  0.05030  Biso   1.000  H
  H54      1.0000 0.38680  0.30280  0.97150  Biso   1.000  H
  C87      1.0000 0.43910  0.48770  0.90190  Biso   1.000  C
  H55      1.0000 0.50570  0.50610  0.93630  Biso   1.000  H
  H56      1.0000 0.41900  0.53720  0.92430  Biso   1.000  H
  H57      1.0000 0.43530  0.47850  0.84670  Biso   1.000  H
  C88      1.0000 0.00820  0.29260  0.90560  Biso   1.000  C
  H58      1.0000 0.96450  0.30740  0.93140  Biso   1.000  H
  H59      1.0000 0.05970  0.28940  0.94430  Biso   1.000  H
  H60      1.0000 0.97210  0.23190  0.85780  Biso   1.000  H
  Cd2      1.0000 0.51431  0.16603  0.41158  Biso   1.000  Cd
  O13      1.0000 0.42450  0.00200  0.37500  Biso   1.000  O
  O14      1.0000 0.50070  0.03850  0.29400  Biso   1.000  O
  O15      1.0000 0.52990  0.28170  0.36590  Biso   1.000  O
  O16      1.0000 0.37870  0.17030  0.31480  Biso   1.000  O
  O17      1.0000 0.63030  0.11680  0.50150  Biso   1.000  O
  O18      1.0000 0.67650  0.25060  0.49500  Biso   1.000  O
  O19      1.0000 0.46300  0.21460  0.51200  Biso   1.000  O
  O20      1.0000 0.45100  0.10510  0.56510  Biso   1.000  O
  O21      1.0000 0.23570  0.56710  0.97660  Biso   1.000  O
  O22      1.0000 0.26290  0.28900  0.98720  Biso   1.000  O
  O23      1.0000 0.37490  0.39930  0.89960  Biso   1.000  O
  O24      1.0000 0.05040  0.36570  0.88050  Biso   1.000  O
  Cd3      1.0000 0.50000  0.00000  0.50000  Biso   1.000  Cd
