data_image0
_cell_length_a       15.957
_cell_length_b       16.46
_cell_length_c       17.3
_cell_angle_alpha    106.07
_cell_angle_beta     100.85
_cell_angle_gamma    113.408

_symmetry_space_group_name_H-M    "P 1"
_symmetry_int_tables_number       1

loop_
  _symmetry_equiv_pos_as_xyz
  'x, y, z'

loop_
  _atom_site_label
  _atom_site_occupancy
  _atom_site_fract_x
  _atom_site_fract_y
  _atom_site_fract_z
  _atom_site_thermal_displace_type
  _atom_site_B_iso_or_equiv
  _atom_site_type_symbol
  Mn1      1.0000 0.74896  0.59677  0.57339  Biso   1.000  Mn
  O1       1.0000 0.61710  0.55650  0.62420  Biso   1.000  O
  O2       1.0000 0.74220  0.70960  0.69430  Biso   1.000  O
  O3       1.0000 0.61810  0.58990  0.46830  Biso   1.000  O
  O4       1.0000 0.76550  0.70380  0.50490  Biso   1.000  O
  O5       1.0000 0.53970  0.39190  0.45630  Biso   1.000  O
  O6       1.0000 0.70190  0.45310  0.48470  Biso   1.000  O
  O7       1.0000 0.83780  0.57320  0.68680  Biso   1.000  O
  O8       1.0000 0.91030  0.65260  0.61230  Biso   1.000  O
  O9       1.0000 0.27260  0.79730  0.03560  Biso   1.000  O
  O10      1.0000 0.57610  0.80800  0.04110  Biso   1.000  O
  O11      1.0000 0.47490  0.99200  0.12040  Biso   1.000  O
  O12      1.0000 0.45430  0.70110  0.14350  Biso   1.000  O
  C1       1.0000 0.44810  0.73000  0.90050  Biso   1.000  C
  C2       1.0000 0.35290  0.70930  0.85760  Biso   1.000  C
  H1       1.0000 0.32820  0.67930  0.79830  Biso   1.000  H
  C3       1.0000 0.29350  0.73220  0.90110  Biso   1.000  C
  C4       1.0000 0.32870  0.77380  0.98680  Biso   1.000  C
  C5       1.0000 0.42340  0.80010  0.03680  Biso   1.000  C
  C6       1.0000 0.48110  0.77710  0.99150  Biso   1.000  C
  C7       1.0000 0.60100  0.72890  0.04050  Biso   1.000  C
  H2       1.0000 0.64680  0.73090  0.01120  Biso   1.000  H
  H3       1.0000 0.54320  0.66780  0.01180  Biso   1.000  H
  H4       1.0000 0.62890  0.73730  0.09830  Biso   1.000  H
  C8       1.0000 0.24790  0.86400  0.02070  Biso   1.000  C
  H5       1.0000 0.30560  0.92160  0.03210  Biso   1.000  H
  H6       1.0000 0.21320  0.87850  0.05750  Biso   1.000  H
  H7       1.0000 0.20750  0.83850  0.96220  Biso   1.000  H
  C9       1.0000 0.56470  0.05190  0.10560  Biso   1.000  C
  H8       1.0000 0.54910  0.08180  0.06880  Biso   1.000  H
  H9       1.0000 0.58990  0.01170  0.07920  Biso   1.000  H
  H10      1.0000 0.61250  0.10050  0.15930  Biso   1.000  H
  C10      1.0000 0.34900  0.63560  0.11180  Biso   1.000  C
  H11      1.0000 0.33710  0.57870  0.12280  Biso   1.000  H
  H12      1.0000 0.32350  0.61840  0.05150  Biso   1.000  H
  H13      1.0000 0.31780  0.66720  0.14060  Biso   1.000  H
  C11      1.0000 0.46280  0.84920  0.13070  Biso   1.000  C
  C12      1.0000 0.48150  0.80300  0.18590  Biso   1.000  C
  C13      1.0000 0.53270  0.85040  0.26950  Biso   1.000  C
  C14      1.0000 0.56130  0.94630  0.30610  Biso   1.000  C
  H14      1.0000 0.59570  0.97910  0.36440  Biso   1.000  H
  C15      1.0000 0.54140  0.99550  0.26040  Biso   1.000  C
  C16      1.0000 0.49120  0.94590  0.17070  Biso   1.000  C
  C17      1.0000 0.56670  0.80450  0.32500  Biso   1.000  C
  C18      1.0000 0.50450  0.71680  0.32580  Biso   1.000  C
  H15      1.0000 0.43920  0.68680  0.29330  Biso   1.000  H
  C19      1.0000 0.63700  0.71370  0.41700  Biso   1.000  C
  C20      1.0000 0.69890  0.79750  0.40990  Biso   1.000  C
  H16      1.0000 0.76540  0.82240  0.43450  Biso   1.000  H
  C21      1.0000 0.66740  0.84420  0.36950  Biso   1.000  C
  H17      1.0000 0.71140  0.90260  0.37070  Biso   1.000  H
  C22      1.0000 0.67280  0.66920  0.46340  Biso   1.000  C
  C23      1.0000 0.56070  0.09450  0.30070  Biso   1.000  C
  C24      1.0000 0.65360  0.16470  0.36350  Biso   1.000  C
  H18      1.0000 0.70290  0.14860  0.37510  Biso   1.000  H
  C25      1.0000 0.67000  0.25990  0.40830  Biso   1.000  C
  H19      1.0000 0.73190  0.30720  0.44510  Biso   1.000  H
  C26      1.0000 0.59660  0.28160  0.39780  Biso   1.000  C
  C27      1.0000 0.50720  0.21030  0.33650  Biso   1.000  C
  H20      1.0000 0.45630  0.22470  0.32810  Biso   1.000  H
  C28      1.0000 0.49100  0.12370  0.28970  Biso   1.000  C
  H21      1.0000 0.43050  0.08100  0.24800  Biso   1.000  H
  C29      1.0000 0.61140  0.38030  0.44680  Biso   1.000  C
  C30      1.0000 0.50720  0.70980  0.85190  Biso   1.000  C
  C31      1.0000 0.60150  0.77900  0.86560  Biso   1.000  C
  H22      1.0000 0.63080  0.83850  0.91080  Biso   1.000  H
  C32      1.0000 0.65150  0.75780  0.81070  Biso   1.000  C
  H23      1.0000 0.71260  0.80420  0.81740  Biso   1.000  H
  C33      1.0000 0.60640  0.66260  0.74360  Biso   1.000  C
  C34      1.0000 0.51760  0.59890  0.73420  Biso   1.000  C
  H24      1.0000 0.49090  0.53750  0.69220  Biso   1.000  H
  C35      1.0000 0.46070  0.61750  0.78350  Biso   1.000  C
  H25      1.0000 0.39700  0.57240  0.77190  Biso   1.000  H
  C36      1.0000 0.65910  0.64540  0.68600  Biso   1.000  C
  C37      1.0000 0.91660  0.62200  0.67620  Biso   1.000  C
  C38      1.0000 0.00950  0.65090  0.73270  Biso   1.000  C
  C39      1.0000 0.09330  0.70040  0.71890  Biso   1.000  C
  H26      1.0000 0.08900  0.71950  0.67320  Biso   1.000  H
  C40      1.0000 0.18530  0.72370  0.77000  Biso   1.000  C
  H27      1.0000 0.24000  0.75550  0.75690  Biso   1.000  H
  C41      1.0000 0.19470  0.69850  0.84190  Biso   1.000  C
  C42      1.0000 0.11130  0.66030  0.86600  Biso   1.000  C
  H28      1.0000 0.11710  0.65390  0.91830  Biso   1.000  H
  C43      1.0000 0.01840  0.63190  0.80810  Biso   1.000  C
  H29      1.0000 0.96280  0.60040  0.82020  Biso   1.000  H
  C44      1.0000 0.53680  0.67150  0.37430  Biso   1.000  C
  H30      1.0000 0.49320  0.61590  0.37760  Biso   1.000  H
  Cd1      1.0000 0.25104  0.40323  0.42661  Biso   1.000  Cd
  O13      1.0000 0.38290  0.44350  0.37580  Biso   1.000  O
  O14      1.0000 0.25780  0.29040  0.30570  Biso   1.000  O
  O15      1.0000 0.38190  0.41010  0.53170  Biso   1.000  O
  O16      1.0000 0.23450  0.29620  0.49510  Biso   1.000  O
  O17      1.0000 0.46030  0.60810  0.54370  Biso   1.000  O
  O18      1.0000 0.29810  0.54690  0.51530  Biso   1.000  O
  O19      1.0000 0.16220  0.42680  0.31320  Biso   1.000  O
  O20      1.0000 0.08970  0.34740  0.38770  Biso   1.000  O
  O21      1.0000 0.72740  0.20270  0.96440  Biso   1.000  O
  O22      1.0000 0.42390  0.19200  0.95890  Biso   1.000  O
  O23      1.0000 0.52510  0.00800  0.87960  Biso   1.000  O
  O24      1.0000 0.54570  0.29890  0.85650  Biso   1.000  O
  C45      1.0000 0.55190  0.27000  0.09950  Biso   1.000  C
  C46      1.0000 0.64710  0.29070  0.14240  Biso   1.000  C
  H31      1.0000 0.67180  0.32070  0.20170  Biso   1.000  H
  C47      1.0000 0.70650  0.26780  0.09890  Biso   1.000  C
  C48      1.0000 0.67130  0.22620  0.01320  Biso   1.000  C
  C49      1.0000 0.57660  0.19990  0.96320  Biso   1.000  C
  C50      1.0000 0.51890  0.22290  0.00850  Biso   1.000  C
  C51      1.0000 0.39900  0.27110  0.95950  Biso   1.000  C
  H32      1.0000 0.35320  0.26910  0.98880  Biso   1.000  H
  H33      1.0000 0.45680  0.33220  0.98820  Biso   1.000  H
  H34      1.0000 0.37110  0.26270  0.90170  Biso   1.000  H
  C52      1.0000 0.75210  0.13600  0.97930  Biso   1.000  C
  H35      1.0000 0.69440  0.07840  0.96790  Biso   1.000  H
  H36      1.0000 0.78680  0.12150  0.94250  Biso   1.000  H
  H37      1.0000 0.79250  0.16150  0.03780  Biso   1.000  H
  C53      1.0000 0.43530  0.94810  0.89440  Biso   1.000  C
  H38      1.0000 0.45090  0.91820  0.93120  Biso   1.000  H
  H39      1.0000 0.41010  0.98830  0.92080  Biso   1.000  H
  H40      1.0000 0.38750  0.89950  0.84070  Biso   1.000  H
  C54      1.0000 0.65100  0.36440  0.88820  Biso   1.000  C
  H41      1.0000 0.66290  0.42130  0.87720  Biso   1.000  H
  H42      1.0000 0.67650  0.38160  0.94850  Biso   1.000  H
  H43      1.0000 0.68220  0.33280  0.85940  Biso   1.000  H
  C55      1.0000 0.53720  0.15080  0.86930  Biso   1.000  C
  C56      1.0000 0.51850  0.19700  0.81410  Biso   1.000  C
  C57      1.0000 0.46730  0.14960  0.73050  Biso   1.000  C
  C58      1.0000 0.43870  0.05370  0.69390  Biso   1.000  C
  H44      1.0000 0.40430  0.02090  0.63560  Biso   1.000  H
  C59      1.0000 0.45860  0.00450  0.73960  Biso   1.000  C
  C60      1.0000 0.50880  0.05410  0.82930  Biso   1.000  C
  C61      1.0000 0.43330  0.19550  0.67500  Biso   1.000  C
  C62      1.0000 0.49550  0.28320  0.67420  Biso   1.000  C
  H45      1.0000 0.56080  0.31320  0.70670  Biso   1.000  H
  C63      1.0000 0.36300  0.28630  0.58300  Biso   1.000  C
  C64      1.0000 0.30110  0.20250  0.59010  Biso   1.000  C
  H46      1.0000 0.23460  0.17760  0.56550  Biso   1.000  H
  C65      1.0000 0.33260  0.15580  0.63050  Biso   1.000  C
  H47      1.0000 0.28860  0.09740  0.62930  Biso   1.000  H
  C66      1.0000 0.32720  0.33080  0.53660  Biso   1.000  C
  C67      1.0000 0.43930  0.90550  0.69930  Biso   1.000  C
  C68      1.0000 0.34640  0.83530  0.63650  Biso   1.000  C
  H48      1.0000 0.29710  0.85140  0.62490  Biso   1.000  H
  C69      1.0000 0.33000  0.74010  0.59170  Biso   1.000  C
  H49      1.0000 0.26810  0.69280  0.55490  Biso   1.000  H
  C70      1.0000 0.40340  0.71840  0.60220  Biso   1.000  C
  C71      1.0000 0.49280  0.78970  0.66350  Biso   1.000  C
  H50      1.0000 0.54370  0.77530  0.67190  Biso   1.000  H
  C72      1.0000 0.50900  0.87630  0.71030  Biso   1.000  C
  H51      1.0000 0.56950  0.91900  0.75200  Biso   1.000  H
  C73      1.0000 0.38860  0.61970  0.55320  Biso   1.000  C
  C74      1.0000 0.49280  0.29020  0.14810  Biso   1.000  C
  C75      1.0000 0.39850  0.22100  0.13440  Biso   1.000  C
  H52      1.0000 0.36920  0.16150  0.08920  Biso   1.000  H
  C76      1.0000 0.34850  0.24220  0.18930  Biso   1.000  C
  H53      1.0000 0.28740  0.19580  0.18260  Biso   1.000  H
  C77      1.0000 0.39360  0.33740  0.25640  Biso   1.000  C
  C78      1.0000 0.48240  0.40110  0.26580  Biso   1.000  C
  H54      1.0000 0.50910  0.46250  0.30780  Biso   1.000  H
  C79      1.0000 0.53930  0.38250  0.21650  Biso   1.000  C
  H55      1.0000 0.60300  0.42760  0.22810  Biso   1.000  H
  C80      1.0000 0.34090  0.35460  0.31400  Biso   1.000  C
  C81      1.0000 0.08340  0.37800  0.32380  Biso   1.000  C
  C82      1.0000 0.99050  0.34910  0.26730  Biso   1.000  C
  C83      1.0000 0.90670  0.29960  0.28110  Biso   1.000  C
  H56      1.0000 0.91100  0.28050  0.32680  Biso   1.000  H
  C84      1.0000 0.81470  0.27630  0.23000  Biso   1.000  C
  H57      1.0000 0.76000  0.24450  0.24310  Biso   1.000  H
  C85      1.0000 0.80530  0.30150  0.15810  Biso   1.000  C
  C86      1.0000 0.88870  0.33970  0.13400  Biso   1.000  C
  H58      1.0000 0.88290  0.34610  0.08170  Biso   1.000  H
  C87      1.0000 0.98160  0.36810  0.19190  Biso   1.000  C
  H59      1.0000 0.03720  0.39960  0.17980  Biso   1.000  H
  C88      1.0000 0.46320  0.32850  0.62570  Biso   1.000  C
  H60      1.0000 0.50680  0.38410  0.62240  Biso   1.000  H
  Mn2      1.0000 0.50000  0.50000  0.50000  Biso   1.000  Mn
