data_image0
_cell_length_a       15.97
_cell_length_b       18.597
_cell_length_c       28.434
_cell_angle_alpha    100.536
_cell_angle_beta     95.13
_cell_angle_gamma    109.615

_symmetry_space_group_name_H-M    "P 1"
_symmetry_int_tables_number       1

loop_
  _symmetry_equiv_pos_as_xyz
  'x, y, z'

loop_
  _atom_site_label
  _atom_site_occupancy
  _atom_site_fract_x
  _atom_site_fract_y
  _atom_site_fract_z
  _atom_site_thermal_displace_type
  _atom_site_B_iso_or_equiv
  _atom_site_type_symbol
  C1       1.0000 0.81590  0.08060  0.18290  Biso   1.000  C
  H1       1.0000 0.79750  0.12250  0.18070  Biso   1.000  H
  C2       1.0000 0.76350  0.00560  0.15860  Biso   1.000  C
  H2       1.0000 0.71080  0.99750  0.13820  Biso   1.000  H
  C3       1.0000 0.86130  0.95460  0.19480  Biso   1.000  C
  H3       1.0000 0.87410  0.91140  0.20050  Biso   1.000  H
  C4       1.0000 0.91810  0.02730  0.21810  Biso   1.000  C
  H4       1.0000 0.97010  0.03370  0.23860  Biso   1.000  H
  C5       1.0000 0.73300  0.86220  0.13100  Biso   1.000  C
  C6       1.0000 0.71310  0.85690  0.08240  Biso   1.000  C
  H5       1.0000 0.72500  0.90290  0.07140  Biso   1.000  H
  C7       1.0000 0.67590  0.78580  0.04880  Biso   1.000  C
  C8       1.0000 0.65750  0.71830  0.06480  Biso   1.000  C
  C9       1.0000 0.67200  0.72080  0.11390  Biso   1.000  C
  C10      1.0000 0.71140  0.79270  0.14720  Biso   1.000  C
  C11      1.0000 0.66790  0.78890  0.99640  Biso   1.000  C
  C12      1.0000 0.62140  0.83270  0.97960  Biso   1.000  C
  H6       1.0000 0.58900  0.85470  0.99940  Biso   1.000  H
  C13      1.0000 0.62460  0.84290  0.93140  Biso   1.000  C
  H7       1.0000 0.59590  0.87390  0.92010  Biso   1.000  H
  C14      1.0000 0.66870  0.80820  0.90130  Biso   1.000  C
  C15      1.0000 0.71260  0.76540  0.91850  Biso   1.000  C
  H8       1.0000 0.74400  0.74280  0.89820  Biso   1.000  H
  C16      1.0000 0.71290  0.75360  0.96570  Biso   1.000  C
  H9       1.0000 0.74250  0.72270  0.97630  Biso   1.000  H
  C17      1.0000 0.67040  0.82250  0.85210  Biso   1.000  C
  C18      1.0000 0.65440  0.59330  0.02500  Biso   1.000  C
  H10      1.0000 0.71590  0.61490  0.04100  Biso   1.000  H
  H11      1.0000 0.65240  0.57530  0.99090  Biso   1.000  H
  H12      1.0000 0.62140  0.55010  0.03810  Biso   1.000  H
  C19      1.0000 0.66420  0.81010  0.22190  Biso   1.000  C
  H13      1.0000 0.68170  0.81220  0.25540  Biso   1.000  H
  H14      1.0000 0.60600  0.77000  0.21000  Biso   1.000  H
  H15      1.0000 0.66170  0.85980  0.21850  Biso   1.000  H
  C20      1.0000 0.42950  0.61200  0.09240  Biso   1.000  C
  H16      1.0000 0.37520  0.62140  0.09760  Biso   1.000  H
  H17      1.0000 0.41840  0.55700  0.08790  Biso   1.000  H
  H18      1.0000 0.44900  0.62930  0.06400  Biso   1.000  H
  C21      1.0000 0.85990  0.69210  0.17690  Biso   1.000  C
  H19      1.0000 0.91830  0.70620  0.16730  Biso   1.000  H
  H20      1.0000 0.85770  0.66180  0.20100  Biso   1.000  H
  H21      1.0000 0.84870  0.73880  0.19010  Biso   1.000  H
  C22      1.0000 0.64460  0.64860  0.13380  Biso   1.000  C
  C23      1.0000 0.55750  0.61640  0.14340  Biso   1.000  C
  C24      1.0000 0.53270  0.55390  0.16510  Biso   1.000  C
  C25      1.0000 0.59610  0.51970  0.17460  Biso   1.000  C
  H22      1.0000 0.57850  0.47530  0.18730  Biso   1.000  H
  C26      1.0000 0.68310  0.54830  0.16600  Biso   1.000  C
  C27      1.0000 0.70670  0.61410  0.14580  Biso   1.000  C
  C28      1.0000 0.39500  0.44070  0.16580  Biso   1.000  C
  H23      1.0000 0.41780  0.40840  0.14620  Biso   1.000  H
  C29      1.0000 0.31430  0.40750  0.18220  Biso   1.000  C
  H24      1.0000 0.28230  0.35390  0.17230  Biso   1.000  H
  C30      1.0000 0.32710  0.53470  0.22470  Biso   1.000  C
  H25      1.0000 0.30440  0.56650  0.24480  Biso   1.000  H
  C31      1.0000 0.40720  0.56810  0.20640  Biso   1.000  C
  H26      1.0000 0.43670  0.62210  0.21340  Biso   1.000  H
  C32      1.0000 0.20010  0.41560  0.23490  Biso   1.000  C
  C33      1.0000 0.74930  0.51310  0.18130  Biso   1.000  C
  C34      1.0000 0.75050  0.49360  0.22570  Biso   1.000  C
  H27      1.0000 0.70980  0.50270  0.24530  Biso   1.000  H
  C35      1.0000 0.80920  0.46160  0.24170  Biso   1.000  C
  H28      1.0000 0.80960  0.44990  0.27210  Biso   1.000  H
  C36      1.0000 0.86930  0.44620  0.21170  Biso   1.000  C
  C37      1.0000 0.86460  0.46090  0.16610  Biso   1.000  C
  H29      1.0000 0.90140  0.44790  0.14510  Biso   1.000  H
  C38      1.0000 0.80580  0.49470  0.15140  Biso   1.000  C
  H30      1.0000 0.80410  0.50550  0.12070  Biso   1.000  H
  C39      1.0000 0.93430  0.40950  0.22880  Biso   1.000  C
  C40      1.0000 0.22550  0.07250  0.26920  Biso   1.000  C
  C41      1.0000 0.14130  0.03530  0.28980  Biso   1.000  C
  C42      1.0000 0.10840  0.08250  0.32030  Biso   1.000  C
  H31      1.0000 0.13850  0.13650  0.32830  Biso   1.000  H
  C43      1.0000 0.03070  0.04960  0.33890  Biso   1.000  C
  H32      1.0000 0.00920  0.08140  0.35990  Biso   1.000  H
  C44      1.0000 0.98590  0.97040  0.32650  Biso   1.000  C
  C45      1.0000 0.02160  0.92150  0.29760  Biso   1.000  C
  H33      1.0000 0.99360  0.86720  0.29080  Biso   1.000  H
  C46      1.0000 0.09770  0.95530  0.27990  Biso   1.000  C
  H34      1.0000 0.12120  0.92340  0.26050  Biso   1.000  H
  C47      1.0000 0.89470  0.93760  0.34140  Biso   1.000  C
  C48      1.0000 0.83410  0.97360  0.33310  Biso   1.000  C
  H35      1.0000 0.85300  0.01780  0.32030  Biso   1.000  H
  C49      1.0000 0.74620  0.94780  0.34280  Biso   1.000  C
  C50      1.0000 0.72040  0.88200  0.36340  Biso   1.000  C
  C51      1.0000 0.78080  0.84420  0.37230  Biso   1.000  C
  C52      1.0000 0.86550  0.87230  0.36190  Biso   1.000  C
  C53      1.0000 0.00120  0.87580  0.40760  Biso   1.000  C
  H36      1.0000 0.04110  0.84720  0.40900  Biso   1.000  H
  H37      1.0000 0.98130  0.88420  0.43840  Biso   1.000  H
  H38      1.0000 0.03230  0.92540  0.40040  Biso   1.000  H
  C54      1.0000 0.56280  0.81410  0.33520  Biso   1.000  C
  H39      1.0000 0.50700  0.79890  0.34760  Biso   1.000  H
  H40      1.0000 0.57030  0.76840  0.31710  Biso   1.000  H
  H41      1.0000 0.56200  0.84930  0.31450  Biso   1.000  H
  C55      1.0000 0.68500  0.98720  0.32900  Biso   1.000  C
  C56      1.0000 0.68430  0.00620  0.28320  Biso   1.000  C
  H42      1.0000 0.72310  0.99550  0.26280  Biso   1.000  H
  C57      1.0000 0.62600  0.04060  0.26920  Biso   1.000  C
  H43      1.0000 0.62470  0.05180  0.23860  Biso   1.000  H
  C58      1.0000 0.56940  0.05930  0.29850  Biso   1.000  C
  C59      1.0000 0.57180  0.04280  0.34430  Biso   1.000  C
  H44      1.0000 0.53410  0.05530  0.36480  Biso   1.000  H
  C60      1.0000 0.62980  0.00800  0.35910  Biso   1.000  C
  H45      1.0000 0.63180  0.99830  0.39000  Biso   1.000  H
  C61      1.0000 0.50240  0.09460  0.28070  Biso   1.000  C
  C62      1.0000 0.73270  0.68440  0.28100  Biso   1.000  C
  H46      1.0000 0.70730  0.67830  0.24790  Biso   1.000  H
  H47      1.0000 0.74200  0.63730  0.28480  Biso   1.000  H
  H48      1.0000 0.78930  0.72750  0.28920  Biso   1.000  H
  C63      1.0000 0.78400  0.89140  0.48840  Biso   1.000  C
  H49      1.0000 0.81450  0.92220  0.52010  Biso   1.000  H
  H50      1.0000 0.72410  0.85930  0.49020  Biso   1.000  H
  H51      1.0000 0.78270  0.92550  0.46700  Biso   1.000  H
  C64      1.0000 0.75080  0.77200  0.39190  Biso   1.000  C
  C65      1.0000 0.69740  0.70060  0.36110  Biso   1.000  C
  C66      1.0000 0.67170  0.62970  0.37630  Biso   1.000  C
  C67      1.0000 0.70160  0.63400  0.42430  Biso   1.000  C
  H52      1.0000 0.68670  0.58790  0.43530  Biso   1.000  H
  C68      1.0000 0.75340  0.70490  0.45710  Biso   1.000  C
  C69      1.0000 0.77770  0.77400  0.43990  Biso   1.000  C
  C70      1.0000 0.82910  0.66180  0.51850  Biso   1.000  C
  H53      1.0000 0.84530  0.63180  0.49360  Biso   1.000  H
  C71      1.0000 0.85720  0.66430  0.56830  Biso   1.000  C
  H54      1.0000 0.89840  0.64090  0.57550  Biso   1.000  H
  C72      1.0000 0.76550  0.72900  0.59240  Biso   1.000  C
  H55      1.0000 0.73620  0.74710  0.61610  Biso   1.000  H
  C73      1.0000 0.74460  0.73380  0.54560  Biso   1.000  C
  H56      1.0000 0.70490  0.75890  0.53900  Biso   1.000  H
  C74      1.0000 0.85130  0.69420  0.65560  Biso   1.000  C
  C75      1.0000 0.61300  0.55550  0.34520  Biso   1.000  C
  C76      1.0000 0.53120  0.54530  0.31960  Biso   1.000  C
  H57      1.0000 0.51570  0.58890  0.31800  Biso   1.000  H
  C77      1.0000 0.47140  0.47150  0.29620  Biso   1.000  C
  H58      1.0000 0.41620  0.46680  0.27970  Biso   1.000  H
  C78      1.0000 0.49010  0.40600  0.29630  Biso   1.000  C
  C79      1.0000 0.57490  0.41380  0.31720  Biso   1.000  C
  H59      1.0000 0.59090  0.36970  0.31460  Biso   1.000  H
  C80      1.0000 0.63850  0.48830  0.34270  Biso   1.000  C
  H60      1.0000 0.69520  0.49300  0.35740  Biso   1.000  H
  C81      1.0000 0.42570  0.32510  0.27040  Biso   1.000  C
  O1       1.0000 0.04580  0.18780  0.24500  Biso   1.000  O
  O2       1.0000 0.94300  0.40620  0.27260  Biso   1.000  O
  O3       1.0000 0.97560  0.38380  0.19910  Biso   1.000  O
  O4       1.0000 0.16910  0.45750  0.26010  Biso   1.000  O
  O5       1.0000 0.16580  0.34170  0.22510  Biso   1.000  O
  O6       1.0000 0.25170  0.14590  0.27270  Biso   1.000  O
  O7       1.0000 0.26420  0.03040  0.24910  Biso   1.000  O
  O8       1.0000 0.71080  0.78810  0.82460  Biso   1.000  O
  O9       1.0000 0.63180  0.86530  0.83850  Biso   1.000  O
  O10      1.0000 0.34200  0.31720  0.26510  Biso   1.000  O
  O11      1.0000 0.45390  0.27350  0.26700  Biso   1.000  O
  O12      1.0000 0.49410  0.09650  0.23690  Biso   1.000  O
  O13      1.0000 0.45980  0.11910  0.30970  Biso   1.000  O
  O14      1.0000 0.90980  0.66320  0.66220  Biso   1.000  O
  O15      1.0000 0.81280  0.72000  0.68640  Biso   1.000  O
  O16      1.0000 0.49960  0.65520  0.13450  Biso   1.000  O
  O17      1.0000 0.79310  0.64700  0.13590  Biso   1.000  O
  O18      1.0000 0.61760  0.64820  0.03190  Biso   1.000  O
  O19      1.0000 0.72750  0.79310  0.19510  Biso   1.000  O
  O20      1.0000 0.67080  0.70010  0.31310  Biso   1.000  O
  O21      1.0000 0.83160  0.84310  0.47040  Biso   1.000  O
  O22      1.0000 0.63630  0.85270  0.37490  Biso   1.000  O
  O23      1.0000 0.92150  0.82990  0.36900  Biso   1.000  O
  C82      1.0000 0.28230  0.45360  0.21250  Biso   1.000  C
  C83      1.0000 0.78590  0.94270  0.16320  Biso   1.000  C
  C84      1.0000 0.44120  0.51950  0.17790  Biso   1.000  C
  C85      1.0000 0.89810  0.09220  0.21130  Biso   1.000  C
  C86      1.0000 0.77870  0.70400  0.50890  Biso   1.000  C
  C87      1.0000 0.82640  0.69910  0.60470  Biso   1.000  C
  O24      1.0000 0.93390  0.22940  0.23410  Biso   1.000  O
  C88      1.0000 0.96280  0.17380  0.23180  Biso   1.000  C
  Cd1      1.0000 0.19333  0.22537  0.23173  Biso   1.000  Cd
  Cd2      1.0000 0.38215  0.14410  0.24088  Biso   1.000  Cd
  Cd3      1.0000 0.04404  0.34534  0.26525  Biso   1.000  Cd
  Eu1      1.0000 0.80667  0.77463  0.76827  Biso   1.000  Eu
  C89      1.0000 0.18410  0.91940  0.81710  Biso   1.000  C
  H61      1.0000 0.20250  0.87750  0.81930  Biso   1.000  H
  C90      1.0000 0.23650  0.99440  0.84140  Biso   1.000  C
  H62      1.0000 0.28920  0.00250  0.86180  Biso   1.000  H
  C91      1.0000 0.13870  0.04540  0.80520  Biso   1.000  C
  H63      1.0000 0.12590  0.08860  0.79950  Biso   1.000  H
  C92      1.0000 0.08190  0.97270  0.78190  Biso   1.000  C
  H64      1.0000 0.02990  0.96630  0.76140  Biso   1.000  H
  C93      1.0000 0.26700  0.13780  0.86900  Biso   1.000  C
  C94      1.0000 0.28690  0.14310  0.91760  Biso   1.000  C
  H65      1.0000 0.27500  0.09710  0.92860  Biso   1.000  H
  C95      1.0000 0.32410  0.21420  0.95120  Biso   1.000  C
  C96      1.0000 0.34250  0.28170  0.93520  Biso   1.000  C
  C97      1.0000 0.32800  0.27920  0.88610  Biso   1.000  C
  C98      1.0000 0.28860  0.20730  0.85280  Biso   1.000  C
  C99      1.0000 0.33210  0.21110  0.00360  Biso   1.000  C
  C100     1.0000 0.37860  0.16730  0.02040  Biso   1.000  C
  H66      1.0000 0.41100  0.14530  0.00060  Biso   1.000  H
  C101     1.0000 0.37540  0.15710  0.06860  Biso   1.000  C
  H67      1.0000 0.40410  0.12610  0.07990  Biso   1.000  H
  C102     1.0000 0.33130  0.19180  0.09870  Biso   1.000  C
  C103     1.0000 0.28740  0.23460  0.08150  Biso   1.000  C
  H68      1.0000 0.25600  0.25720  0.10180  Biso   1.000  H
  C104     1.0000 0.28710  0.24640  0.03430  Biso   1.000  C
  H69      1.0000 0.25750  0.27730  0.02370  Biso   1.000  H
  C105     1.0000 0.32960  0.17750  0.14790  Biso   1.000  C
  C106     1.0000 0.34560  0.40670  0.97500  Biso   1.000  C
  H70      1.0000 0.28410  0.38510  0.95900  Biso   1.000  H
  H71      1.0000 0.34760  0.42470  0.00910  Biso   1.000  H
  H72      1.0000 0.37860  0.44990  0.96190  Biso   1.000  H
  C107     1.0000 0.33580  0.18990  0.77810  Biso   1.000  C
  H73      1.0000 0.31830  0.18780  0.74460  Biso   1.000  H
  H74      1.0000 0.39400  0.23000  0.79000  Biso   1.000  H
  H75      1.0000 0.33830  0.14020  0.78150  Biso   1.000  H
  C108     1.0000 0.57050  0.38800  0.90760  Biso   1.000  C
  H76      1.0000 0.62480  0.37860  0.90240  Biso   1.000  H
  H77      1.0000 0.58160  0.44300  0.91210  Biso   1.000  H
  H78      1.0000 0.55100  0.37070  0.93600  Biso   1.000  H
  C109     1.0000 0.14010  0.30790  0.82310  Biso   1.000  C
  H79      1.0000 0.08170  0.29380  0.83270  Biso   1.000  H
  H80      1.0000 0.14230  0.33820  0.79900  Biso   1.000  H
  H81      1.0000 0.15130  0.26120  0.80990  Biso   1.000  H
  C110     1.0000 0.35540  0.35140  0.86620  Biso   1.000  C
  C111     1.0000 0.44250  0.38360  0.85660  Biso   1.000  C
  C112     1.0000 0.46730  0.44610  0.83490  Biso   1.000  C
  C113     1.0000 0.40390  0.48030  0.82540  Biso   1.000  C
  H82      1.0000 0.42150  0.52470  0.81270  Biso   1.000  H
  C114     1.0000 0.31690  0.45170  0.83400  Biso   1.000  C
  C115     1.0000 0.29330  0.38590  0.85420  Biso   1.000  C
  C116     1.0000 0.60500  0.55930  0.83420  Biso   1.000  C
  H83      1.0000 0.58220  0.59160  0.85380  Biso   1.000  H
  C117     1.0000 0.68570  0.59250  0.81780  Biso   1.000  C
  H84      1.0000 0.71770  0.64610  0.82770  Biso   1.000  H
  C118     1.0000 0.67290  0.46530  0.77530  Biso   1.000  C
  H85      1.0000 0.69560  0.43350  0.75520  Biso   1.000  H
  C119     1.0000 0.59280  0.43190  0.79360  Biso   1.000  C
  H86      1.0000 0.56330  0.37790  0.78660  Biso   1.000  H
  C120     1.0000 0.79990  0.58440  0.76510  Biso   1.000  C
  C121     1.0000 0.25070  0.48690  0.81870  Biso   1.000  C
  C122     1.0000 0.24950  0.50640  0.77430  Biso   1.000  C
  H87      1.0000 0.29020  0.49730  0.75470  Biso   1.000  H
  C123     1.0000 0.19080  0.53840  0.75830  Biso   1.000  C
  H88      1.0000 0.19040  0.55010  0.72790  Biso   1.000  H
  C124     1.0000 0.13070  0.55380  0.78830  Biso   1.000  C
  C125     1.0000 0.13540  0.53910  0.83390  Biso   1.000  C
  H89      1.0000 0.09860  0.55210  0.85490  Biso   1.000  H
  C126     1.0000 0.19420  0.50530  0.84860  Biso   1.000  C
  H90      1.0000 0.19590  0.49450  0.87930  Biso   1.000  H
  C127     1.0000 0.06570  0.59050  0.77120  Biso   1.000  C
  C128     1.0000 0.77450  0.92750  0.73080  Biso   1.000  C
  C129     1.0000 0.85870  0.96470  0.71020  Biso   1.000  C
  C130     1.0000 0.89160  0.91750  0.67970  Biso   1.000  C
  H91      1.0000 0.86150  0.86350  0.67170  Biso   1.000  H
  C131     1.0000 0.96930  0.95040  0.66110  Biso   1.000  C
  H92      1.0000 0.99080  0.91860  0.64010  Biso   1.000  H
  C132     1.0000 0.01410  0.02960  0.67350  Biso   1.000  C
  C133     1.0000 0.97840  0.07850  0.70240  Biso   1.000  C
  H93      1.0000 0.00640  0.13280  0.70920  Biso   1.000  H
  C134     1.0000 0.90230  0.04470  0.72010  Biso   1.000  C
  H94      1.0000 0.87880  0.07660  0.73950  Biso   1.000  H
  C135     1.0000 0.10530  0.06240  0.65860  Biso   1.000  C
  C136     1.0000 0.16590  0.02640  0.66690  Biso   1.000  C
  H95      1.0000 0.14700  0.98220  0.67970  Biso   1.000  H
  C137     1.0000 0.25380  0.05220  0.65720  Biso   1.000  C
  C138     1.0000 0.27960  0.11800  0.63660  Biso   1.000  C
  C139     1.0000 0.21920  0.15580  0.62770  Biso   1.000  C
  C140     1.0000 0.13450  0.12770  0.63810  Biso   1.000  C
  C141     1.0000 0.99880  0.12420  0.59240  Biso   1.000  C
  H96      1.0000 0.95890  0.15280  0.59100  Biso   1.000  H
  H97      1.0000 0.01870  0.11580  0.56160  Biso   1.000  H
  H98      1.0000 0.96770  0.07460  0.59960  Biso   1.000  H
  C142     1.0000 0.43720  0.18590  0.66480  Biso   1.000  C
  H99      1.0000 0.49300  0.20110  0.65240  Biso   1.000  H
  H100     1.0000 0.42970  0.23160  0.68290  Biso   1.000  H
  H101     1.0000 0.43800  0.15070  0.68550  Biso   1.000  H
  C143     1.0000 0.31500  0.01280  0.67100  Biso   1.000  C
  C144     1.0000 0.31570  0.99380  0.71680  Biso   1.000  C
  H102     1.0000 0.27690  0.00450  0.73720  Biso   1.000  H
  C145     1.0000 0.37400  0.95940  0.73080  Biso   1.000  C
  H103     1.0000 0.37530  0.94820  0.76140  Biso   1.000  H
  C146     1.0000 0.43060  0.94070  0.70150  Biso   1.000  C
  C147     1.0000 0.42820  0.95720  0.65570  Biso   1.000  C
  H104     1.0000 0.46590  0.94470  0.63520  Biso   1.000  H
  C148     1.0000 0.37020  0.99200  0.64090  Biso   1.000  C
  H105     1.0000 0.36820  0.00170  0.61000  Biso   1.000  H
  C149     1.0000 0.49760  0.90540  0.71930  Biso   1.000  C
  C150     1.0000 0.26730  0.31560  0.71900  Biso   1.000  C
  H106     1.0000 0.29270  0.32170  0.75210  Biso   1.000  H
  H107     1.0000 0.25800  0.36270  0.71520  Biso   1.000  H
  H108     1.0000 0.21070  0.27250  0.71080  Biso   1.000  H
  C151     1.0000 0.21600  0.10860  0.51160  Biso   1.000  C
  H109     1.0000 0.18550  0.07780  0.47990  Biso   1.000  H
  H110     1.0000 0.27590  0.14070  0.50980  Biso   1.000  H
  H111     1.0000 0.21730  0.07450  0.53300  Biso   1.000  H
  C152     1.0000 0.24920  0.22800  0.60810  Biso   1.000  C
  C153     1.0000 0.30260  0.29940  0.63890  Biso   1.000  C
  C154     1.0000 0.32830  0.37030  0.62370  Biso   1.000  C
  C155     1.0000 0.29840  0.36600  0.57570  Biso   1.000  C
  H112     1.0000 0.31330  0.41210  0.56470  Biso   1.000  H
  C156     1.0000 0.24660  0.29510  0.54290  Biso   1.000  C
  C157     1.0000 0.22230  0.22600  0.56010  Biso   1.000  C
  C158     1.0000 0.17090  0.33820  0.48150  Biso   1.000  C
  H113     1.0000 0.15470  0.36820  0.50640  Biso   1.000  H
  C159     1.0000 0.14280  0.33570  0.43170  Biso   1.000  C
  H114     1.0000 0.10160  0.35910  0.42450  Biso   1.000  H
  C160     1.0000 0.23450  0.27100  0.40760  Biso   1.000  C
  H115     1.0000 0.26380  0.25290  0.38390  Biso   1.000  H
  C161     1.0000 0.25540  0.26620  0.45440  Biso   1.000  C
  H116     1.0000 0.29510  0.24110  0.46100  Biso   1.000  H
  C162     1.0000 0.14870  0.30580  0.34440  Biso   1.000  C
  C163     1.0000 0.38700  0.44450  0.65480  Biso   1.000  C
  C164     1.0000 0.46880  0.45470  0.68040  Biso   1.000  C
  H117     1.0000 0.48430  0.41110  0.68200  Biso   1.000  H
  C165     1.0000 0.52860  0.52850  0.70380  Biso   1.000  C
  H118     1.0000 0.58380  0.53320  0.72030  Biso   1.000  H
  C166     1.0000 0.50990  0.59400  0.70370  Biso   1.000  C
  C167     1.0000 0.42510  0.58620  0.68280  Biso   1.000  C
  H119     1.0000 0.40910  0.63030  0.68540  Biso   1.000  H
  C168     1.0000 0.36150  0.51170  0.65730  Biso   1.000  C
  H120     1.0000 0.30480  0.50700  0.64260  Biso   1.000  H
  C169     1.0000 0.57430  0.67490  0.72960  Biso   1.000  C
  O25      1.0000 0.95420  0.81220  0.75500  Biso   1.000  O
  O26      1.0000 0.05700  0.59380  0.72740  Biso   1.000  O
  O27      1.0000 0.02440  0.61620  0.80090  Biso   1.000  O
  O28      1.0000 0.83090  0.54250  0.73990  Biso   1.000  O
  O29      1.0000 0.83420  0.65830  0.77490  Biso   1.000  O
  O30      1.0000 0.74830  0.85410  0.72730  Biso   1.000  O
  O31      1.0000 0.73580  0.96960  0.75090  Biso   1.000  O
  O32      1.0000 0.28920  0.21190  0.17540  Biso   1.000  O
  O33      1.0000 0.36820  0.13470  0.16150  Biso   1.000  O
  O34      1.0000 0.65800  0.68280  0.73490  Biso   1.000  O
  O35      1.0000 0.54610  0.72650  0.73300  Biso   1.000  O
  O36      1.0000 0.50590  0.90350  0.76310  Biso   1.000  O
  O37      1.0000 0.54020  0.88090  0.69030  Biso   1.000  O
  O38      1.0000 0.09020  0.33680  0.33780  Biso   1.000  O
  O39      1.0000 0.18720  0.28000  0.31360  Biso   1.000  O
  O40      1.0000 0.50040  0.34480  0.86550  Biso   1.000  O
  O41      1.0000 0.20690  0.35300  0.86410  Biso   1.000  O
  O42      1.0000 0.38240  0.35180  0.96810  Biso   1.000  O
  O43      1.0000 0.27250  0.20690  0.80490  Biso   1.000  O
  O44      1.0000 0.32920  0.29990  0.68690  Biso   1.000  O
  O45      1.0000 0.16840  0.15690  0.52960  Biso   1.000  O
  O46      1.0000 0.36370  0.14730  0.62510  Biso   1.000  O
  O47      1.0000 0.07850  0.17010  0.63100  Biso   1.000  O
  C170     1.0000 0.71770  0.54640  0.78750  Biso   1.000  C
  C171     1.0000 0.21410  0.05730  0.83680  Biso   1.000  C
  C172     1.0000 0.55880  0.48050  0.82210  Biso   1.000  C
  C173     1.0000 0.10190  0.90780  0.78870  Biso   1.000  C
  C174     1.0000 0.22130  0.29600  0.49110  Biso   1.000  C
  C175     1.0000 0.17360  0.30090  0.39530  Biso   1.000  C
  O48      1.0000 0.06610  0.77060  0.76590  Biso   1.000  O
  C176     1.0000 0.03720  0.82620  0.76820  Biso   1.000  C
  Cd4      1.0000 0.61785  0.85590  0.75912  Biso   1.000  Cd
  Cd5      1.0000 0.95596  0.65466  0.73475  Biso   1.000  Cd
