data_image0
_cell_length_a       15.744
_cell_length_b       18.343
_cell_length_c       28.121
_cell_angle_alpha    104.422
_cell_angle_beta     92.252
_cell_angle_gamma    108.122

_symmetry_space_group_name_H-M    "P 1"
_symmetry_int_tables_number       1

loop_
  _symmetry_equiv_pos_as_xyz
  'x, y, z'

loop_
  _atom_site_label
  _atom_site_occupancy
  _atom_site_fract_x
  _atom_site_fract_y
  _atom_site_fract_z
  _atom_site_thermal_displace_type
  _atom_site_B_iso_or_equiv
  _atom_site_type_symbol
  Cd1      1.0000 0.52189  0.85982  0.27771  Biso   1.000  Cd
  Cd2      1.0000 0.87049  0.64948  0.24077  Biso   1.000  Cd
  O1       1.0000 0.63910  0.85780  0.22875  Biso   1.000  O
  O2       1.0000 0.64690  0.97570  0.27590  Biso   1.000  O
  O3       1.0000 0.97400  0.16250  0.13604  Biso   1.000  O
  O4       1.0000 0.27070  0.14690  0.13545  Biso   1.000  O
  O5       1.0000 0.09450  0.15020  0.03119  Biso   1.000  O
  O6       1.0000 0.20210  0.30290  0.20142  Biso   1.000  O
  O7       1.0000 0.21760  0.29170  0.82576  Biso   1.000  O
  O8       1.0000 0.13480  0.37260  0.84120  Biso   1.000  O
  O9       1.0000 0.40770  0.74320  0.24850  Biso   1.000  O
  O10      1.0000 0.52110  0.69570  0.24900  Biso   1.000  O
  O11      1.0000 0.46100  0.89620  0.21130  Biso   1.000  O
  O12      1.0000 0.41700  0.92540  0.28525  Biso   1.000  O
  O13      1.0000 0.82840  0.83000  0.26512  Biso   1.000  O
  O14      1.0000 0.94090  0.77820  0.26550  Biso   1.000  O
  O15      1.0000 0.15370  0.21520  0.32126  Biso   1.000  O
  O16      1.0000 0.33470  0.35370  0.47640  Biso   1.000  O
  C1       1.0000 0.30850  0.39650  0.51480  Biso   1.000  C
  H1       1.0000 0.28090  0.43030  0.50370  Biso   1.000  H
  H2       1.0000 0.35990  0.42890  0.53880  Biso   1.000  H
  H3       1.0000 0.26590  0.36150  0.52950  Biso   1.000  H
  O17      1.0000 0.33230  0.19580  0.68324  Biso   1.000  O
  O18      1.0000 0.43830  0.15200  0.64876  Biso   1.000  O
  O19      1.0000 0.41540  0.34490  0.37610  Biso   1.000  O
  O20      1.0000 0.12370  0.36930  0.38560  Biso   1.000  O
  O21      1.0000 0.93860  0.63270  0.31610  Biso   1.000  O
  O22      1.0000 0.98660  0.60350  0.24370  Biso   1.000  O
  O23      1.0000 0.75440  0.53530  0.24780  Biso   1.000  O
  O24      1.0000 0.73570  0.65340  0.27392  Biso   1.000  O
  C2       1.0000 0.91080  0.83440  0.27390  Biso   1.000  C
  C3       1.0000 0.97790  0.91610  0.29690  Biso   1.000  C
  C4       1.0000 0.95860  0.98440  0.29790  Biso   1.000  C
  H4       1.0000 0.90380  0.98040  0.28200  Biso   1.000  H
  C5       1.0000 0.01990  0.06010  0.32240  Biso   1.000  C
  H5       1.0000 0.00730  0.10600  0.32110  Biso   1.000  H
  C6       1.0000 0.10040  0.06600  0.34890  Biso   1.000  C
  C7       1.0000 0.11930  0.99430  0.34570  Biso   1.000  C
  H6       1.0000 0.17370  0.99700  0.36150  Biso   1.000  H
  C8       1.0000 0.06140  0.92310  0.32090  Biso   1.000  C
  H7       1.0000 0.07640  0.87750  0.31940  Biso   1.000  H
  C9       1.0000 0.16110  0.14200  0.38120  Biso   1.000  C
  C10      1.0000 0.18650  0.21570  0.36880  Biso   1.000  C
  C11      1.0000 0.24250  0.28490  0.39950  Biso   1.000  C
  C12      1.0000 0.27860  0.28510  0.44620  Biso   1.000  C
  C13      1.0000 0.25460  0.21460  0.46020  Biso   1.000  C
  C14      1.0000 0.19660  0.14510  0.42840  Biso   1.000  C
  H8       1.0000 0.18050  0.09870  0.43860  Biso   1.000  H
  C15      1.0000 0.21180  0.20290  0.28470  Biso   1.000  C
  H9       1.0000 0.18050  0.19280  0.25250  Biso   1.000  H
  H10      1.0000 0.22960  0.15790  0.28620  Biso   1.000  H
  H11      1.0000 0.26420  0.24960  0.29080  Biso   1.000  H
  C16      1.0000 0.28890  0.21060  0.51070  Biso   1.000  C
  C17      1.0000 0.24000  0.21260  0.54770  Biso   1.000  C
  H12      1.0000 0.18440  0.21950  0.54330  Biso   1.000  H
  C18      1.0000 0.26820  0.20480  0.59300  Biso   1.000  C
  H13      1.0000 0.23340  0.20900  0.61890  Biso   1.000  H
  C19      1.0000 0.34550  0.19140  0.59910  Biso   1.000  C
  C20      1.0000 0.40260  0.19740  0.56480  Biso   1.000  C
  H14      1.0000 0.45950  0.19310  0.56950  Biso   1.000  H
  C21      1.0000 0.36980  0.21060  0.52040  Biso   1.000  C
  H15      1.0000 0.40940  0.21980  0.49720  Biso   1.000  H
  C22      1.0000 0.37440  0.17760  0.64820  Biso   1.000  C
  C23      1.0000 0.27010  0.35840  0.38270  Biso   1.000  C
  C24      1.0000 0.35830  0.38670  0.37070  Biso   1.000  C
  C25      1.0000 0.38700  0.45380  0.35240  Biso   1.000  C
  C26      1.0000 0.32250  0.48950  0.34580  Biso   1.000  C
  H16      1.0000 0.33960  0.53350  0.33320  Biso   1.000  H
  C27      1.0000 0.23410  0.46360  0.35670  Biso   1.000  C
  C28      1.0000 0.20930  0.39630  0.37460  Biso   1.000  C
  C29      1.0000 0.10590  0.37810  0.43370  Biso   1.000  C
  H17      1.0000 0.13100  0.34590  0.44820  Biso   1.000  H
  H18      1.0000 0.04200  0.36150  0.43440  Biso   1.000  H
  H19      1.0000 0.13250  0.43310  0.45220  Biso   1.000  H
  C30      1.0000 0.49630  0.38750  0.40930  Biso   1.000  C
  H20      1.0000 0.53500  0.35550  0.40610  Biso   1.000  H
  H21      1.0000 0.48210  0.39910  0.44260  Biso   1.000  H
  H22      1.0000 0.52640  0.43640  0.40150  Biso   1.000  H
  C31      1.0000 0.17120  0.50220  0.34230  Biso   1.000  C
  C32      1.0000 0.17480  0.51820  0.29540  Biso   1.000  C
  H23      1.0000 0.21690  0.50580  0.27550  Biso   1.000  H
  C33      1.0000 0.11660  0.55180  0.27930  Biso   1.000  C
  H24      1.0000 0.11910  0.56130  0.24830  Biso   1.000  H
  C34      1.0000 0.05410  0.57190  0.30890  Biso   1.000  C
  C35      1.0000 0.05090  0.55750  0.35510  Biso   1.000  C
  H25      1.0000 0.00980  0.57120  0.37530  Biso   1.000  H
  C36      1.0000 0.10890  0.52280  0.37110  Biso   1.000  C
  H26      1.0000 0.10580  0.51310  0.40210  Biso   1.000  H
  C37      1.0000 0.98930  0.60560  0.28960  Biso   1.000  C
  C38      1.0000 0.47330  0.48280  0.33440  Biso   1.000  C
  C39      1.0000 0.50790  0.43290  0.30030  Biso   1.000  C
  H27      1.0000 0.47830  0.37800  0.29140  Biso   1.000  H
  C40      1.0000 0.58310  0.46230  0.28010  Biso   1.000  C
  H28      1.0000 0.60420  0.42730  0.25780  Biso   1.000  H
  C41      1.0000 0.63120  0.54650  0.29210  Biso   1.000  C
  C42      1.0000 0.59770  0.59510  0.32690  Biso   1.000  C
  H29      1.0000 0.62790  0.64980  0.33650  Biso   1.000  H
  C43      1.0000 0.52010  0.56440  0.34800  Biso   1.000  C
  H30      1.0000 0.49960  0.59870  0.37120  Biso   1.000  H
  C44      1.0000 0.71170  0.57710  0.26910  Biso   1.000  C
  C45      1.0000 0.67650  0.93410  0.24260  Biso   1.000  C
  C46      1.0000 0.75480  0.96820  0.21800  Biso   1.000  C
  C47      1.0000 0.78590  0.91870  0.18310  Biso   1.000  C
  H31      1.0000 0.75380  0.86440  0.17200  Biso   1.000  H
  C48      1.0000 0.86550  0.95040  0.16430  Biso   1.000  C
  H32      1.0000 0.88550  0.91720  0.14010  Biso   1.000  H
  C49      1.0000 0.91490  0.03010  0.18120  Biso   1.000  C
  C50      1.0000 0.88100  0.07950  0.21450  Biso   1.000  C
  H33      1.0000 0.91170  0.13410  0.22380  Biso   1.000  H
  C51      1.0000 0.80360  0.05060  0.23450  Biso   1.000  C
  H34      1.0000 0.78380  0.08460  0.25840  Biso   1.000  H
  C52      1.0000 0.00620  0.06040  0.16600  Biso   1.000  C
  C53      1.0000 0.06870  0.02620  0.17580  Biso   1.000  C
  H35      1.0000 0.05110  0.98270  0.18880  Biso   1.000  H
  C54      1.0000 0.15930  0.05510  0.16660  Biso   1.000  C
  C55      1.0000 0.18310  0.11780  0.14690  Biso   1.000  C
  C56      1.0000 0.12190  0.15360  0.13610  Biso   1.000  C
  C57      1.0000 0.03340  0.12380  0.14460  Biso   1.000  C
  C58      1.0000 0.90860  0.11980  0.09500  Biso   1.000  C
  H36      1.0000 0.86820  0.14880  0.09220  Biso   1.000  H
  H37      1.0000 0.87540  0.06860  0.09910  Biso   1.000  H
  H38      1.0000 0.93750  0.11260  0.06550  Biso   1.000  H
  C59      1.0000 0.33600  0.19460  0.17610  Biso   1.000  C
  H39      1.0000 0.39480  0.20580  0.16540  Biso   1.000  H
  H40      1.0000 0.33310  0.16670  0.20100  Biso   1.000  H
  H41      1.0000 0.32470  0.24370  0.18950  Biso   1.000  H
  C60      1.0000 0.15040  0.22610  0.11710  Biso   1.000  C
  C61      1.0000 0.18830  0.29950  0.15070  Biso   1.000  C
  C62      1.0000 0.21240  0.37090  0.13720  Biso   1.000  C
  C63      1.0000 0.19730  0.36510  0.08770  Biso   1.000  C
  H42      1.0000 0.21190  0.41180  0.07790  Biso   1.000  H
  C64      1.0000 0.16110  0.29220  0.05140  Biso   1.000  C
  C65      1.0000 0.13620  0.22100  0.06680  Biso   1.000  C
  C66      1.0000 0.13340  0.32030  0.22960  Biso   1.000  C
  H43      1.0000 0.14760  0.32180  0.26340  Biso   1.000  H
  H44      1.0000 0.07640  0.27950  0.21600  Biso   1.000  H
  H45      1.0000 0.13000  0.37110  0.22810  Biso   1.000  H
  C67      1.0000 0.26310  0.44960  0.17040  Biso   1.000  C
  C68      1.0000 0.33870  0.46180  0.20280  Biso   1.000  C
  H46      1.0000 0.35080  0.41810  0.20870  Biso   1.000  H
  C69      1.0000 0.39780  0.54020  0.22690  Biso   1.000  C
  H47      1.0000 0.45080  0.54800  0.24630  Biso   1.000  H
  C70      1.0000 0.37470  0.60510  0.22090  Biso   1.000  C
  C71      1.0000 0.29490  0.59170  0.19230  Biso   1.000  C
  H48      1.0000 0.27770  0.63500  0.19020  Biso   1.000  H
  C72      1.0000 0.24000  0.51560  0.16660  Biso   1.000  C
  H49      1.0000 0.18770  0.50840  0.14690  Biso   1.000  H
  C73      1.0000 0.43610  0.68570  0.24050  Biso   1.000  C
  C74      1.0000 0.15400  0.29360  0.99870  Biso   1.000  C
  C75      1.0000 0.11400  0.34220  0.98390  Biso   1.000  C
  H50      1.0000 0.08350  0.36850  0.00590  Biso   1.000  H
  C76      1.0000 0.11760  0.35340  0.93690  Biso   1.000  C
  H51      1.0000 0.08840  0.38540  0.92740  Biso   1.000  H
  C77      1.0000 0.16610  0.31570  0.90360  Biso   1.000  C
  C78      1.0000 0.20600  0.26430  0.91880  Biso   1.000  C
  H52      1.0000 0.23720  0.23820  0.89720  Biso   1.000  H
  C79      1.0000 0.19920  0.25270  0.96490  Biso   1.000  C
  H53      1.0000 0.22440  0.21770  0.97410  Biso   1.000  H
  C80      1.0000 0.17170  0.32730  0.85440  Biso   1.000  C
  C81      1.0000 0.22400  0.01770  0.18380  Biso   1.000  C
  C82      1.0000 0.28840  0.00050  0.15620  Biso   1.000  C
  H54      1.0000 0.29180  0.00990  0.12520  Biso   1.000  H
  C83      1.0000 0.34960  0.96890  0.17420  Biso   1.000  C
  H55      1.0000 0.39170  0.95590  0.15450  Biso   1.000  H
  C84      1.0000 0.34790  0.95710  0.22030  Biso   1.000  C
  C85      1.0000 0.28080  0.97410  0.24910  Biso   1.000  C
  H56      1.0000 0.27820  0.96620  0.28050  Biso   1.000  H
  C86      1.0000 0.21980  0.00240  0.23000  Biso   1.000  C
  H57      1.0000 0.17440  0.01170  0.24830  Biso   1.000  H
  C87      1.0000 0.41470  0.92400  0.24020  Biso   1.000  C
  C88      1.0000 0.13690  0.08900  0.02300  Biso   1.000  C
  H58      1.0000 0.14130  0.07130  0.98830  Biso   1.000  H
  H59      1.0000 0.10130  0.04480  0.03390  Biso   1.000  H
  H60      1.0000 0.19610  0.11060  0.04120  Biso   1.000  H
  La1      1.0000 0.32351  0.26539  0.76871  Biso   1.000  La
  Cd3      1.0000 0.47811  0.14018  0.72229  Biso   1.000  Cd
  Cd4      1.0000 0.12951  0.35052  0.75923  Biso   1.000  Cd
  O25      1.0000 0.36090  0.14220  0.77125  Biso   1.000  O
  O26      1.0000 0.35310  0.02430  0.72410  Biso   1.000  O
  O27      1.0000 0.02600  0.83750  0.86396  Biso   1.000  O
  O28      1.0000 0.72930  0.85310  0.86455  Biso   1.000  O
  O29      1.0000 0.90550  0.84980  0.96881  Biso   1.000  O
  O30      1.0000 0.79790  0.69710  0.79858  Biso   1.000  O
  O31      1.0000 0.78240  0.70830  0.17424  Biso   1.000  O
  O32      1.0000 0.86520  0.62740  0.15880  Biso   1.000  O
  O33      1.0000 0.59230  0.25680  0.75150  Biso   1.000  O
  O34      1.0000 0.47890  0.30430  0.75100  Biso   1.000  O
  O35      1.0000 0.53900  0.10380  0.78870  Biso   1.000  O
  O36      1.0000 0.58300  0.07460  0.71475  Biso   1.000  O
  O37      1.0000 0.17160  0.17000  0.73488  Biso   1.000  O
  O38      1.0000 0.05910  0.22180  0.73450  Biso   1.000  O
  O39      1.0000 0.84630  0.78480  0.67874  Biso   1.000  O
  O40      1.0000 0.66530  0.64630  0.52360  Biso   1.000  O
  C89      1.0000 0.69150  0.60350  0.48520  Biso   1.000  C
  H61      1.0000 0.71910  0.56970  0.49630  Biso   1.000  H
  H62      1.0000 0.64010  0.57110  0.46120  Biso   1.000  H
  H63      1.0000 0.73410  0.63850  0.47050  Biso   1.000  H
  O41      1.0000 0.66770  0.80420  0.31676  Biso   1.000  O
  O42      1.0000 0.56170  0.84800  0.35124  Biso   1.000  O
  O43      1.0000 0.58460  0.65510  0.62390  Biso   1.000  O
  O44      1.0000 0.87630  0.63070  0.61440  Biso   1.000  O
  O45      1.0000 0.06140  0.36730  0.68390  Biso   1.000  O
  O46      1.0000 0.01340  0.39650  0.75630  Biso   1.000  O
  O47      1.0000 0.24560  0.46470  0.75220  Biso   1.000  O
  O48      1.0000 0.26430  0.34660  0.72608  Biso   1.000  O
  C90      1.0000 0.08920  0.16560  0.72610  Biso   1.000  C
  C91      1.0000 0.02210  0.08390  0.70310  Biso   1.000  C
  C92      1.0000 0.04140  0.01560  0.70210  Biso   1.000  C
  H64      1.0000 0.09620  0.01960  0.71800  Biso   1.000  H
  C93      1.0000 0.98010  0.93990  0.67760  Biso   1.000  C
  H65      1.0000 0.99270  0.89400  0.67890  Biso   1.000  H
  C94      1.0000 0.89960  0.93400  0.65110  Biso   1.000  C
  C95      1.0000 0.88070  0.00570  0.65430  Biso   1.000  C
  H66      1.0000 0.82630  0.00300  0.63850  Biso   1.000  H
  C96      1.0000 0.93860  0.07690  0.67910  Biso   1.000  C
  H67      1.0000 0.92360  0.12250  0.68060  Biso   1.000  H
  C97      1.0000 0.83890  0.85800  0.61880  Biso   1.000  C
  C98      1.0000 0.81350  0.78430  0.63120  Biso   1.000  C
  C99      1.0000 0.75750  0.71510  0.60050  Biso   1.000  C
  C100     1.0000 0.72140  0.71490  0.55380  Biso   1.000  C
  C101     1.0000 0.74540  0.78540  0.53980  Biso   1.000  C
  C102     1.0000 0.80340  0.85490  0.57160  Biso   1.000  C
  H68      1.0000 0.81950  0.90130  0.56140  Biso   1.000  H
  C103     1.0000 0.78820  0.79710  0.71530  Biso   1.000  C
  H69      1.0000 0.81950  0.80720  0.74750  Biso   1.000  H
  H70      1.0000 0.77040  0.84210  0.71380  Biso   1.000  H
  H71      1.0000 0.73580  0.75040  0.70920  Biso   1.000  H
  C104     1.0000 0.71110  0.78940  0.48930  Biso   1.000  C
  C105     1.0000 0.76000  0.78740  0.45230  Biso   1.000  C
  H72      1.0000 0.81560  0.78050  0.45670  Biso   1.000  H
  C106     1.0000 0.73180  0.79520  0.40700  Biso   1.000  C
  H73      1.0000 0.76660  0.79100  0.38110  Biso   1.000  H
  C107     1.0000 0.65450  0.80860  0.40090  Biso   1.000  C
  C108     1.0000 0.59740  0.80260  0.43520  Biso   1.000  C
  H74      1.0000 0.54050  0.80690  0.43050  Biso   1.000  H
  C109     1.0000 0.63020  0.78940  0.47960  Biso   1.000  C
  H75      1.0000 0.59060  0.78020  0.50280  Biso   1.000  H
  C110     1.0000 0.62560  0.82240  0.35180  Biso   1.000  C
  C111     1.0000 0.72990  0.64160  0.61730  Biso   1.000  C
  C112     1.0000 0.64170  0.61330  0.62930  Biso   1.000  C
  C113     1.0000 0.61300  0.54620  0.64760  Biso   1.000  C
  C114     1.0000 0.67750  0.51050  0.65420  Biso   1.000  C
  H76      1.0000 0.66040  0.46650  0.66680  Biso   1.000  H
  C115     1.0000 0.76590  0.53640  0.64330  Biso   1.000  C
  C116     1.0000 0.79070  0.60370  0.62540  Biso   1.000  C
  C117     1.0000 0.89410  0.62190  0.56630  Biso   1.000  C
  H77      1.0000 0.86900  0.65410  0.55180  Biso   1.000  H
  H78      1.0000 0.95800  0.63850  0.56560  Biso   1.000  H
  H79      1.0000 0.86750  0.56690  0.54780  Biso   1.000  H
  C118     1.0000 0.50370  0.61250  0.59070  Biso   1.000  C
  H80      1.0000 0.46500  0.64450  0.59390  Biso   1.000  H
  H81      1.0000 0.51790  0.60090  0.55740  Biso   1.000  H
  H82      1.0000 0.47360  0.56360  0.59850  Biso   1.000  H
  C119     1.0000 0.82880  0.49780  0.65770  Biso   1.000  C
  C120     1.0000 0.82520  0.48180  0.70460  Biso   1.000  C
  H83      1.0000 0.78310  0.49420  0.72450  Biso   1.000  H
  C121     1.0000 0.88340  0.44820  0.72070  Biso   1.000  C
  H84      1.0000 0.88090  0.43870  0.75170  Biso   1.000  H
  C122     1.0000 0.94590  0.42810  0.69110  Biso   1.000  C
  C123     1.0000 0.94910  0.44250  0.64490  Biso   1.000  C
  H85      1.0000 0.99020  0.42880  0.62470  Biso   1.000  H
  C124     1.0000 0.89110  0.47720  0.62890  Biso   1.000  C
  H86      1.0000 0.89420  0.48690  0.59790  Biso   1.000  H
  C125     1.0000 0.01070  0.39440  0.71040  Biso   1.000  C
  C126     1.0000 0.52670  0.51720  0.66560  Biso   1.000  C
  C127     1.0000 0.49210  0.56710  0.69970  Biso   1.000  C
  H87      1.0000 0.52170  0.62200  0.70860  Biso   1.000  H
  C128     1.0000 0.41690  0.53770  0.71990  Biso   1.000  C
  H88      1.0000 0.39580  0.57270  0.74220  Biso   1.000  H
  C129     1.0000 0.36880  0.45350  0.70790  Biso   1.000  C
  C130     1.0000 0.40230  0.40490  0.67310  Biso   1.000  C
  H89      1.0000 0.37210  0.35020  0.66350  Biso   1.000  H
  C131     1.0000 0.47990  0.43560  0.65200  Biso   1.000  C
  H90      1.0000 0.50040  0.40130  0.62880  Biso   1.000  H
  C132     1.0000 0.28830  0.42290  0.73090  Biso   1.000  C
  C133     1.0000 0.32350  0.06590  0.75740  Biso   1.000  C
  C134     1.0000 0.24520  0.03180  0.78200  Biso   1.000  C
  C135     1.0000 0.21410  0.08130  0.81690  Biso   1.000  C
  H91      1.0000 0.24620  0.13560  0.82800  Biso   1.000  H
  C136     1.0000 0.13450  0.04960  0.83570  Biso   1.000  C
  H92      1.0000 0.11450  0.08280  0.85990  Biso   1.000  H
  C137     1.0000 0.08510  0.96990  0.81880  Biso   1.000  C
  C138     1.0000 0.11900  0.92050  0.78550  Biso   1.000  C
  H93      1.0000 0.08830  0.86590  0.77620  Biso   1.000  H
  C139     1.0000 0.19640  0.94940  0.76550  Biso   1.000  C
  H94      1.0000 0.21620  0.91540  0.74160  Biso   1.000  H
  C140     1.0000 0.99380  0.93960  0.83400  Biso   1.000  C
  C141     1.0000 0.93130  0.97380  0.82420  Biso   1.000  C
  H95      1.0000 0.94890  0.01730  0.81120  Biso   1.000  H
  C142     1.0000 0.84070  0.94490  0.83340  Biso   1.000  C
  C143     1.0000 0.81690  0.88220  0.85310  Biso   1.000  C
  C144     1.0000 0.87810  0.84640  0.86390  Biso   1.000  C
  C145     1.0000 0.96660  0.87620  0.85540  Biso   1.000  C
  C146     1.0000 0.09140  0.88020  0.90500  Biso   1.000  C
  H96      1.0000 0.13180  0.85120  0.90780  Biso   1.000  H
  H97      1.0000 0.12460  0.93140  0.90090  Biso   1.000  H
  H98      1.0000 0.06250  0.88740  0.93450  Biso   1.000  H
  C147     1.0000 0.66400  0.80540  0.82390  Biso   1.000  C
  H99      1.0000 0.60520  0.79420  0.83460  Biso   1.000  H
  H100     1.0000 0.66690  0.83330  0.79900  Biso   1.000  H
  H101     1.0000 0.67530  0.75630  0.81050  Biso   1.000  H
  C148     1.0000 0.84960  0.77390  0.88290  Biso   1.000  C
  C149     1.0000 0.81170  0.70050  0.84930  Biso   1.000  C
  C150     1.0000 0.78760  0.62910  0.86280  Biso   1.000  C
  C151     1.0000 0.80270  0.63490  0.91230  Biso   1.000  C
  H102     1.0000 0.78810  0.58820  0.92210  Biso   1.000  H
  C152     1.0000 0.83890  0.70780  0.94860  Biso   1.000  C
  C153     1.0000 0.86380  0.77900  0.93320  Biso   1.000  C
  C154     1.0000 0.86660  0.67970  0.77040  Biso   1.000  C
  H103     1.0000 0.85240  0.67820  0.73660  Biso   1.000  H
  H104     1.0000 0.92360  0.72050  0.78400  Biso   1.000  H
  H105     1.0000 0.87000  0.62890  0.77190  Biso   1.000  H
  C155     1.0000 0.73690  0.55040  0.82960  Biso   1.000  C
  C156     1.0000 0.66130  0.53820  0.79720  Biso   1.000  C
  H106     1.0000 0.64920  0.58190  0.79130  Biso   1.000  H
  C157     1.0000 0.60220  0.45980  0.77310  Biso   1.000  C
  H107     1.0000 0.54920  0.45200  0.75370  Biso   1.000  H
  C158     1.0000 0.62530  0.39490  0.77910  Biso   1.000  C
  C159     1.0000 0.70510  0.40830  0.80770  Biso   1.000  C
  H108     1.0000 0.72230  0.36500  0.80980  Biso   1.000  H
  C160     1.0000 0.76000  0.48440  0.83340  Biso   1.000  C
  H109     1.0000 0.81230  0.49160  0.85310  Biso   1.000  H
  C161     1.0000 0.56390  0.31430  0.75950  Biso   1.000  C
  C162     1.0000 0.84600  0.70640  0.00130  Biso   1.000  C
  C163     1.0000 0.88600  0.65780  0.01610  Biso   1.000  C
  H110     1.0000 0.91650  0.63150  0.99410  Biso   1.000  H
  C164     1.0000 0.88240  0.64660  0.06310  Biso   1.000  C
  H111     1.0000 0.91160  0.61460  0.07260  Biso   1.000  H
  C165     1.0000 0.83390  0.68430  0.09640  Biso   1.000  C
  C166     1.0000 0.79400  0.73570  0.08120  Biso   1.000  C
  H112     1.0000 0.76280  0.76180  0.10280  Biso   1.000  H
  C167     1.0000 0.80080  0.74730  0.03510  Biso   1.000  C
  H113     1.0000 0.77560  0.78230  0.02590  Biso   1.000  H
  C168     1.0000 0.82830  0.67270  0.14560  Biso   1.000  C
  C169     1.0000 0.77600  0.98230  0.81620  Biso   1.000  C
  C170     1.0000 0.71160  0.99950  0.84380  Biso   1.000  C
  H114     1.0000 0.70820  0.99010  0.87480  Biso   1.000  H
  C171     1.0000 0.65040  0.03110  0.82580  Biso   1.000  C
  H115     1.0000 0.60830  0.04410  0.84550  Biso   1.000  H
  C172     1.0000 0.65210  0.04290  0.77970  Biso   1.000  C
  C173     1.0000 0.71920  0.02590  0.75090  Biso   1.000  C
  H116     1.0000 0.72180  0.03380  0.71950  Biso   1.000  H
  C174     1.0000 0.78020  0.99760  0.77000  Biso   1.000  C
  H117     1.0000 0.82560  0.98830  0.75170  Biso   1.000  H
  C175     1.0000 0.58530  0.07600  0.75980  Biso   1.000  C
  C176     1.0000 0.86310  0.91100  0.97700  Biso   1.000  C
  H118     1.0000 0.85870  0.92870  0.01170  Biso   1.000  H
  H119     1.0000 0.89870  0.95520  0.96610  Biso   1.000  H
  H120     1.0000 0.80390  0.88940  0.95880  Biso   1.000  H
