data_image0
_cell_length_a       15.508
_cell_length_b       16.241
_cell_length_c       18.383
_cell_angle_alpha    108.709
_cell_angle_beta     104.279
_cell_angle_gamma    107.16

_symmetry_space_group_name_H-M    "P 1"
_symmetry_int_tables_number       1

loop_
  _symmetry_equiv_pos_as_xyz
  'x, y, z'

loop_
  _atom_site_label
  _atom_site_occupancy
  _atom_site_fract_x
  _atom_site_fract_y
  _atom_site_fract_z
  _atom_site_thermal_displace_type
  _atom_site_B_iso_or_equiv
  _atom_site_type_symbol
  Cu1      1.0000 0.51643  0.66948  0.91296  Biso   1.000  Cu
  O1       1.0000 0.63600  0.61580  0.00900  Biso   1.000  O
  O2       1.0000 0.67290  0.73990  0.99150  Biso   1.000  O
  O3       1.0000 0.45480  0.61230  0.06520  Biso   1.000  O
  O4       1.0000 0.46530  0.71900  0.01510  Biso   1.000  O
  O5       1.0000 0.42890  0.50570  0.87580  Biso   1.000  O
  O6       1.0000 0.50310  0.54260  0.79430  Biso   1.000  O
  O7       1.0000 0.53540  0.78670  0.86860  Biso   1.000  O
  O8       1.0000 0.38520  0.67590  0.81580  Biso   1.000  O
  O9       1.0000 0.24640  0.07660  0.47530  Biso   1.000  O
  O10      1.0000 0.26370  0.79410  0.48830  Biso   1.000  O
  O11      1.0000 0.37760  0.90430  0.39800  Biso   1.000  O
  O12      1.0000 0.05670  0.87510  0.38160  Biso   1.000  O
  C1       1.0000 0.69570  0.69320  0.02900  Biso   1.000  C
  C2       1.0000 0.79380  0.72690  0.08960  Biso   1.000  C
  C3       1.0000 0.82060  0.67710  0.13250  Biso   1.000  C
  H1       1.0000 0.77430  0.61920  0.12310  Biso   1.000  H
  C4       1.0000 0.91140  0.70940  0.18740  Biso   1.000  C
  H2       1.0000 0.92420  0.67380  0.21630  Biso   1.000  H
  C5       1.0000 0.98250  0.78700  0.20280  Biso   1.000  C
  C6       1.0000 0.96130  0.83470  0.15330  Biso   1.000  C
  H3       1.0000 0.01040  0.88710  0.15690  Biso   1.000  H
  C7       1.0000 0.86630  0.80240  0.09930  Biso   1.000  C
  H4       1.0000 0.85280  0.83570  0.06830  Biso   1.000  H
  C8       1.0000 0.08590  0.81760  0.25590  Biso   1.000  C
  C9       1.0000 0.14940  0.80380  0.21910  Biso   1.000  C
  H5       1.0000 0.12620  0.77510  0.16150  Biso   1.000  H
  C10      1.0000 0.24810  0.83020  0.26320  Biso   1.000  C
  C11      1.0000 0.28200  0.87620  0.35060  Biso   1.000  C
  C12      1.0000 0.21430  0.88700  0.39120  Biso   1.000  C
  C13      1.0000 0.11770  0.85850  0.34350  Biso   1.000  C
  C14      1.0000 0.02050  0.80840  0.41030  Biso   1.000  C
  H6       1.0000 0.01640  0.74780  0.37550  Biso   1.000  H
  H7       1.0000 0.06310  0.82820  0.46610  Biso   1.000  H
  H8       1.0000 0.95680  0.80290  0.40920  Biso   1.000  H
  C15      1.0000 0.43820  0.99190  0.40280  Biso   1.000  C
  H9       1.0000 0.50440  0.99830  0.41860  Biso   1.000  H
  H10      1.0000 0.41750  0.99340  0.34970  Biso   1.000  H
  H11      1.0000 0.43360  0.04340  0.44330  Biso   1.000  H
  C16      1.0000 0.30970  0.80470  0.22010  Biso   1.000  C
  C17      1.0000 0.36460  0.75450  0.24180  Biso   1.000  C
  H12      1.0000 0.37170  0.74660  0.29050  Biso   1.000  H
  C18      1.0000 0.40830  0.71670  0.18880  Biso   1.000  C
  H13      1.0000 0.44160  0.68090  0.20170  Biso   1.000  H
  C19      1.0000 0.40340  0.73060  0.12060  Biso   1.000  C
  C20      1.0000 0.35530  0.78410  0.09940  Biso   1.000  C
  H14      1.0000 0.35510  0.79620  0.05320  Biso   1.000  H
  C21      1.0000 0.30800  0.81920  0.14750  Biso   1.000  C
  H15      1.0000 0.27390  0.85330  0.13210  Biso   1.000  H
  C22      1.0000 0.44890  0.68080  0.06130  Biso   1.000  C
  C23      1.0000 0.25690  0.93460  0.48310  Biso   1.000  C
  C24      1.0000 0.27190  0.03130  0.52340  Biso   1.000  C
  C25      1.0000 0.31770  0.08080  0.60830  Biso   1.000  C
  C26      1.0000 0.34320  0.02880  0.65270  Biso   1.000  C
  H16      1.0000 0.37510  0.06140  0.71000  Biso   1.000  H
  C27      1.0000 0.32440  0.93550  0.61740  Biso   1.000  C
  C28      1.0000 0.28390  0.89180  0.53160  Biso   1.000  C
  C29      1.0000 0.34540  0.77040  0.49480  Biso   1.000  C
  H17      1.0000 0.33580  0.72490  0.44170  Biso   1.000  H
  H18      1.0000 0.40300  0.82670  0.51300  Biso   1.000  H
  H19      1.0000 0.35270  0.74340  0.53420  Biso   1.000  H
  C30      1.0000 0.16110  0.09900  0.48370  Biso   1.000  C
  H20      1.0000 0.16060  0.14960  0.46760  Biso   1.000  H
  H21      1.0000 0.10170  0.04350  0.44870  Biso   1.000  H
  H22      1.0000 0.16640  0.11840  0.54030  Biso   1.000  H
  C31      1.0000 0.34630  0.18570  0.65550  Biso   1.000  C
  C32      1.0000 0.39210  0.24850  0.63160  Biso   1.000  C
  H23      1.0000 0.40100  0.22770  0.58180  Biso   1.000  H
  C33      1.0000 0.42800  0.34870  0.68230  Biso   1.000  C
  H24      1.0000 0.46390  0.39310  0.66760  Biso   1.000  H
  C34      1.0000 0.40790  0.37860  0.75470  Biso   1.000  C
  C35      1.0000 0.35870  0.31360  0.77500  Biso   1.000  C
  H25      1.0000 0.34520  0.33400  0.82260  Biso   1.000  H
  C36      1.0000 0.32590  0.21570  0.72790  Biso   1.000  C
  H26      1.0000 0.29170  0.17170  0.74380  Biso   1.000  H
  C37      1.0000 0.44740  0.47740  0.81270  Biso   1.000  C
  C38      1.0000 0.35430  0.88800  0.67210  Biso   1.000  C
  C39      1.0000 0.44350  0.93270  0.73630  Biso   1.000  C
  H27      1.0000 0.48520  0.99400  0.74850  Biso   1.000  H
  C40      1.0000 0.47000  0.88760  0.78100  Biso   1.000  C
  H28      1.0000 0.53180  0.91820  0.82260  Biso   1.000  H
  C41      1.0000 0.41310  0.80140  0.76980  Biso   1.000  C
  C42      1.0000 0.32060  0.75680  0.70850  Biso   1.000  C
  H29      1.0000 0.27880  0.69730  0.70000  Biso   1.000  H
  C43      1.0000 0.29000  0.79950  0.66000  Biso   1.000  C
  H30      1.0000 0.22730  0.76990  0.61970  Biso   1.000  H
  C44      1.0000 0.44370  0.74840  0.82160  Biso   1.000  C
  Cu2      1.0000 0.48357  0.33052  0.08704  Biso   1.000  Cu
  O13      1.0000 0.36400  0.38420  0.99100  Biso   1.000  O
  O14      1.0000 0.32710  0.26010  0.00850  Biso   1.000  O
  O15      1.0000 0.54520  0.38770  0.93480  Biso   1.000  O
  O16      1.0000 0.53470  0.28100  0.98490  Biso   1.000  O
  O17      1.0000 0.57110  0.49430  0.12420  Biso   1.000  O
  O18      1.0000 0.49690  0.45740  0.20570  Biso   1.000  O
  O19      1.0000 0.46460  0.21330  0.13140  Biso   1.000  O
  O20      1.0000 0.61480  0.32410  0.18420  Biso   1.000  O
  O21      1.0000 0.75360  0.92340  0.52470  Biso   1.000  O
  O22      1.0000 0.73630  0.20590  0.51170  Biso   1.000  O
  O23      1.0000 0.62240  0.09570  0.60200  Biso   1.000  O
  O24      1.0000 0.94330  0.12490  0.61840  Biso   1.000  O
  C45      1.0000 0.30430  0.30680  0.97100  Biso   1.000  C
  C46      1.0000 0.20620  0.27310  0.91040  Biso   1.000  C
  C47      1.0000 0.17940  0.32290  0.86750  Biso   1.000  C
  H31      1.0000 0.22570  0.38080  0.87690  Biso   1.000  H
  C48      1.0000 0.08860  0.29060  0.81260  Biso   1.000  C
  H32      1.0000 0.07580  0.32620  0.78370  Biso   1.000  H
  C49      1.0000 0.01750  0.21300  0.79720  Biso   1.000  C
  C50      1.0000 0.03870  0.16530  0.84670  Biso   1.000  C
  H33      1.0000 0.98960  0.11290  0.84310  Biso   1.000  H
  C51      1.0000 0.13370  0.19760  0.90070  Biso   1.000  C
  H34      1.0000 0.14720  0.16430  0.93170  Biso   1.000  H
  C52      1.0000 0.91410  0.18240  0.74410  Biso   1.000  C
  C53      1.0000 0.85060  0.19620  0.78090  Biso   1.000  C
  H35      1.0000 0.87380  0.22490  0.83850  Biso   1.000  H
  C54      1.0000 0.75190  0.16980  0.73680  Biso   1.000  C
  C55      1.0000 0.71800  0.12380  0.64940  Biso   1.000  C
  C56      1.0000 0.78570  0.11300  0.60880  Biso   1.000  C
  C57      1.0000 0.88230  0.14150  0.65650  Biso   1.000  C
  C58      1.0000 0.97950  0.19160  0.58970  Biso   1.000  C
  H36      1.0000 0.98360  0.25220  0.62450  Biso   1.000  H
  H37      1.0000 0.93690  0.17180  0.53390  Biso   1.000  H
  H38      1.0000 0.04320  0.19710  0.59080  Biso   1.000  H
  C59      1.0000 0.56180  0.00810  0.59720  Biso   1.000  C
  H39      1.0000 0.49560  0.00170  0.58140  Biso   1.000  H
  H40      1.0000 0.58250  0.00660  0.65030  Biso   1.000  H
  H41      1.0000 0.56640  0.95660  0.55670  Biso   1.000  H
  C60      1.0000 0.69030  0.19530  0.77990  Biso   1.000  C
  C61      1.0000 0.63540  0.24550  0.75820  Biso   1.000  C
  H42      1.0000 0.62830  0.25340  0.70950  Biso   1.000  H
  C62      1.0000 0.59170  0.28330  0.81120  Biso   1.000  C
  H43      1.0000 0.55840  0.31910  0.79830  Biso   1.000  H
  C63      1.0000 0.59660  0.26940  0.87940  Biso   1.000  C
  C64      1.0000 0.64470  0.21590  0.90060  Biso   1.000  C
  H44      1.0000 0.64490  0.20380  0.94680  Biso   1.000  H
  C65      1.0000 0.69200  0.18080  0.85250  Biso   1.000  C
  H45      1.0000 0.72610  0.14670  0.86790  Biso   1.000  H
  C66      1.0000 0.55110  0.31920  0.93870  Biso   1.000  C
  C67      1.0000 0.74310  0.06540  0.51690  Biso   1.000  C
  C68      1.0000 0.72810  0.96870  0.47660  Biso   1.000  C
  C69      1.0000 0.68230  0.91920  0.39170  Biso   1.000  C
  C70      1.0000 0.65680  0.97120  0.34730  Biso   1.000  C
  H46      1.0000 0.62490  0.93860  0.29000  Biso   1.000  H
  C71      1.0000 0.67560  0.06450  0.38260  Biso   1.000  C
  C72      1.0000 0.71610  0.10820  0.46840  Biso   1.000  C
  C73      1.0000 0.65460  0.22960  0.50520  Biso   1.000  C
  H47      1.0000 0.66420  0.27510  0.55830  Biso   1.000  H
  H48      1.0000 0.59700  0.17330  0.48700  Biso   1.000  H
  H49      1.0000 0.64730  0.25660  0.46580  Biso   1.000  H
  C74      1.0000 0.83890  0.90100  0.51630  Biso   1.000  C
  H50      1.0000 0.83940  0.85040  0.53240  Biso   1.000  H
  H51      1.0000 0.89830  0.95650  0.55130  Biso   1.000  H
  H52      1.0000 0.83360  0.88160  0.45970  Biso   1.000  H
  C75      1.0000 0.65370  0.81430  0.34450  Biso   1.000  C
  C76      1.0000 0.60790  0.75150  0.36840  Biso   1.000  C
  H53      1.0000 0.59900  0.77230  0.41820  Biso   1.000  H
  C77      1.0000 0.57200  0.65130  0.31770  Biso   1.000  C
  H54      1.0000 0.53610  0.60690  0.33240  Biso   1.000  H
  C78      1.0000 0.59210  0.62140  0.24530  Biso   1.000  C
  C79      1.0000 0.64130  0.68640  0.22500  Biso   1.000  C
  H55      1.0000 0.65480  0.66600  0.17740  Biso   1.000  H
  C80      1.0000 0.67410  0.78430  0.27210  Biso   1.000  C
  H56      1.0000 0.70830  0.82830  0.25620  Biso   1.000  H
  C81      1.0000 0.55260  0.52260  0.18730  Biso   1.000  C
  C82      1.0000 0.64570  0.11200  0.32790  Biso   1.000  C
  C83      1.0000 0.55650  0.06730  0.26370  Biso   1.000  C
  H57      1.0000 0.51480  0.00600  0.25150  Biso   1.000  H
  C84      1.0000 0.53000  0.11240  0.21900  Biso   1.000  C
  H58      1.0000 0.46820  0.08180  0.17740  Biso   1.000  H
  C85      1.0000 0.58690  0.19860  0.23020  Biso   1.000  C
  C86      1.0000 0.67940  0.24320  0.29150  Biso   1.000  C
  H59      1.0000 0.72120  0.30270  0.30000  Biso   1.000  H
  C87      1.0000 0.71000  0.20050  0.34000  Biso   1.000  C
  H60      1.0000 0.77270  0.23010  0.38030  Biso   1.000  H
  C88      1.0000 0.55630  0.25160  0.17840  Biso   1.000  C
