data_image0
_cell_length_a       15.813
_cell_length_b       18.213
_cell_length_c       27.961
_cell_angle_alpha    104.736
_cell_angle_beta     91.538
_cell_angle_gamma    107.955

_symmetry_space_group_name_H-M    "P 1"
_symmetry_int_tables_number       1

loop_
  _symmetry_equiv_pos_as_xyz
  'x, y, z'

loop_
  _atom_site_label
  _atom_site_occupancy
  _atom_site_fract_x
  _atom_site_fract_y
  _atom_site_fract_z
  _atom_site_thermal_displace_type
  _atom_site_B_iso_or_equiv
  _atom_site_type_symbol
  Cd1      1.0000 0.35875  0.14671  0.74135  Biso   1.000  Cd
  Cd2      1.0000 0.16982  0.23356  0.73177  Biso   1.000  Cd
  Cd3      1.0000 0.02269  0.36610  0.78257  Biso   1.000  Cd
  O1       1.0000 0.31490  0.32690  0.76580  Biso   1.000  O
  O2       1.0000 0.42370  0.27570  0.76520  Biso   1.000  O
  O3       1.0000 0.83560  0.70190  0.18460  Biso   1.000  O
  O4       1.0000 0.93320  0.64600  0.14670  Biso   1.000  O
  O5       1.0000 0.24300  0.03280  0.74710  Biso   1.000  O
  O6       1.0000 0.22390  0.15540  0.77570  Biso   1.000  O
  O7       1.0000 0.47450  0.10130  0.74300  Biso   1.000  O
  O8       1.0000 0.42590  0.12970  0.81650  Biso   1.000  O
  O9       1.0000 0.63930  0.71590  0.82350  Biso   1.000  O
  O10      1.0000 0.82400  0.85490  0.97850  Biso   1.000  O
  O11      1.0000 0.61330  0.87280  0.88960  Biso   1.000  O
  O12      1.0000 0.90100  0.84290  0.87630  Biso   1.000  O
  O13      1.0000 0.47360  0.66220  0.63650  Biso   1.000  O
  O14      1.0000 0.77010  0.64890  0.63770  Biso   1.000  O
  O15      1.0000 0.59710  0.65080  0.53120  Biso   1.000  O
  O16      1.0000 0.69550  0.80420  0.70180  Biso   1.000  O
  O17      1.0000 0.14970  0.47630  0.77560  Biso   1.000  O
  O18      1.0000 0.13810  0.35560  0.73202  Biso   1.000  O
  O19      1.0000 0.91540  0.42730  0.78780  Biso   1.000  O
  O20      1.0000 0.96580  0.40420  0.71400  Biso   1.000  O
  O21      1.0000 0.02060  0.19570  0.74890  Biso   1.000  O
  O22      1.0000 0.91170  0.24760  0.75010  Biso   1.000  O
  O23      1.0000 0.72850  0.78870  0.32470  Biso   1.000  O
  O24      1.0000 0.64920  0.87270  0.34030  Biso   1.000  O
  C1       1.0000 0.39580  0.33440  0.77480  Biso   1.000  C
  C2       1.0000 0.46110  0.41520  0.79930  Biso   1.000  C
  C3       1.0000 0.54450  0.42150  0.81990  Biso   1.000  C
  H1       1.0000 0.56010  0.37520  0.81590  Biso   1.000  H
  C4       1.0000 0.60530  0.49480  0.84610  Biso   1.000  C
  H2       1.0000 0.66000  0.49660  0.86030  Biso   1.000  H
  C5       1.0000 0.58590  0.56710  0.85190  Biso   1.000  C
  C6       1.0000 0.50080  0.55930  0.82820  Biso   1.000  C
  H3       1.0000 0.48650  0.60540  0.82870  Biso   1.000  H
  C7       1.0000 0.43980  0.48550  0.80480  Biso   1.000  C
  H4       1.0000 0.38320  0.48230  0.79240  Biso   1.000  H
  C8       1.0000 0.64630  0.64300  0.88390  Biso   1.000  C
  C9       1.0000 0.68230  0.64410  0.92870  Biso   1.000  C
  H5       1.0000 0.66730  0.59650  0.93800  Biso   1.000  H
  C10      1.0000 0.74070  0.71340  0.96150  Biso   1.000  C
  C11      1.0000 0.76210  0.78430  0.94710  Biso   1.000  C
  C12      1.0000 0.72940  0.78470  0.90210  Biso   1.000  C
  C13      1.0000 0.67380  0.71560  0.87070  Biso   1.000  C
  C14      1.0000 0.77630  0.70910  0.01130  Biso   1.000  C
  C15      1.0000 0.73480  0.72060  0.05330  Biso   1.000  C
  H6       1.0000 0.68340  0.73530  0.05310  Biso   1.000  H
  C16      1.0000 0.76830  0.71040  0.09560  Biso   1.000  C
  H7       1.0000 0.73780  0.71840  0.12340  Biso   1.000  H
  C17      1.0000 0.83980  0.69050  0.10030  Biso   1.000  C
  C18      1.0000 0.88680  0.68590  0.06150  Biso   1.000  C
  H8       1.0000 0.94190  0.67830  0.06470  Biso   1.000  H
  C19      1.0000 0.85470  0.69240  0.01520  Biso   1.000  C
  H9       1.0000 0.88660  0.68540  0.98790  Biso   1.000  H
  C20      1.0000 0.87230  0.67460  0.14510  Biso   1.000  C
  C21      1.0000 0.69620  0.69950  0.78540  Biso   1.000  C
  H10      1.0000 0.66860  0.69720  0.75380  Biso   1.000  H
  H11      1.0000 0.70470  0.64900  0.78380  Biso   1.000  H
  H12      1.0000 0.75310  0.74140  0.79330  Biso   1.000  H
  C22      1.0000 0.79460  0.90180  0.01840  Biso   1.000  C
  H13      1.0000 0.82510  0.95770  0.02190  Biso   1.000  H
  H14      1.0000 0.80750  0.88920  0.04850  Biso   1.000  H
  H15      1.0000 0.73130  0.89060  0.01210  Biso   1.000  H
  C23      1.0000 0.75830  0.85880  0.88400  Biso   1.000  C
  C24      1.0000 0.84750  0.88650  0.87170  Biso   1.000  C
  C25      1.0000 0.87360  0.95350  0.85270  Biso   1.000  C
  C26      1.0000 0.81290  0.99050  0.84700  Biso   1.000  C
  H16      1.0000 0.83160  0.03610  0.83560  Biso   1.000  H
  C27      1.0000 0.72450  0.96480  0.85710  Biso   1.000  C
  C28      1.0000 0.70150  0.90070  0.87740  Biso   1.000  C
  C29      1.0000 0.98320  0.88570  0.91080  Biso   1.000  C
  H17      1.0000 0.01490  0.84920  0.91270  Biso   1.000  H
  H18      1.0000 0.96810  0.90740  0.94320  Biso   1.000  H
  H19      1.0000 0.02030  0.92860  0.89900  Biso   1.000  H
  C30      1.0000 0.53500  0.82890  0.84920  Biso   1.000  C
  H20      1.0000 0.48310  0.80430  0.86370  Biso   1.000  H
  H21      1.0000 0.54940  0.78820  0.82480  Biso   1.000  H
  H22      1.0000 0.52290  0.86630  0.83350  Biso   1.000  H
  C31      1.0000 0.96350  0.98180  0.83430  Biso   1.000  C
  C32      1.0000 0.99450  0.92940  0.79990  Biso   1.000  C
  H23      1.0000 0.96390  0.87450  0.79090  Biso   1.000  H
  C33      1.0000 0.07200  0.95980  0.77890  Biso   1.000  C
  H24      1.0000 0.09400  0.92490  0.75640  Biso   1.000  H
  C34      1.0000 0.11680  0.04250  0.79130  Biso   1.000  C
  C35      1.0000 0.08460  0.09430  0.82740  Biso   1.000  C
  H25      1.0000 0.11500  0.14930  0.83690  Biso   1.000  H
  C36      1.0000 0.00920  0.06390  0.84840  Biso   1.000  C
  H26      1.0000 0.98840  0.09820  0.87210  Biso   1.000  H
  C37      1.0000 0.19960  0.07530  0.76960  Biso   1.000  C
  C38      1.0000 0.66150  0.00590  0.84350  Biso   1.000  C
  C39      1.0000 0.66640  0.02150  0.79790  Biso   1.000  C
  H27      1.0000 0.70990  0.00960  0.77850  Biso   1.000  H
  C40      1.0000 0.60940  0.05380  0.78020  Biso   1.000  C
  H28      1.0000 0.61330  0.06300  0.74900  Biso   1.000  H
  C41      1.0000 0.54470  0.07310  0.80950  Biso   1.000  C
  C42      1.0000 0.54230  0.06120  0.85550  Biso   1.000  C
  H29      1.0000 0.50180  0.07610  0.87610  Biso   1.000  H
  C43      1.0000 0.60230  0.02540  0.87220  Biso   1.000  C
  H30      1.0000 0.59960  0.01590  0.90340  Biso   1.000  H
  C44      1.0000 0.47680  0.10460  0.78970  Biso   1.000  C
  C45      1.0000 0.17420  0.43210  0.74480  Biso   1.000  C
  C46      1.0000 0.25620  0.46720  0.71870  Biso   1.000  C
  C47      1.0000 0.28680  0.41910  0.68590  Biso   1.000  C
  H31      1.0000 0.25470  0.36450  0.67600  Biso   1.000  H
  C48      1.0000 0.36550  0.44680  0.66550  Biso   1.000  C
  H32      1.0000 0.38470  0.41160  0.64150  Biso   1.000  H
  C49      1.0000 0.41580  0.52920  0.68180  Biso   1.000  C
  C50      1.0000 0.37930  0.58000  0.71370  Biso   1.000  C
  H33      1.0000 0.40800  0.63530  0.72200  Biso   1.000  H
  C51      1.0000 0.30180  0.55000  0.73310  Biso   1.000  C
  H34      1.0000 0.27950  0.58450  0.75580  Biso   1.000  H
  C52      1.0000 0.50490  0.55860  0.66650  Biso   1.000  C
  C53      1.0000 0.56880  0.52490  0.67660  Biso   1.000  C
  H35      1.0000 0.55110  0.48020  0.68880  Biso   1.000  H
  C54      1.0000 0.65960  0.55580  0.66900  Biso   1.000  C
  C55      1.0000 0.68260  0.61770  0.64760  Biso   1.000  C
  C56      1.0000 0.62160  0.65450  0.63630  Biso   1.000  C
  C57      1.0000 0.53350  0.62340  0.64550  Biso   1.000  C
  C58      1.0000 0.40680  0.61830  0.59340  Biso   1.000  C
  H36      1.0000 0.37060  0.65040  0.58900  Biso   1.000  H
  H37      1.0000 0.36950  0.56890  0.59850  Biso   1.000  H
  H38      1.0000 0.43640  0.60680  0.56420  Biso   1.000  H
  C59      1.0000 0.83340  0.69890  0.67880  Biso   1.000  C
  H39      1.0000 0.89230  0.71140  0.66830  Biso   1.000  H
  H40      1.0000 0.83100  0.67150  0.70410  Biso   1.000  H
  H41      1.0000 0.82000  0.74760  0.69180  Biso   1.000  H
  C60      1.0000 0.72180  0.51850  0.68510  Biso   1.000  C
  C61      1.0000 0.71650  0.50320  0.73190  Biso   1.000  C
  H42      1.0000 0.67080  0.51140  0.75050  Biso   1.000  H
  C62      1.0000 0.78110  0.47500  0.75050  Biso   1.000  C
  H43      1.0000 0.77910  0.46750  0.78220  Biso   1.000  H
  C63      1.0000 0.84600  0.45890  0.72290  Biso   1.000  C
  C64      1.0000 0.85130  0.47040  0.67470  Biso   1.000  C
  H44      1.0000 0.89490  0.45880  0.65530  Biso   1.000  H
  C65      1.0000 0.78600  0.50110  0.65700  Biso   1.000  C
  H45      1.0000 0.78780  0.50910  0.62540  Biso   1.000  H
  C66      1.0000 0.91290  0.42800  0.74320  Biso   1.000  C
  C67      1.0000 0.64970  0.72640  0.61750  Biso   1.000  C
  C68      1.0000 0.68650  0.80160  0.65150  Biso   1.000  C
  C69      1.0000 0.71130  0.87250  0.63740  Biso   1.000  C
  C70      1.0000 0.69700  0.86510  0.58740  Biso   1.000  C
  H46      1.0000 0.71130  0.91200  0.57740  Biso   1.000  H
  C71      1.0000 0.66300  0.79320  0.55140  Biso   1.000  C
  C72      1.0000 0.64000  0.72290  0.56780  Biso   1.000  C
  C73      1.0000 0.62440  0.82260  0.72850  Biso   1.000  C
  H47      1.0000 0.63690  0.82720  0.76320  Biso   1.000  H
  H48      1.0000 0.56880  0.78050  0.71530  Biso   1.000  H
  H49      1.0000 0.62010  0.87250  0.72500  Biso   1.000  H
  C74      1.0000 0.63680  0.58950  0.52530  Biso   1.000  C
  H50      1.0000 0.62680  0.55890  0.49100  Biso   1.000  H
  H51      1.0000 0.61060  0.55490  0.54550  Biso   1.000  H
  H52      1.0000 0.70000  0.61340  0.53550  Biso   1.000  H
  C75      1.0000 0.76130  0.95350  0.67100  Biso   1.000  C
  C76      1.0000 0.83500  0.96560  0.70450  Biso   1.000  C
  H53      1.0000 0.84400  0.92160  0.71210  Biso   1.000  H
  C77      1.0000 0.89380  0.04040  0.72600  Biso   1.000  C
  H54      1.0000 0.94710  0.04630  0.74380  Biso   1.000  H
  C78      1.0000 0.87450  0.10830  0.72150  Biso   1.000  C
  C79      1.0000 0.79580  0.09760  0.69240  Biso   1.000  C
  H55      1.0000 0.78000  0.14200  0.69040  Biso   1.000  H
  C80      1.0000 0.74130  0.02060  0.66650  Biso   1.000  C
  H56      1.0000 0.69090  0.01410  0.64590  Biso   1.000  H
  C81      1.0000 0.93990  0.18910  0.74100  Biso   1.000  C
  C82      1.0000 0.65860  0.79370  0.49870  Biso   1.000  C
  C83      1.0000 0.70540  0.75270  0.46500  Biso   1.000  C
  H57      1.0000 0.73050  0.71780  0.47430  Biso   1.000  H
  C84      1.0000 0.71350  0.76440  0.41930  Biso   1.000  C
  H58      1.0000 0.74610  0.73850  0.39800  Biso   1.000  H
  C85      1.0000 0.67460  0.81420  0.40290  Biso   1.000  C
  C86      1.0000 0.62590  0.85170  0.43530  Biso   1.000  C
  H59      1.0000 0.59710  0.88340  0.42490  Biso   1.000  H
  C87      1.0000 0.61950  0.84290  0.48260  Biso   1.000  C
  H60      1.0000 0.58860  0.87040  0.50400  Biso   1.000  H
  C88      1.0000 0.68560  0.82690  0.35270  Biso   1.000  C
  Sm1      1.0000 0.83018  0.76644  0.26823  Biso   1.000  Sm
  Cd4      1.0000 0.64125  0.85329  0.25865  Biso   1.000  Cd
  Cd5      1.0000 0.97731  0.63390  0.21743  Biso   1.000  Cd
  O25      1.0000 0.68510  0.67310  0.23420  Biso   1.000  O
  O26      1.0000 0.57630  0.72430  0.23480  Biso   1.000  O
  O27      1.0000 0.16440  0.29810  0.81540  Biso   1.000  O
  O28      1.0000 0.06680  0.35400  0.85330  Biso   1.000  O
  O29      1.0000 0.75700  0.96720  0.25290  Biso   1.000  O
  O30      1.0000 0.77610  0.84460  0.22430  Biso   1.000  O
  O31      1.0000 0.52550  0.89870  0.25700  Biso   1.000  O
  O32      1.0000 0.57410  0.87030  0.18350  Biso   1.000  O
  O33      1.0000 0.36070  0.28410  0.17650  Biso   1.000  O
  O34      1.0000 0.17600  0.14510  0.02150  Biso   1.000  O
  O35      1.0000 0.38670  0.12720  0.11040  Biso   1.000  O
  O36      1.0000 0.09900  0.15710  0.12370  Biso   1.000  O
  O37      1.0000 0.52640  0.33780  0.36350  Biso   1.000  O
  O38      1.0000 0.22990  0.35110  0.36230  Biso   1.000  O
  O39      1.0000 0.40290  0.34920  0.46880  Biso   1.000  O
  O40      1.0000 0.30450  0.19580  0.29820  Biso   1.000  O
  O41      1.0000 0.85030  0.52370  0.22440  Biso   1.000  O
  O42      1.0000 0.86190  0.64440  0.26798  Biso   1.000  O
  O43      1.0000 0.08460  0.57270  0.21220  Biso   1.000  O
  O44      1.0000 0.03420  0.59580  0.28600  Biso   1.000  O
  O45      1.0000 0.97940  0.80430  0.25110  Biso   1.000  O
  O46      1.0000 0.08830  0.75240  0.24990  Biso   1.000  O
  O47      1.0000 0.27150  0.21130  0.67530  Biso   1.000  O
  O48      1.0000 0.35080  0.12730  0.65970  Biso   1.000  O
  C89      1.0000 0.60420  0.66560  0.22520  Biso   1.000  C
  C90      1.0000 0.53890  0.58480  0.20070  Biso   1.000  C
  C91      1.0000 0.45550  0.57850  0.18010  Biso   1.000  C
  H61      1.0000 0.43990  0.62480  0.18410  Biso   1.000  H
  C92      1.0000 0.39470  0.50520  0.15390  Biso   1.000  C
  H62      1.0000 0.34000  0.50340  0.13970  Biso   1.000  H
  C93      1.0000 0.41410  0.43290  0.14810  Biso   1.000  C
  C94      1.0000 0.49920  0.44070  0.17180  Biso   1.000  C
  H63      1.0000 0.51350  0.39460  0.17130  Biso   1.000  H
  C95      1.0000 0.56020  0.51450  0.19520  Biso   1.000  C
  H64      1.0000 0.61680  0.51770  0.20760  Biso   1.000  H
  C96      1.0000 0.35370  0.35700  0.11610  Biso   1.000  C
  C97      1.0000 0.31770  0.35590  0.07130  Biso   1.000  C
  H65      1.0000 0.33270  0.40350  0.06200  Biso   1.000  H
  C98      1.0000 0.25930  0.28660  0.03850  Biso   1.000  C
  C99      1.0000 0.23790  0.21570  0.05290  Biso   1.000  C
  C100     1.0000 0.27060  0.21530  0.09790  Biso   1.000  C
  C101     1.0000 0.32620  0.28440  0.12930  Biso   1.000  C
  C102     1.0000 0.22370  0.29090  0.98870  Biso   1.000  C
  C103     1.0000 0.26520  0.27940  0.94670  Biso   1.000  C
  H66      1.0000 0.31660  0.26470  0.94690  Biso   1.000  H
  C104     1.0000 0.23170  0.28960  0.90440  Biso   1.000  C
  H67      1.0000 0.26220  0.28160  0.87660  Biso   1.000  H
  C105     1.0000 0.16020  0.30950  0.89970  Biso   1.000  C
  C106     1.0000 0.11320  0.31410  0.93850  Biso   1.000  C
  H68      1.0000 0.05810  0.32170  0.93530  Biso   1.000  H
  C107     1.0000 0.14530  0.30760  0.98480  Biso   1.000  C
  H69      1.0000 0.11340  0.31460  0.01210  Biso   1.000  H
  C108     1.0000 0.12770  0.32540  0.85490  Biso   1.000  C
  C109     1.0000 0.30380  0.30050  0.21460  Biso   1.000  C
  H70      1.0000 0.33140  0.30280  0.24620  Biso   1.000  H
  H71      1.0000 0.29530  0.35100  0.21620  Biso   1.000  H
  H72      1.0000 0.24690  0.25860  0.20670  Biso   1.000  H
  C110     1.0000 0.20540  0.09820  0.98160  Biso   1.000  C
  H73      1.0000 0.17490  0.04230  0.97810  Biso   1.000  H
  H74      1.0000 0.19250  0.11080  0.95150  Biso   1.000  H
  H75      1.0000 0.26870  0.10940  0.98790  Biso   1.000  H
  C111     1.0000 0.24170  0.14120  0.11600  Biso   1.000  C
  C112     1.0000 0.15250  0.11350  0.12830  Biso   1.000  C
  C113     1.0000 0.12640  0.04650  0.14730  Biso   1.000  C
  C114     1.0000 0.18710  0.00950  0.15300  Biso   1.000  C
  H76      1.0000 0.16840  0.96390  0.16440  Biso   1.000  H
  C115     1.0000 0.27550  0.03520  0.14290  Biso   1.000  C
  C116     1.0000 0.29850  0.09930  0.12260  Biso   1.000  C
  C117     1.0000 0.01680  0.11430  0.08920  Biso   1.000  C
  H77      1.0000 0.98510  0.15080  0.08730  Biso   1.000  H
  H78      1.0000 0.03190  0.09260  0.05680  Biso   1.000  H
  H79      1.0000 0.97970  0.07140  0.10100  Biso   1.000  H
  C118     1.0000 0.46500  0.17110  0.15080  Biso   1.000  C
  H80      1.0000 0.51690  0.19570  0.13630  Biso   1.000  H
  H81      1.0000 0.45060  0.21180  0.17520  Biso   1.000  H
  H82      1.0000 0.47710  0.13370  0.16650  Biso   1.000  H
  C119     1.0000 0.03650  0.01820  0.16570  Biso   1.000  C
  C120     1.0000 0.00550  0.07060  0.20010  Biso   1.000  C
  H83      1.0000 0.03610  0.12550  0.20910  Biso   1.000  H
  C121     1.0000 0.92800  0.04020  0.22110  Biso   1.000  C
  H84      1.0000 0.90600  0.07510  0.24360  Biso   1.000  H
  C122     1.0000 0.88320  0.95750  0.20870  Biso   1.000  C
  C123     1.0000 0.91540  0.90570  0.17260  Biso   1.000  C
  H85      1.0000 0.88500  0.85070  0.16310  Biso   1.000  H
  C124     1.0000 0.99080  0.93610  0.15160  Biso   1.000  C
  H86      1.0000 0.01160  0.90180  0.12790  Biso   1.000  H
  C125     1.0000 0.80040  0.92470  0.23040  Biso   1.000  C
  C126     1.0000 0.33850  0.99410  0.15650  Biso   1.000  C
  C127     1.0000 0.33360  0.97850  0.20210  Biso   1.000  C
  H87      1.0000 0.29010  0.99040  0.22150  Biso   1.000  H
  C128     1.0000 0.39060  0.94620  0.21980  Biso   1.000  C
  H88      1.0000 0.38670  0.93700  0.25100  Biso   1.000  H
  C129     1.0000 0.45530  0.92690  0.19050  Biso   1.000  C
  C130     1.0000 0.45770  0.93880  0.14450  Biso   1.000  C
  H89      1.0000 0.49820  0.92390  0.12390  Biso   1.000  H
  C131     1.0000 0.39770  0.97460  0.12780  Biso   1.000  C
  H90      1.0000 0.40040  0.98410  0.09660  Biso   1.000  H
  C132     1.0000 0.52320  0.89540  0.21030  Biso   1.000  C
  C133     1.0000 0.82580  0.56790  0.25520  Biso   1.000  C
  C134     1.0000 0.74380  0.53280  0.28130  Biso   1.000  C
  C135     1.0000 0.71320  0.58090  0.31410  Biso   1.000  C
  H91      1.0000 0.74530  0.63550  0.32400  Biso   1.000  H
  C136     1.0000 0.63450  0.55320  0.33450  Biso   1.000  C
  H92      1.0000 0.61530  0.58840  0.35850  Biso   1.000  H
  C137     1.0000 0.58420  0.47080  0.31820  Biso   1.000  C
  C138     1.0000 0.62070  0.42000  0.28630  Biso   1.000  C
  H93      1.0000 0.59200  0.36470  0.27800  Biso   1.000  H
  C139     1.0000 0.69820  0.45000  0.26690  Biso   1.000  C
  H94      1.0000 0.72050  0.41550  0.24420  Biso   1.000  H
  C140     1.0000 0.49510  0.44140  0.33350  Biso   1.000  C
  C141     1.0000 0.43120  0.47510  0.32340  Biso   1.000  C
  H95      1.0000 0.44890  0.51980  0.31120  Biso   1.000  H
  C142     1.0000 0.34040  0.44420  0.33100  Biso   1.000  C
  C143     1.0000 0.31740  0.38230  0.35240  Biso   1.000  C
  C144     1.0000 0.37840  0.34550  0.36370  Biso   1.000  C
  C145     1.0000 0.46650  0.37660  0.35450  Biso   1.000  C
  C146     1.0000 0.59320  0.38170  0.40660  Biso   1.000  C
  H96      1.0000 0.62940  0.34960  0.41100  Biso   1.000  H
  H97      1.0000 0.63050  0.43110  0.40150  Biso   1.000  H
  H98      1.0000 0.56360  0.39320  0.43580  Biso   1.000  H
  C147     1.0000 0.16660  0.30110  0.32120  Biso   1.000  C
  H99      1.0000 0.10770  0.28860  0.33170  Biso   1.000  H
  H100     1.0000 0.16900  0.32850  0.29590  Biso   1.000  H
  H101     1.0000 0.18000  0.25240  0.30820  Biso   1.000  H
  C148     1.0000 0.27820  0.48150  0.31490  Biso   1.000  C
  C149     1.0000 0.28350  0.49680  0.26810  Biso   1.000  C
  H102     1.0000 0.32920  0.48860  0.24950  Biso   1.000  H
  C150     1.0000 0.21890  0.52500  0.24950  Biso   1.000  C
  H103     1.0000 0.22090  0.53250  0.21780  Biso   1.000  H
  C151     1.0000 0.15400  0.54110  0.27710  Biso   1.000  C
  C152     1.0000 0.14870  0.52960  0.32530  Biso   1.000  C
  H104     1.0000 0.10510  0.54120  0.34470  Biso   1.000  H
  C153     1.0000 0.21400  0.49890  0.34300  Biso   1.000  C
  H105     1.0000 0.21220  0.49090  0.37460  Biso   1.000  H
  C154     1.0000 0.08710  0.57200  0.25680  Biso   1.000  C
  C155     1.0000 0.35030  0.27360  0.38250  Biso   1.000  C
  C156     1.0000 0.31350  0.19840  0.34850  Biso   1.000  C
  C157     1.0000 0.28870  0.12750  0.36260  Biso   1.000  C
  C158     1.0000 0.30300  0.13490  0.41260  Biso   1.000  C
  H106     1.0000 0.28870  0.08800  0.42260  Biso   1.000  H
  C159     1.0000 0.33700  0.20680  0.44860  Biso   1.000  C
  C160     1.0000 0.36000  0.27710  0.43220  Biso   1.000  C
  C161     1.0000 0.37560  0.17740  0.27150  Biso   1.000  C
  H107     1.0000 0.36310  0.17280  0.23680  Biso   1.000  H
  H108     1.0000 0.43120  0.21950  0.28470  Biso   1.000  H
  H109     1.0000 0.37990  0.12750  0.27500  Biso   1.000  H
  C162     1.0000 0.36320  0.41050  0.47470  Biso   1.000  C
  H110     1.0000 0.37320  0.44110  0.50900  Biso   1.000  H
  H111     1.0000 0.38940  0.44510  0.45450  Biso   1.000  H
  H112     1.0000 0.30000  0.38660  0.46450  Biso   1.000  H
  C163     1.0000 0.23870  0.04650  0.32900  Biso   1.000  C
  C164     1.0000 0.16500  0.03440  0.29550  Biso   1.000  C
  H113     1.0000 0.15600  0.07840  0.28790  Biso   1.000  H
  C165     1.0000 0.10620  0.95960  0.27400  Biso   1.000  C
  H114     1.0000 0.05290  0.95370  0.25620  Biso   1.000  H
  C166     1.0000 0.12550  0.89170  0.27850  Biso   1.000  C
  C167     1.0000 0.20420  0.90240  0.30760  Biso   1.000  C
  H115     1.0000 0.22000  0.85800  0.30960  Biso   1.000  H
  C168     1.0000 0.25870  0.97940  0.33350  Biso   1.000  C
  H116     1.0000 0.30910  0.98590  0.35410  Biso   1.000  H
  C169     1.0000 0.06010  0.81090  0.25900  Biso   1.000  C
  C170     1.0000 0.34140  0.20630  0.50130  Biso   1.000  C
  C171     1.0000 0.29460  0.24730  0.53500  Biso   1.000  C
  H117     1.0000 0.26950  0.28220  0.52570  Biso   1.000  H
  C172     1.0000 0.28650  0.23560  0.58070  Biso   1.000  C
  H118     1.0000 0.25390  0.26150  0.60200  Biso   1.000  H
  C173     1.0000 0.32540  0.18580  0.59710  Biso   1.000  C
  C174     1.0000 0.37410  0.14830  0.56470  Biso   1.000  C
  H119     1.0000 0.40290  0.11660  0.57510  Biso   1.000  H
  C175     1.0000 0.38050  0.15710  0.51740  Biso   1.000  C
  H120     1.0000 0.41140  0.12960  0.49600  Biso   1.000  H
  C176     1.0000 0.31440  0.17310  0.64730  Biso   1.000  C
