data_image0
_cell_length_a       15.89
_cell_length_b       18.596
_cell_length_c       28.5
_cell_angle_alpha    101.979
_cell_angle_beta     94.414
_cell_angle_gamma    108.931

_symmetry_space_group_name_H-M    "P 1"
_symmetry_int_tables_number       1

loop_
  _symmetry_equiv_pos_as_xyz
  'x, y, z'

loop_
  _atom_site_label
  _atom_site_occupancy
  _atom_site_fract_x
  _atom_site_fract_y
  _atom_site_fract_z
  _atom_site_thermal_displace_type
  _atom_site_B_iso_or_equiv
  _atom_site_type_symbol
  Cd1      1.0000 0.38683  0.14532  0.23916  Biso   1.000  Cd
  Cd2      1.0000 0.04015  0.35104  0.26962  Biso   1.000  Cd
  C1       1.0000 0.89860  0.09630  0.21380  Biso   1.000  C
  C2       1.0000 0.81610  0.08440  0.18770  Biso   1.000  C
  H1       1.0000 0.79830  0.12710  0.18680  Biso   1.000  H
  C3       1.0000 0.75910  0.00890  0.16260  Biso   1.000  C
  H2       1.0000 0.70570  0.00230  0.14350  Biso   1.000  H
  C4       1.0000 0.78160  0.94400  0.16600  Biso   1.000  C
  C5       1.0000 0.85820  0.95650  0.19690  Biso   1.000  C
  H3       1.0000 0.87080  0.91340  0.20270  Biso   1.000  H
  C6       1.0000 0.91800  0.03130  0.21990  Biso   1.000  C
  H4       1.0000 0.97090  0.03760  0.23930  Biso   1.000  H
  C7       1.0000 0.72910  0.86580  0.13310  Biso   1.000  C
  C8       1.0000 0.71090  0.85920  0.08380  Biso   1.000  C
  H5       1.0000 0.72640  0.90520  0.07330  Biso   1.000  H
  C9       1.0000 0.67230  0.79060  0.04990  Biso   1.000  C
  C10      1.0000 0.64820  0.71770  0.06470  Biso   1.000  C
  C11      1.0000 0.66520  0.72080  0.11430  Biso   1.000  C
  C12      1.0000 0.70580  0.79370  0.14700  Biso   1.000  C
  C13      1.0000 0.66080  0.79100  0.99680  Biso   1.000  C
  C14      1.0000 0.61920  0.83860  0.98260  Biso   1.000  C
  H6       1.0000 0.59050  0.86390  0.00400  Biso   1.000  H
  C15      1.0000 0.62060  0.84820  0.93560  Biso   1.000  C
  H7       1.0000 0.59250  0.88060  0.92580  Biso   1.000  H
  C16      1.0000 0.66120  0.81220  0.90410  Biso   1.000  C
  C17      1.0000 0.70400  0.76500  0.91790  Biso   1.000  C
  H8       1.0000 0.73260  0.74070  0.89590  Biso   1.000  H
  C18      1.0000 0.70530  0.75220  0.96620  Biso   1.000  C
  H9       1.0000 0.73390  0.72040  0.97620  Biso   1.000  H
  C19      1.0000 0.66700  0.82000  0.85300  Biso   1.000  C
  C20      1.0000 0.64930  0.58980  0.02390  Biso   1.000  C
  H10      1.0000 0.65710  0.57640  0.99050  Biso   1.000  H
  H11      1.0000 0.61190  0.54380  0.03240  Biso   1.000  H
  H12      1.0000 0.70700  0.61020  0.04430  Biso   1.000  H
  C21      1.0000 0.65930  0.81220  0.22300  Biso   1.000  C
  H13      1.0000 0.67440  0.81210  0.25630  Biso   1.000  H
  H14      1.0000 0.60120  0.77310  0.20970  Biso   1.000  H
  H15      1.0000 0.65790  0.86290  0.22130  Biso   1.000  H
  C22      1.0000 0.42240  0.61770  0.09310  Biso   1.000  C
  H16      1.0000 0.38050  0.64480  0.09180  Biso   1.000  H
  H17      1.0000 0.39120  0.56530  0.09570  Biso   1.000  H
  H18      1.0000 0.44930  0.61560  0.06410  Biso   1.000  H
  C23      1.0000 0.63720  0.64840  0.13360  Biso   1.000  C
  C24      1.0000 0.55060  0.61890  0.14360  Biso   1.000  C
  C25      1.0000 0.52410  0.55530  0.16410  Biso   1.000  C
  C26      1.0000 0.58950  0.51910  0.17350  Biso   1.000  C
  H19      1.0000 0.57250  0.47450  0.18550  Biso   1.000  H
  C27      1.0000 0.67680  0.54970  0.16480  Biso   1.000  C
  C28      1.0000 0.70070  0.61410  0.14520  Biso   1.000  C
  C29      1.0000 0.43280  0.52330  0.17790  Biso   1.000  C
  C30      1.0000 0.38520  0.44300  0.16450  Biso   1.000  C
  H20      1.0000 0.40630  0.41030  0.14310  Biso   1.000  H
  C31      1.0000 0.30700  0.41080  0.18260  Biso   1.000  C
  H21      1.0000 0.27650  0.35690  0.17350  Biso   1.000  H
  C32      1.0000 0.39930  0.57190  0.20840  Biso   1.000  C
  H22      1.0000 0.42850  0.62590  0.21500  Biso   1.000  H
  C33      1.0000 0.32480  0.54300  0.22910  Biso   1.000  C
  H23      1.0000 0.30660  0.57600  0.25200  Biso   1.000  H
  C34      1.0000 0.27410  0.45830  0.21410  Biso   1.000  C
  C35      1.0000 0.20010  0.42800  0.23860  Biso   1.000  C
  C36      1.0000 0.74090  0.51120  0.18080  Biso   1.000  C
  C37      1.0000 0.74210  0.49380  0.22410  Biso   1.000  C
  H24      1.0000 0.70020  0.50290  0.24340  Biso   1.000  H
  C38      1.0000 0.80040  0.46420  0.24060  Biso   1.000  C
  H25      1.0000 0.79870  0.45410  0.27120  Biso   1.000  H
  C39      1.0000 0.86560  0.44750  0.21290  Biso   1.000  C
  C40      1.0000 0.86110  0.46270  0.16780  Biso   1.000  C
  H26      1.0000 0.90060  0.45090  0.14760  Biso   1.000  H
  C41      1.0000 0.80220  0.49390  0.15140  Biso   1.000  C
  H27      1.0000 0.80220  0.50380  0.12070  Biso   1.000  H
  C42      1.0000 0.93450  0.41100  0.22970  Biso   1.000  C
  C43      1.0000 0.22790  0.06680  0.26840  Biso   1.000  C
  C44      1.0000 0.11260  0.08610  0.32060  Biso   1.000  C
  H28      1.0000 0.14100  0.14030  0.32880  Biso   1.000  H
  C45      1.0000 0.03940  0.05480  0.33920  Biso   1.000  C
  H29      1.0000 0.01850  0.08760  0.36060  Biso   1.000  H
  C46      1.0000 0.99220  0.97250  0.32740  Biso   1.000  C
  C47      1.0000 0.02780  0.92640  0.29830  Biso   1.000  C
  H30      1.0000 0.00000  0.87220  0.29170  Biso   1.000  H
  C48      1.0000 0.10170  0.95590  0.27880  Biso   1.000  C
  H31      1.0000 0.12350  0.92230  0.25850  Biso   1.000  H
  C49      1.0000 0.90370  0.94230  0.34390  Biso   1.000  C
  C50      1.0000 0.84130  0.97830  0.33610  Biso   1.000  C
  H32      1.0000 0.85920  0.02130  0.32270  Biso   1.000  H
  C51      1.0000 0.75150  0.95400  0.34740  Biso   1.000  C
  C52      1.0000 0.72690  0.88650  0.36690  Biso   1.000  C
  C53      1.0000 0.79020  0.85060  0.37490  Biso   1.000  C
  C54      1.0000 0.87220  0.87630  0.36400  Biso   1.000  C
  C55      1.0000 0.01340  0.87980  0.40720  Biso   1.000  C
  H33      1.0000 0.06400  0.86830  0.39580  Biso   1.000  H
  H34      1.0000 0.00440  0.86480  0.43720  Biso   1.000  H
  H35      1.0000 0.02470  0.93500  0.41230  Biso   1.000  H
  C56      1.0000 0.69300  0.99270  0.33260  Biso   1.000  C
  C57      1.0000 0.68950  0.00950  0.28620  Biso   1.000  C
  H36      1.0000 0.72710  0.99560  0.26550  Biso   1.000  H
  C58      1.0000 0.63360  0.04490  0.27080  Biso   1.000  C
  H37      1.0000 0.63630  0.05620  0.24060  Biso   1.000  H
  C59      1.0000 0.57150  0.06500  0.29910  Biso   1.000  C
  C60      1.0000 0.57530  0.04960  0.34840  Biso   1.000  C
  H38      1.0000 0.53920  0.06470  0.36980  Biso   1.000  H
  C61      1.0000 0.63230  0.01300  0.36200  Biso   1.000  C
  H39      1.0000 0.63090  0.00100  0.39210  Biso   1.000  H
  C62      1.0000 0.74170  0.68950  0.28070  Biso   1.000  C
  H40      1.0000 0.71440  0.68010  0.24780  Biso   1.000  H
  H41      1.0000 0.75500  0.64430  0.28510  Biso   1.000  H
  H42      1.0000 0.79640  0.73420  0.28780  Biso   1.000  H
  C63      1.0000 0.80430  0.89990  0.49500  Biso   1.000  C
  H43      1.0000 0.83770  0.95190  0.49270  Biso   1.000  H
  H44      1.0000 0.80570  0.89870  0.52860  Biso   1.000  H
  H45      1.0000 0.74310  0.88490  0.47990  Biso   1.000  H
  C64      1.0000 0.75750  0.77530  0.39440  Biso   1.000  C
  C65      1.0000 0.70520  0.70590  0.36270  Biso   1.000  C
  C66      1.0000 0.68220  0.63480  0.37560  Biso   1.000  C
  C67      1.0000 0.70970  0.63660  0.42410  Biso   1.000  C
  H46      1.0000 0.69400  0.59060  0.43470  Biso   1.000  H
  C68      1.0000 0.76070  0.70810  0.45610  Biso   1.000  C
  C69      1.0000 0.79040  0.77840  0.43950  Biso   1.000  C
  C70      1.0000 0.79040  0.70540  0.50670  Biso   1.000  C
  C71      1.0000 0.74990  0.73460  0.54380  Biso   1.000  C
  H47      1.0000 0.70940  0.75930  0.53750  Biso   1.000  H
  C72      1.0000 0.76970  0.72700  0.59040  Biso   1.000  C
  H48      1.0000 0.73950  0.74460  0.61440  Biso   1.000  H
  C73      1.0000 0.82920  0.69580  0.60200  Biso   1.000  C
  C74      1.0000 0.87240  0.67460  0.56760  Biso   1.000  C
  H49      1.0000 0.92180  0.66100  0.57630  Biso   1.000  H
  C75      1.0000 0.84880  0.67080  0.51700  Biso   1.000  C
  H50      1.0000 0.87300  0.64560  0.49280  Biso   1.000  H
  C76      1.0000 0.85460  0.69130  0.65540  Biso   1.000  C
  C77      1.0000 0.62090  0.55820  0.34380  Biso   1.000  C
  C78      1.0000 0.54230  0.55060  0.31680  Biso   1.000  C
  H51      1.0000 0.53110  0.59550  0.31350  Biso   1.000  H
  C79      1.0000 0.47780  0.47690  0.29370  Biso   1.000  C
  H52      1.0000 0.42240  0.47320  0.27810  Biso   1.000  H
  C80      1.0000 0.49690  0.40990  0.29430  Biso   1.000  C
  C81      1.0000 0.58270  0.41740  0.31730  Biso   1.000  C
  H53      1.0000 0.59870  0.37310  0.31490  Biso   1.000  H
  C82      1.0000 0.64130  0.48770  0.34250  Biso   1.000  C
  H54      1.0000 0.69550  0.49090  0.35930  Biso   1.000  H
  C83      1.0000 0.42740  0.32480  0.27030  Biso   1.000  C
  C84      1.0000 0.51010  0.09800  0.28180  Biso   1.000  C
  O1       1.0000 0.93760  0.41030  0.27480  Biso   1.000  O
  O2       1.0000 0.97440  0.38610  0.20050  Biso   1.000  O
  O3       1.0000 0.16530  0.46740  0.26630  Biso   1.000  O
  O4       1.0000 0.16170  0.34840  0.22810  Biso   1.000  O
  O5       1.0000 0.25660  0.14930  0.27180  Biso   1.000  O
  O6       1.0000 0.27060  0.03250  0.24630  Biso   1.000  O
  O7       1.0000 0.70370  0.78950  0.82470  Biso   1.000  O
  O8       1.0000 0.62320  0.86900  0.84040  Biso   1.000  O
  O9       1.0000 0.34590  0.32180  0.26470  Biso   1.000  O
  O10      1.0000 0.45020  0.27200  0.26260  Biso   1.000  O
  O11      1.0000 0.50040  0.09840  0.23880  Biso   1.000  O
  O12      1.0000 0.45830  0.12340  0.30820  Biso   1.000  O
  O13      1.0000 0.91430  0.66170  0.65880  Biso   1.000  O
  O14      1.0000 0.81130  0.71360  0.68420  Biso   1.000  O
  O15      1.0000 0.49070  0.65820  0.13430  Biso   1.000  O
  O16      1.0000 0.78570  0.64530  0.13340  Biso   1.000  O
  O17      1.0000 0.60660  0.64900  0.03080  Biso   1.000  O
  O18      1.0000 0.72630  0.79490  0.19550  Biso   1.000  O
  O19      1.0000 0.68070  0.70460  0.31300  Biso   1.000  O
  O20      1.0000 0.84300  0.84760  0.47170  Biso   1.000  O
  O21      1.0000 0.64250  0.85980  0.37890  Biso   1.000  O
  O22      1.0000 0.93210  0.83580  0.37080  Biso   1.000  O
  O23      1.0000 0.92940  0.23570  0.23910  Biso   1.000  O
  C85      1.0000 0.95730  0.17890  0.23500  Biso   1.000  C
  O24      1.0000 0.04520  0.19200  0.24620  Biso   1.000  O
  C86      1.0000 0.56690  0.82020  0.34020  Biso   1.000  C
  H55      1.0000 0.51170  0.81340  0.35340  Biso   1.000  H
  H56      1.0000 0.56880  0.76990  0.32470  Biso   1.000  H
  H57      1.0000 0.56980  0.85110  0.31690  Biso   1.000  H
  C87      1.0000 0.85380  0.69170  0.17620  Biso   1.000  C
  H58      1.0000 0.91130  0.71210  0.16610  Biso   1.000  H
  H59      1.0000 0.85740  0.65900  0.19770  Biso   1.000  H
  H60      1.0000 0.83710  0.73440  0.19270  Biso   1.000  H
  C88      1.0000 0.14750  0.03980  0.28920  Biso   1.000  C
  Pr1      1.0000 0.80535  0.77110  0.76876  Biso   1.000  Pr
  Cd3      1.0000 0.61317  0.85468  0.76084  Biso   1.000  Cd
  Cd4      1.0000 0.95985  0.64896  0.73038  Biso   1.000  Cd
  C89      1.0000 0.10140  0.90370  0.78620  Biso   1.000  C
  C90      1.0000 0.18390  0.91560  0.81230  Biso   1.000  C
  H61      1.0000 0.20170  0.87290  0.81320  Biso   1.000  H
  C91      1.0000 0.24090  0.99110  0.83740  Biso   1.000  C
  H62      1.0000 0.29430  0.99770  0.85650  Biso   1.000  H
  C92      1.0000 0.21840  0.05600  0.83400  Biso   1.000  C
  C93      1.0000 0.14180  0.04350  0.80310  Biso   1.000  C
  H63      1.0000 0.12920  0.08660  0.79730  Biso   1.000  H
  C94      1.0000 0.08200  0.96870  0.78010  Biso   1.000  C
  H64      1.0000 0.02910  0.96240  0.76070  Biso   1.000  H
  C95      1.0000 0.27090  0.13420  0.86690  Biso   1.000  C
  C96      1.0000 0.28910  0.14080  0.91620  Biso   1.000  C
  H65      1.0000 0.27360  0.09480  0.92670  Biso   1.000  H
  C97      1.0000 0.32770  0.20940  0.95010  Biso   1.000  C
  C98      1.0000 0.35180  0.28230  0.93530  Biso   1.000  C
  C99      1.0000 0.33480  0.27920  0.88570  Biso   1.000  C
  C100     1.0000 0.29420  0.20630  0.85300  Biso   1.000  C
  C101     1.0000 0.33920  0.20900  0.00320  Biso   1.000  C
  C102     1.0000 0.38080  0.16140  0.01740  Biso   1.000  C
  H66      1.0000 0.40950  0.13610  0.99600  Biso   1.000  H
  C103     1.0000 0.37940  0.15180  0.06440  Biso   1.000  C
  H67      1.0000 0.40750  0.11940  0.07420  Biso   1.000  H
  C104     1.0000 0.33880  0.18780  0.09590  Biso   1.000  C
  C105     1.0000 0.29600  0.23500  0.08210  Biso   1.000  C
  H68      1.0000 0.26740  0.25930  0.10410  Biso   1.000  H
  C106     1.0000 0.29470  0.24780  0.03380  Biso   1.000  C
  H69      1.0000 0.26610  0.27960  0.02380  Biso   1.000  H
  C107     1.0000 0.33300  0.18000  0.14700  Biso   1.000  C
  C108     1.0000 0.35070  0.41020  0.97610  Biso   1.000  C
  H70      1.0000 0.34290  0.42360  0.00950  Biso   1.000  H
  H71      1.0000 0.38810  0.45620  0.96760  Biso   1.000  H
  H72      1.0000 0.29300  0.38980  0.95570  Biso   1.000  H
  C109     1.0000 0.34070  0.18780  0.77700  Biso   1.000  C
  H73      1.0000 0.32560  0.18790  0.74370  Biso   1.000  H
  H74      1.0000 0.39880  0.22690  0.79030  Biso   1.000  H
  H75      1.0000 0.34210  0.13710  0.77870  Biso   1.000  H
  C110     1.0000 0.57760  0.38230  0.90690  Biso   1.000  C
  H76      1.0000 0.61950  0.35520  0.90820  Biso   1.000  H
  H77      1.0000 0.60880  0.43470  0.90430  Biso   1.000  H
  H78      1.0000 0.55070  0.38440  0.93590  Biso   1.000  H
  C111     1.0000 0.36280  0.35160  0.86640  Biso   1.000  C
  C112     1.0000 0.44940  0.38110  0.85640  Biso   1.000  C
  C113     1.0000 0.47590  0.44470  0.83590  Biso   1.000  C
  C114     1.0000 0.41050  0.48090  0.82650  Biso   1.000  C
  H79      1.0000 0.42750  0.52550  0.81450  Biso   1.000  H
  C115     1.0000 0.32320  0.45030  0.83520  Biso   1.000  C
  C116     1.0000 0.29930  0.38590  0.85480  Biso   1.000  C
  C117     1.0000 0.56720  0.47670  0.82210  Biso   1.000  C
  C118     1.0000 0.61480  0.55700  0.83550  Biso   1.000  C
  H80      1.0000 0.59370  0.58970  0.85690  Biso   1.000  H
  C119     1.0000 0.69300  0.58920  0.81740  Biso   1.000  C
  H81      1.0000 0.72350  0.64310  0.82650  Biso   1.000  H
  C120     1.0000 0.60070  0.42810  0.79160  Biso   1.000  C
  H82      1.0000 0.57150  0.37410  0.78500  Biso   1.000  H
  C121     1.0000 0.67520  0.45700  0.77090  Biso   1.000  C
  H83      1.0000 0.69340  0.42400  0.74800  Biso   1.000  H
  C122     1.0000 0.72590  0.54170  0.78590  Biso   1.000  C
  C123     1.0000 0.79990  0.57200  0.76140  Biso   1.000  C
  C124     1.0000 0.25910  0.48880  0.81920  Biso   1.000  C
  C125     1.0000 0.25790  0.50620  0.77590  Biso   1.000  C
  H84      1.0000 0.29980  0.49710  0.75660  Biso   1.000  H
  C126     1.0000 0.19960  0.53580  0.75940  Biso   1.000  C
  H85      1.0000 0.20130  0.54590  0.72880  Biso   1.000  H
  C127     1.0000 0.13440  0.55250  0.78710  Biso   1.000  C
  C128     1.0000 0.13890  0.53730  0.83220  Biso   1.000  C
  H86      1.0000 0.09940  0.54910  0.85240  Biso   1.000  H
  C129     1.0000 0.19780  0.50610  0.84860  Biso   1.000  C
  H87      1.0000 0.19780  0.49620  0.87930  Biso   1.000  H
  C130     1.0000 0.06550  0.58900  0.77030  Biso   1.000  C
  C131     1.0000 0.77210  0.93320  0.73160  Biso   1.000  C
  C132     1.0000 0.88740  0.91390  0.67940  Biso   1.000  C
  H88      1.0000 0.85900  0.85970  0.67120  Biso   1.000  H
  C133     1.0000 0.96060  0.94520  0.66080  Biso   1.000  C
  H89      1.0000 0.98150  0.91240  0.63940  Biso   1.000  H
  C134     1.0000 0.00780  0.02750  0.67260  Biso   1.000  C
  C135     1.0000 0.97220  0.07360  0.70170  Biso   1.000  C
  H90      1.0000 0.00000  0.12780  0.70830  Biso   1.000  H
  C136     1.0000 0.89830  0.04410  0.72120  Biso   1.000  C
  H91      1.0000 0.87650  0.07770  0.74150  Biso   1.000  H
  C137     1.0000 0.09630  0.05770  0.65610  Biso   1.000  C
  C138     1.0000 0.15870  0.02170  0.66390  Biso   1.000  C
  H92      1.0000 0.14080  0.97870  0.67730  Biso   1.000  H
  C139     1.0000 0.24850  0.04600  0.65260  Biso   1.000  C
  C140     1.0000 0.27310  0.11350  0.63310  Biso   1.000  C
  C141     1.0000 0.20980  0.14940  0.62510  Biso   1.000  C
  C142     1.0000 0.12780  0.12370  0.63600  Biso   1.000  C
  C143     1.0000 0.98660  0.12020  0.59280  Biso   1.000  C
  H93      1.0000 0.93600  0.13170  0.60420  Biso   1.000  H
  H94      1.0000 0.99560  0.13520  0.56280  Biso   1.000  H
  H95      1.0000 0.97530  0.06500  0.58770  Biso   1.000  H
  C144     1.0000 0.30700  0.00730  0.66740  Biso   1.000  C
  C145     1.0000 0.31050  0.99050  0.71380  Biso   1.000  C
  H96      1.0000 0.27290  0.00440  0.73450  Biso   1.000  H
  C146     1.0000 0.36640  0.95510  0.72920  Biso   1.000  C
  H97      1.0000 0.36370  0.94380  0.75940  Biso   1.000  H
  C147     1.0000 0.42850  0.93500  0.70090  Biso   1.000  C
  C148     1.0000 0.42470  0.95040  0.65160  Biso   1.000  C
  H98      1.0000 0.46080  0.93530  0.63020  Biso   1.000  H
  C149     1.0000 0.36770  0.98700  0.63800  Biso   1.000  C
  H99      1.0000 0.36910  0.99900  0.60790  Biso   1.000  H
  C150     1.0000 0.25830  0.31050  0.71930  Biso   1.000  C
  H100     1.0000 0.28560  0.31990  0.75220  Biso   1.000  H
  H101     1.0000 0.24500  0.35570  0.71490  Biso   1.000  H
  H102     1.0000 0.20360  0.26580  0.71220  Biso   1.000  H
  C151     1.0000 0.19570  0.10010  0.50500  Biso   1.000  C
  H103     1.0000 0.16230  0.04810  0.50730  Biso   1.000  H
  H104     1.0000 0.19430  0.10130  0.47140  Biso   1.000  H
  H105     1.0000 0.25690  0.11510  0.52010  Biso   1.000  H
  C152     1.0000 0.24250  0.22470  0.60560  Biso   1.000  C
  C153     1.0000 0.29480  0.29410  0.63730  Biso   1.000  C
  C154     1.0000 0.31780  0.36520  0.62440  Biso   1.000  C
  C155     1.0000 0.29030  0.36340  0.57590  Biso   1.000  C
  H106     1.0000 0.30600  0.40940  0.56530  Biso   1.000  H
  C156     1.0000 0.23930  0.29190  0.54390  Biso   1.000  C
  C157     1.0000 0.20960  0.22160  0.56050  Biso   1.000  C
  C158     1.0000 0.20960  0.29460  0.49330  Biso   1.000  C
  C159     1.0000 0.25010  0.26540  0.45620  Biso   1.000  C
  H107     1.0000 0.29060  0.24070  0.46250  Biso   1.000  H
  C160     1.0000 0.23030  0.27300  0.40960  Biso   1.000  C
  H108     1.0000 0.26050  0.25540  0.38560  Biso   1.000  H
  C161     1.0000 0.17080  0.30420  0.39800  Biso   1.000  C
  C162     1.0000 0.12760  0.32540  0.43240  Biso   1.000  C
  H109     1.0000 0.07820  0.33900  0.42370  Biso   1.000  H
  C163     1.0000 0.15120  0.32920  0.48300  Biso   1.000  C
  H110     1.0000 0.12700  0.35440  0.50720  Biso   1.000  H
  C164     1.0000 0.14540  0.30870  0.34460  Biso   1.000  C
  C165     1.0000 0.37910  0.44180  0.65620  Biso   1.000  C
  C166     1.0000 0.45770  0.44940  0.68320  Biso   1.000  C
  H111     1.0000 0.46890  0.40450  0.68650  Biso   1.000  H
  C167     1.0000 0.52220  0.52310  0.70630  Biso   1.000  C
  H112     1.0000 0.57760  0.52680  0.72190  Biso   1.000  H
  C168     1.0000 0.50310  0.59010  0.70570  Biso   1.000  C
  C169     1.0000 0.41730  0.58260  0.68270  Biso   1.000  C
  H113     1.0000 0.40130  0.62690  0.68510  Biso   1.000  H
  C170     1.0000 0.35870  0.51230  0.65750  Biso   1.000  C
  H114     1.0000 0.30450  0.50910  0.64070  Biso   1.000  H
  C171     1.0000 0.57260  0.67520  0.72970  Biso   1.000  C
  C172     1.0000 0.48990  0.90200  0.71820  Biso   1.000  C
  O25      1.0000 0.06240  0.58970  0.72520  Biso   1.000  O
  O26      1.0000 0.02560  0.61390  0.79950  Biso   1.000  O
  O27      1.0000 0.83470  0.53260  0.73370  Biso   1.000  O
  O28      1.0000 0.83830  0.65160  0.77190  Biso   1.000  O
  O29      1.0000 0.74340  0.85070  0.72820  Biso   1.000  O
  O30      1.0000 0.72940  0.96750  0.75370  Biso   1.000  O
  O31      1.0000 0.29630  0.21050  0.17530  Biso   1.000  O
  O32      1.0000 0.37680  0.13100  0.15960  Biso   1.000  O
  O33      1.0000 0.65410  0.67820  0.73530  Biso   1.000  O
  O34      1.0000 0.54980  0.72800  0.73740  Biso   1.000  O
  O35      1.0000 0.49960  0.90160  0.76120  Biso   1.000  O
  O36      1.0000 0.54170  0.87660  0.69180  Biso   1.000  O
  O37      1.0000 0.08570  0.33830  0.34120  Biso   1.000  O
  O38      1.0000 0.18870  0.28640  0.31580  Biso   1.000  O
  O39      1.0000 0.50930  0.34180  0.86570  Biso   1.000  O
  O40      1.0000 0.21430  0.35470  0.86660  Biso   1.000  O
  O41      1.0000 0.39340  0.35100  0.96920  Biso   1.000  O
  O42      1.0000 0.27370  0.20510  0.80450  Biso   1.000  O
  O43      1.0000 0.31930  0.29540  0.68700  Biso   1.000  O
  O44      1.0000 0.15700  0.15240  0.52830  Biso   1.000  O
  O45      1.0000 0.35750  0.14020  0.62110  Biso   1.000  O
  O46      1.0000 0.06790  0.16420  0.62920  Biso   1.000  O
  O47      1.0000 0.07060  0.76430  0.76090  Biso   1.000  O
  C173     1.0000 0.04270  0.82110  0.76500  Biso   1.000  C
  O48      1.0000 0.95480  0.80800  0.75380  Biso   1.000  O
  C174     1.0000 0.43310  0.17980  0.65980  Biso   1.000  C
  H115     1.0000 0.48830  0.18660  0.64660  Biso   1.000  H
  H116     1.0000 0.43120  0.23010  0.67530  Biso   1.000  H
  H117     1.0000 0.43020  0.14890  0.68310  Biso   1.000  H
  C175     1.0000 0.14620  0.30830  0.82380  Biso   1.000  C
  H118     1.0000 0.08870  0.28790  0.83390  Biso   1.000  H
  H119     1.0000 0.14260  0.34100  0.80230  Biso   1.000  H
  H120     1.0000 0.16290  0.26560  0.80730  Biso   1.000  H
  C176     1.0000 0.85250  0.96020  0.71080  Biso   1.000  C
