data_image0
_cell_length_a       15.116
_cell_length_b       15.393
_cell_length_c       18.225
_cell_angle_alpha    105.732
_cell_angle_beta     106.553
_cell_angle_gamma    104.405

_symmetry_space_group_name_H-M    "P 1"
_symmetry_int_tables_number       1

loop_
  _symmetry_equiv_pos_as_xyz
  'x, y, z'

loop_
  _atom_site_label
  _atom_site_occupancy
  _atom_site_fract_x
  _atom_site_fract_y
  _atom_site_fract_z
  _atom_site_thermal_displace_type
  _atom_site_B_iso_or_equiv
  _atom_site_type_symbol
  Zn1      1.0000 0.19169  0.02708  0.93006  Biso   1.000  Zn
  O1       1.0000 0.62490  0.77470  0.47200  Biso   1.000  O
  O2       1.0000 0.08380  0.04080  0.80530  Biso   1.000  O
  O3       1.0000 0.42290  0.56700  0.37940  Biso   1.000  O
  O4       1.0000 0.31050  0.75270  0.48260  Biso   1.000  O
  O5       1.0000 0.04350  0.96880  0.88590  Biso   1.000  O
  O6       1.0000 0.42480  0.88350  0.39610  Biso   1.000  O
  O7       1.0000 0.23460  0.16330  0.99530  Biso   1.000  O
  O8       1.0000 0.12010  0.95470  0.06190  Biso   1.000  O
  O9       1.0000 0.24290  0.97540  0.01410  Biso   1.000  O
  O10      1.0000 0.10890  0.14430  0.04290  Biso   1.000  O
  O11      1.0000 0.27850  0.01010  0.87060  Biso   1.000  O
  C1       1.0000 0.46880  0.76690  0.48130  Biso   1.000  C
  O12      1.0000 0.16590  0.86270  0.81410  Biso   1.000  O
  C2       1.0000 0.34760  0.66110  0.21760  Biso   1.000  C
  H1       1.0000 0.32280  0.63920  0.16040  Biso   1.000  H
  C3       1.0000 0.40360  0.78480  0.34580  Biso   1.000  C
  C4       1.0000 0.61160  0.82680  0.60380  Biso   1.000  C
  C5       1.0000 0.57090  0.78890  0.51970  Biso   1.000  C
  C6       1.0000 0.33740  0.81710  0.21680  Biso   1.000  C
  C7       1.0000 0.02100  0.98790  0.81930  Biso   1.000  C
  C8       1.0000 0.25400  0.91210  0.11920  Biso   1.000  C
  C9       1.0000 0.32300  0.49230  0.20220  Biso   1.000  C
  C10      1.0000 0.42300  0.72380  0.38670  Biso   1.000  C
  C11      1.0000 0.45000  0.82090  0.61050  Biso   1.000  C
  C12      1.0000 0.91640  0.93940  0.75960  Biso   1.000  C
  C13      1.0000 0.40200  0.62990  0.34160  Biso   1.000  C
  C14      1.0000 0.41070  0.78040  0.52550  Biso   1.000  C
  C15      1.0000 0.36180  0.59630  0.25470  Biso   1.000  C
  C16      1.0000 0.75320  0.83560  0.72130  Biso   1.000  C
  H2       1.0000 0.70810  0.79080  0.73060  Biso   1.000  H
  C17      1.0000 0.79120  0.92860  0.63680  Biso   1.000  C
  H3       1.0000 0.77190  0.94670  0.59180  Biso   1.000  H
  C18      1.0000 0.43770  0.93520  0.72820  Biso   1.000  C
  H4       1.0000 0.49920  0.97780  0.73780  Biso   1.000  H
  C19      1.0000 0.23750  0.29890  0.09760  Biso   1.000  C
  C20      1.0000 0.85000  0.87570  0.77310  Biso   1.000  C
  H5       1.0000 0.87050  0.85870  0.81870  Biso   1.000  H
  C21      1.0000 0.72320  0.86320  0.65390  Biso   1.000  C
  C22      1.0000 0.38720  0.96060  0.77870  Biso   1.000  C
  H6       1.0000 0.41420  0.02110  0.82070  Biso   1.000  H
  C23      1.0000 0.24870  0.42820  0.21260  Biso   1.000  C
  H7       1.0000 0.22790  0.44860  0.25550  Biso   1.000  H
  C24      1.0000 0.18700  0.19170  0.03970  Biso   1.000  C
  C25      1.0000 0.55350  0.84340  0.64800  Biso   1.000  C
  H8       1.0000 0.58310  0.87070  0.70510  Biso   1.000  H
  C26      1.0000 0.20610  0.33250  0.15700  Biso   1.000  C
  H9       1.0000 0.15370  0.29060  0.16170  Biso   1.000  H
  C27      1.0000 0.35500  0.46050  0.14150  Biso   1.000  C
  H10      1.0000 0.40350  0.50350  0.13360  Biso   1.000  H
  C28      1.0000 0.29740  0.89690  0.76720  Biso   1.000  C
  C29      1.0000 0.35790  0.81880  0.14960  Biso   1.000  C
  H11      1.0000 0.39810  0.78620  0.13470  Biso   1.000  H
  C30      1.0000 0.39650  0.84580  0.66280  Biso   1.000  C
  C31      1.0000 0.36900  0.75850  0.26210  Biso   1.000  C
  C32      1.0000 0.27630  0.86750  0.23720  Biso   1.000  C
  H12      1.0000 0.26390  0.87050  0.28480  Biso   1.000  H
  C33      1.0000 0.25750  0.80700  0.70480  Biso   1.000  C
  H13      1.0000 0.19840  0.76290  0.69800  Biso   1.000  H
  C34      1.0000 0.31360  0.35930  0.08860  Biso   1.000  C
  H14      1.0000 0.33830  0.33590  0.04920  Biso   1.000  H
  C35      1.0000 0.88680  0.96320  0.69060  Biso   1.000  C
  H15      1.0000 0.93430  0.00470  0.68070  Biso   1.000  H
  C36      1.0000 0.30590  0.78240  0.65210  Biso   1.000  C
  H16      1.0000 0.27730  0.72270  0.60910  Biso   1.000  H
  C37      1.0000 0.20310  0.95230  0.06090  Biso   1.000  C
  C38      1.0000 0.23380  0.91280  0.18780  Biso   1.000  C
  H17      1.0000 0.19180  0.94350  0.20150  Biso   1.000  H
  C39      1.0000 0.27040  0.82980  0.48160  Biso   1.000  C
  H18      1.0000 0.20340  0.80280  0.44280  Biso   1.000  H
  H19      1.0000 0.30910  0.87550  0.46580  Biso   1.000  H
  H20      1.0000 0.27230  0.86170  0.53550  Biso   1.000  H
  C40      1.0000 0.24170  0.92220  0.81870  Biso   1.000  C
  C41      1.0000 0.52180  0.94440  0.41090  Biso   1.000  C
  H21      1.0000 0.53470  0.00870  0.44650  Biso   1.000  H
  H22      1.0000 0.52610  0.94540  0.35960  Biso   1.000  H
  H23      1.0000 0.56960  0.91990  0.43660  Biso   1.000  H
  C42      1.0000 0.31850  0.87030  0.10030  Biso   1.000  C
  H24      1.0000 0.33690  0.87470  0.05650  Biso   1.000  H
  C43      1.0000 0.66750  0.70320  0.47820  Biso   1.000  C
  H25      1.0000 0.72950  0.72070  0.47170  Biso   1.000  H
  H26      1.0000 0.62380  0.64210  0.43580  Biso   1.000  H
  H27      1.0000 0.67780  0.69830  0.53110  Biso   1.000  H
  C44      1.0000 0.36630  0.54810  0.43340  Biso   1.000  C
  H28      1.0000 0.41090  0.55210  0.48470  Biso   1.000  H
  H29      1.0000 0.31650  0.48490  0.40610  Biso   1.000  H
  H30      1.0000 0.33580  0.59540  0.44370  Biso   1.000  H
  Zn2      1.0000 0.80831  0.97292  0.06994  Biso   1.000  Zn
  O13      1.0000 0.37510  0.22530  0.52800  Biso   1.000  O
  O14      1.0000 0.91620  0.95920  0.19470  Biso   1.000  O
  O15      1.0000 0.57710  0.43300  0.62060  Biso   1.000  O
  O16      1.0000 0.68950  0.24730  0.51740  Biso   1.000  O
  O17      1.0000 0.95650  0.03120  0.11410  Biso   1.000  O
  O18      1.0000 0.57520  0.11650  0.60390  Biso   1.000  O
  O19      1.0000 0.76540  0.83670  0.00470  Biso   1.000  O
  O20      1.0000 0.87990  0.04530  0.93810  Biso   1.000  O
  O21      1.0000 0.75710  0.02460  0.98590  Biso   1.000  O
  O22      1.0000 0.89110  0.85570  0.95710  Biso   1.000  O
  O23      1.0000 0.72150  0.98990  0.12940  Biso   1.000  O
  C45      1.0000 0.53120  0.23310  0.51870  Biso   1.000  C
  O24      1.0000 0.83410  0.13730  0.18590  Biso   1.000  O
  C46      1.0000 0.65240  0.33890  0.78240  Biso   1.000  C
  H31      1.0000 0.67720  0.36080  0.83960  Biso   1.000  H
  C47      1.0000 0.59640  0.21520  0.65420  Biso   1.000  C
  C48      1.0000 0.38840  0.17320  0.39620  Biso   1.000  C
  C49      1.0000 0.42910  0.21110  0.48030  Biso   1.000  C
  C50      1.0000 0.66260  0.18290  0.78320  Biso   1.000  C
  C51      1.0000 0.97900  0.01210  0.18070  Biso   1.000  C
  C52      1.0000 0.74600  0.08790  0.88080  Biso   1.000  C
  C53      1.0000 0.67700  0.50770  0.79780  Biso   1.000  C
  C54      1.0000 0.57700  0.27620  0.61330  Biso   1.000  C
  C55      1.0000 0.55000  0.17910  0.38950  Biso   1.000  C
  C56      1.0000 0.08360  0.06060  0.24040  Biso   1.000  C
  C57      1.0000 0.59800  0.37010  0.65840  Biso   1.000  C
  C58      1.0000 0.58930  0.21960  0.47450  Biso   1.000  C
  C59      1.0000 0.63820  0.40370  0.74530  Biso   1.000  C
  C60      1.0000 0.24680  0.16440  0.27870  Biso   1.000  C
  H32      1.0000 0.29190  0.20920  0.26940  Biso   1.000  H
  C61      1.0000 0.20880  0.07140  0.36320  Biso   1.000  C
  H33      1.0000 0.22810  0.05330  0.40820  Biso   1.000  H
  C62      1.0000 0.56230  0.06480  0.27180  Biso   1.000  C
  H34      1.0000 0.50080  0.02220  0.26220  Biso   1.000  H
  C63      1.0000 0.76250  0.70110  0.90240  Biso   1.000  C
  C64      1.0000 0.15000  0.12430  0.22690  Biso   1.000  C
  H35      1.0000 0.12950  0.14130  0.18130  Biso   1.000  H
  C65      1.0000 0.27680  0.13680  0.34610  Biso   1.000  C
  C66      1.0000 0.61280  0.03940  0.22130  Biso   1.000  C
  H36      1.0000 0.58580  0.97890  0.17930  Biso   1.000  H
  C67      1.0000 0.75130  0.57180  0.78740  Biso   1.000  C
  H37      1.0000 0.77210  0.55140  0.74450  Biso   1.000  H
  C68      1.0000 0.81300  0.80830  0.96030  Biso   1.000  C
  C69      1.0000 0.44650  0.15660  0.35200  Biso   1.000  C
  H38      1.0000 0.41690  0.12930  0.29490  Biso   1.000  H
  C70      1.0000 0.79390  0.66750  0.84300  Biso   1.000  C
  H39      1.0000 0.84630  0.70940  0.83830  Biso   1.000  H
  C71      1.0000 0.64500  0.53950  0.85850  Biso   1.000  C
  H40      1.0000 0.59650  0.49650  0.86640  Biso   1.000  H
  C72      1.0000 0.70260  0.10310  0.23280  Biso   1.000  C
  C73      1.0000 0.64210  0.18120  0.85040  Biso   1.000  C
  H41      1.0000 0.60190  0.21380  0.86530  Biso   1.000  H
  C74      1.0000 0.60350  0.15420  0.33720  Biso   1.000  C
  C75      1.0000 0.63100  0.24150  0.73790  Biso   1.000  C
  C76      1.0000 0.72370  0.13250  0.76280  Biso   1.000  C
  H42      1.0000 0.73610  0.12950  0.71520  Biso   1.000  H
  C77      1.0000 0.74250  0.19300  0.29520  Biso   1.000  C
  H43      1.0000 0.80160  0.23710  0.30200  Biso   1.000  H
  C78      1.0000 0.68640  0.64070  0.91140  Biso   1.000  C
  H44      1.0000 0.66170  0.66410  0.95080  Biso   1.000  H
  C79      1.0000 0.11320  0.03680  0.30940  Biso   1.000  C
  H45      1.0000 0.06570  0.99530  0.31930  Biso   1.000  H
  C80      1.0000 0.69410  0.21760  0.34790  Biso   1.000  C
  H46      1.0000 0.72270  0.27730  0.39090  Biso   1.000  H
  C81      1.0000 0.79690  0.04770  0.93910  Biso   1.000  C
  C82      1.0000 0.76620  0.08720  0.81220  Biso   1.000  C
  H47      1.0000 0.80820  0.05650  0.79850  Biso   1.000  H
  C83      1.0000 0.72960  0.17020  0.51840  Biso   1.000  C
  H48      1.0000 0.79660  0.19720  0.55720  Biso   1.000  H
  H49      1.0000 0.69090  0.12450  0.53420  Biso   1.000  H
  H50      1.0000 0.72770  0.13830  0.46450  Biso   1.000  H
  C84      1.0000 0.75830  0.07780  0.18130  Biso   1.000  C
  C85      1.0000 0.47820  0.05560  0.58910  Biso   1.000  C
  H51      1.0000 0.46530  0.99130  0.55350  Biso   1.000  H
  H52      1.0000 0.47390  0.05460  0.64040  Biso   1.000  H
  H53      1.0000 0.43040  0.08010  0.56340  Biso   1.000  H
  C86      1.0000 0.68150  0.12970  0.89970  Biso   1.000  C
  H54      1.0000 0.66310  0.12530  0.94350  Biso   1.000  H
  C87      1.0000 0.33250  0.29680  0.52180  Biso   1.000  C
  H55      1.0000 0.27050  0.27930  0.52830  Biso   1.000  H
  H56      1.0000 0.37620  0.35790  0.56420  Biso   1.000  H
  H57      1.0000 0.32220  0.30170  0.46890  Biso   1.000  H
  C88      1.0000 0.63370  0.45190  0.56660  Biso   1.000  C
  H58      1.0000 0.58910  0.44790  0.51530  Biso   1.000  H
  H59      1.0000 0.68350  0.51510  0.59390  Biso   1.000  H
  H60      1.0000 0.66420  0.40460  0.55630  Biso   1.000  H
