data_image0
_cell_length_a       17.028
_cell_length_b       17.028
_cell_length_c       23.1439
_cell_angle_alpha    90
_cell_angle_beta     90
_cell_angle_gamma    90

_symmetry_space_group_name_H-M    "P 1"
_symmetry_int_tables_number       1

loop_
  _symmetry_equiv_pos_as_xyz
  'x, y, z'

loop_
  _atom_site_label
  _atom_site_occupancy
  _atom_site_fract_x
  _atom_site_fract_y
  _atom_site_fract_z
  _atom_site_thermal_displace_type
  _atom_site_B_iso_or_equiv
  _atom_site_type_symbol
  H1       1.0000 0.26310  0.70390  0.97570  Biso   1.000  H
  H2       1.0000 0.36920  0.79610  0.02750  Biso   1.000  H
  C1       1.0000 0.27081  0.82033  0.11113  Biso   1.000  C
  H3       1.0000 0.25750  0.82200  0.15190  Biso   1.000  H
  H4       1.0000 0.30080  0.86720  0.10210  Biso   1.000  H
  C2       1.0000 0.19489  0.81968  0.07510  Biso   1.000  C
  H5       1.0000 0.19230  0.86710  0.05190  Biso   1.000  H
  H6       1.0000 0.14990  0.81920  0.10080  Biso   1.000  H
  H7       1.0000 0.76310  0.20390  0.47570  Biso   1.000  H
  H8       1.0000 0.86920  0.29610  0.52750  Biso   1.000  H
  C3       1.0000 0.77081  0.32033  0.61113  Biso   1.000  C
  H9       1.0000 0.75750  0.32200  0.65190  Biso   1.000  H
  H10      1.0000 0.80080  0.36720  0.60210  Biso   1.000  H
  C4       1.0000 0.69489  0.31968  0.57510  Biso   1.000  C
  H11      1.0000 0.69230  0.36710  0.55190  Biso   1.000  H
  H12      1.0000 0.64990  0.31920  0.60080  Biso   1.000  H
  H13      1.0000 0.23690  0.29610  0.47570  Biso   1.000  H
  H14      1.0000 0.13080  0.20390  0.52750  Biso   1.000  H
  C5       1.0000 0.22919  0.17967  0.61113  Biso   1.000  C
  H15      1.0000 0.24250  0.17800  0.65190  Biso   1.000  H
  H16      1.0000 0.19920  0.13280  0.60210  Biso   1.000  H
  C6       1.0000 0.30511  0.18032  0.57510  Biso   1.000  C
  H17      1.0000 0.30770  0.13290  0.55190  Biso   1.000  H
  H18      1.0000 0.35010  0.18080  0.60080  Biso   1.000  H
  H19      1.0000 0.73690  0.79610  0.97570  Biso   1.000  H
  H20      1.0000 0.63080  0.70390  0.02750  Biso   1.000  H
  C7       1.0000 0.72919  0.67967  0.11113  Biso   1.000  C
  H21      1.0000 0.74250  0.67800  0.15190  Biso   1.000  H
  H22      1.0000 0.69920  0.63280  0.10210  Biso   1.000  H
  C8       1.0000 0.80511  0.68032  0.07510  Biso   1.000  C
  H23      1.0000 0.80770  0.63290  0.05190  Biso   1.000  H
  H24      1.0000 0.85010  0.68080  0.10080  Biso   1.000  H
  H25      1.0000 0.54610  0.01310  0.22570  Biso   1.000  H
  H26      1.0000 0.45390  0.11920  0.27750  Biso   1.000  H
  C9       1.0000 0.42967  0.02081  0.36113  Biso   1.000  C
  H27      1.0000 0.42800  0.00750  0.40190  Biso   1.000  H
  H28      1.0000 0.38280  0.05080  0.35210  Biso   1.000  H
  C10      1.0000 0.43032  0.94489  0.32510  Biso   1.000  C
  H29      1.0000 0.38290  0.94230  0.30190  Biso   1.000  H
  H30      1.0000 0.43080  0.89990  0.35080  Biso   1.000  H
  H31      1.0000 0.04610  0.51310  0.72570  Biso   1.000  H
  H32      1.0000 0.95390  0.61920  0.77750  Biso   1.000  H
  C11      1.0000 0.92967  0.52081  0.86113  Biso   1.000  C
  H33      1.0000 0.92800  0.50750  0.90190  Biso   1.000  H
  H34      1.0000 0.88280  0.55080  0.85210  Biso   1.000  H
  C12      1.0000 0.93032  0.44489  0.82510  Biso   1.000  C
  H35      1.0000 0.88290  0.44230  0.80190  Biso   1.000  H
  H36      1.0000 0.93080  0.39990  0.85080  Biso   1.000  H
  H37      1.0000 0.95390  0.98690  0.72570  Biso   1.000  H
  H38      1.0000 0.04610  0.88080  0.77750  Biso   1.000  H
  C13      1.0000 0.07033  0.97919  0.86113  Biso   1.000  C
  H39      1.0000 0.07200  0.99250  0.90190  Biso   1.000  H
  H40      1.0000 0.11720  0.94920  0.85210  Biso   1.000  H
  C14      1.0000 0.06968  0.05511  0.82510  Biso   1.000  C
  H41      1.0000 0.11710  0.05770  0.80190  Biso   1.000  H
  H42      1.0000 0.06920  0.10010  0.85080  Biso   1.000  H
  H43      1.0000 0.45390  0.48690  0.22570  Biso   1.000  H
  H44      1.0000 0.54610  0.38080  0.27750  Biso   1.000  H
  C15      1.0000 0.57033  0.47919  0.36113  Biso   1.000  C
  H45      1.0000 0.57200  0.49250  0.40190  Biso   1.000  H
  H46      1.0000 0.61720  0.44920  0.35210  Biso   1.000  H
  C16      1.0000 0.56968  0.55511  0.32510  Biso   1.000  C
  H47      1.0000 0.61710  0.55770  0.30190  Biso   1.000  H
  H48      1.0000 0.56920  0.60010  0.35080  Biso   1.000  H
  H49      1.0000 0.76310  0.29610  0.47570  Biso   1.000  H
  H50      1.0000 0.86920  0.20390  0.52750  Biso   1.000  H
  C17      1.0000 0.77081  0.17967  0.61113  Biso   1.000  C
  H51      1.0000 0.75750  0.17800  0.65190  Biso   1.000  H
  H52      1.0000 0.80080  0.13280  0.60210  Biso   1.000  H
  C18      1.0000 0.69489  0.18032  0.57510  Biso   1.000  C
  H53      1.0000 0.69230  0.13290  0.55190  Biso   1.000  H
  H54      1.0000 0.64990  0.18080  0.60080  Biso   1.000  H
  H55      1.0000 0.26310  0.79610  0.97570  Biso   1.000  H
  H56      1.0000 0.36920  0.70390  0.02750  Biso   1.000  H
  C19      1.0000 0.27081  0.67967  0.11113  Biso   1.000  C
  H57      1.0000 0.25750  0.67800  0.15190  Biso   1.000  H
  H58      1.0000 0.30080  0.63280  0.10210  Biso   1.000  H
  C20      1.0000 0.19489  0.68032  0.07510  Biso   1.000  C
  H59      1.0000 0.19230  0.63290  0.05190  Biso   1.000  H
  H60      1.0000 0.14990  0.68080  0.10080  Biso   1.000  H
  H61      1.0000 0.73690  0.70390  0.97570  Biso   1.000  H
  H62      1.0000 0.63080  0.79610  0.02750  Biso   1.000  H
  C21      1.0000 0.72919  0.82033  0.11113  Biso   1.000  C
  H63      1.0000 0.74250  0.82200  0.15190  Biso   1.000  H
  H64      1.0000 0.69920  0.86720  0.10210  Biso   1.000  H
  C22      1.0000 0.80511  0.81968  0.07510  Biso   1.000  C
  H65      1.0000 0.80770  0.86710  0.05190  Biso   1.000  H
  H66      1.0000 0.85010  0.81920  0.10080  Biso   1.000  H
  H67      1.0000 0.23690  0.20390  0.47570  Biso   1.000  H
  H68      1.0000 0.13080  0.29610  0.52750  Biso   1.000  H
  C23      1.0000 0.22919  0.32033  0.61113  Biso   1.000  C
  H69      1.0000 0.24250  0.32200  0.65190  Biso   1.000  H
  H70      1.0000 0.19920  0.36720  0.60210  Biso   1.000  H
  C24      1.0000 0.30511  0.31968  0.57510  Biso   1.000  C
  H71      1.0000 0.30770  0.36710  0.55190  Biso   1.000  H
  H72      1.0000 0.35010  0.31920  0.60080  Biso   1.000  H
  H73      1.0000 0.04610  0.98690  0.72570  Biso   1.000  H
  H74      1.0000 0.95390  0.88080  0.77750  Biso   1.000  H
  C25      1.0000 0.92967  0.97919  0.86113  Biso   1.000  C
  H75      1.0000 0.92800  0.99250  0.90190  Biso   1.000  H
  H76      1.0000 0.88280  0.94920  0.85210  Biso   1.000  H
  C26      1.0000 0.93032  0.05511  0.82510  Biso   1.000  C
  H77      1.0000 0.88290  0.05770  0.80190  Biso   1.000  H
  H78      1.0000 0.93080  0.10010  0.85080  Biso   1.000  H
  H79      1.0000 0.54610  0.48690  0.22570  Biso   1.000  H
  H80      1.0000 0.45390  0.38080  0.27750  Biso   1.000  H
  C27      1.0000 0.42967  0.47919  0.36113  Biso   1.000  C
  H81      1.0000 0.42800  0.49250  0.40190  Biso   1.000  H
  H82      1.0000 0.38280  0.44920  0.35210  Biso   1.000  H
  C28      1.0000 0.43032  0.55511  0.32510  Biso   1.000  C
  H83      1.0000 0.38290  0.55770  0.30190  Biso   1.000  H
  H84      1.0000 0.43080  0.60010  0.35080  Biso   1.000  H
  H85      1.0000 0.45390  0.01310  0.22570  Biso   1.000  H
  H86      1.0000 0.54610  0.11920  0.27750  Biso   1.000  H
  C29      1.0000 0.57033  0.02081  0.36113  Biso   1.000  C
  H87      1.0000 0.57200  0.00750  0.40190  Biso   1.000  H
  H88      1.0000 0.61720  0.05080  0.35210  Biso   1.000  H
  C30      1.0000 0.56968  0.94489  0.32510  Biso   1.000  C
  H89      1.0000 0.61710  0.94230  0.30190  Biso   1.000  H
  H90      1.0000 0.56920  0.89990  0.35080  Biso   1.000  H
  H91      1.0000 0.95390  0.51310  0.72570  Biso   1.000  H
  H92      1.0000 0.04610  0.61920  0.77750  Biso   1.000  H
  C31      1.0000 0.07033  0.52081  0.86113  Biso   1.000  C
  H93      1.0000 0.07200  0.50750  0.90190  Biso   1.000  H
  H94      1.0000 0.11720  0.55080  0.85210  Biso   1.000  H
  C32      1.0000 0.06968  0.44489  0.82510  Biso   1.000  C
  H95      1.0000 0.11710  0.44230  0.80190  Biso   1.000  H
  H96      1.0000 0.06920  0.39990  0.85080  Biso   1.000  H
  Cu1      1.0000 0.08857  0.75000  0.98424  Biso   1.000  Cu
  I1       1.0000 0.13112  0.75000  0.87198  Biso   1.000  I
  N1       1.0000 0.19156  0.75000  0.03658  Biso   1.000  N
  N2       1.0000 0.31940  0.75000  0.09948  Biso   1.000  N
  C33      1.0000 0.26336  0.75000  0.00033  Biso   1.000  C
  C34      1.0000 0.33820  0.75000  0.03675  Biso   1.000  C
  Cu2      1.0000 0.41143  0.25000  0.48424  Biso   1.000  Cu
  I2       1.0000 0.36888  0.25000  0.37198  Biso   1.000  I
  N3       1.0000 0.30844  0.25000  0.53658  Biso   1.000  N
  N4       1.0000 0.18060  0.25000  0.59948  Biso   1.000  N
  C35      1.0000 0.23664  0.25000  0.50033  Biso   1.000  C
  C36      1.0000 0.16180  0.25000  0.53675  Biso   1.000  C
  Cu3      1.0000 0.50000  0.83857  0.23424  Biso   1.000  Cu
  I3       1.0000 0.50000  0.88112  0.12198  Biso   1.000  I
  N5       1.0000 0.50000  0.94156  0.28658  Biso   1.000  N
  N6       1.0000 0.50000  0.06940  0.34948  Biso   1.000  N
  C37      1.0000 0.50000  0.01336  0.25033  Biso   1.000  C
  C38      1.0000 0.50000  0.08820  0.28675  Biso   1.000  C
  Cu4      1.0000 0.00000  0.33857  0.73424  Biso   1.000  Cu
  I4       1.0000 0.00000  0.38112  0.62198  Biso   1.000  I
  N7       1.0000 0.00000  0.44156  0.78658  Biso   1.000  N
  N8       1.0000 0.00000  0.56940  0.84948  Biso   1.000  N
  C39      1.0000 0.00000  0.51336  0.75033  Biso   1.000  C
  C40      1.0000 0.00000  0.58820  0.78675  Biso   1.000  C
  Cu5      1.0000 0.00000  0.16143  0.73424  Biso   1.000  Cu
  I5       1.0000 0.00000  0.11888  0.62198  Biso   1.000  I
  N9       1.0000 0.00000  0.05844  0.78658  Biso   1.000  N
  N10      1.0000 0.00000  0.93060  0.84948  Biso   1.000  N
  C41      1.0000 0.00000  0.98664  0.75033  Biso   1.000  C
  C42      1.0000 0.00000  0.91180  0.78675  Biso   1.000  C
  Cu6      1.0000 0.50000  0.66143  0.23424  Biso   1.000  Cu
  I6       1.0000 0.50000  0.61888  0.12198  Biso   1.000  I
  N11      1.0000 0.50000  0.55844  0.28658  Biso   1.000  N
  N12      1.0000 0.50000  0.43060  0.34948  Biso   1.000  N
  C43      1.0000 0.50000  0.48664  0.25033  Biso   1.000  C
  C44      1.0000 0.50000  0.41180  0.28675  Biso   1.000  C
  Cu7      1.0000 0.58857  0.25000  0.48424  Biso   1.000  Cu
  I7       1.0000 0.63112  0.25000  0.37198  Biso   1.000  I
  N13      1.0000 0.69156  0.25000  0.53658  Biso   1.000  N
  N14      1.0000 0.81940  0.25000  0.59948  Biso   1.000  N
  C45      1.0000 0.76336  0.25000  0.50033  Biso   1.000  C
  C46      1.0000 0.83820  0.25000  0.53675  Biso   1.000  C
  Cu8      1.0000 0.91143  0.75000  0.98424  Biso   1.000  Cu
  I8       1.0000 0.86888  0.75000  0.87198  Biso   1.000  I
  N15      1.0000 0.80844  0.75000  0.03658  Biso   1.000  N
  N16      1.0000 0.68060  0.75000  0.09948  Biso   1.000  N
  C47      1.0000 0.73664  0.75000  0.00033  Biso   1.000  C
  C48      1.0000 0.66180  0.75000  0.03675  Biso   1.000  C
  Cu9      1.0000 0.00000  0.82810  0.90006  Biso   1.000  Cu
  I9       1.0000 0.00000  0.87596  0.00940  Biso   1.000  I
  Cu10     1.0000 0.50000  0.32810  0.40006  Biso   1.000  Cu
  I10      1.0000 0.50000  0.37596  0.50940  Biso   1.000  I
  Cu11     1.0000 0.50000  0.17190  0.40006  Biso   1.000  Cu
  I11      1.0000 0.50000  0.12404  0.50940  Biso   1.000  I
  Cu12     1.0000 0.00000  0.67190  0.90006  Biso   1.000  Cu
  I12      1.0000 0.00000  0.62404  0.00940  Biso   1.000  I
  Cu13     1.0000 0.42190  0.75000  0.15006  Biso   1.000  Cu
  I13      1.0000 0.37404  0.75000  0.25940  Biso   1.000  I
  Cu14     1.0000 0.07810  0.25000  0.65006  Biso   1.000  Cu
  I14      1.0000 0.12596  0.25000  0.75940  Biso   1.000  I
  Cu15     1.0000 0.92190  0.25000  0.65006  Biso   1.000  Cu
  I15      1.0000 0.87404  0.25000  0.75940  Biso   1.000  I
  Cu16     1.0000 0.57810  0.75000  0.15006  Biso   1.000  Cu
  I16      1.0000 0.62596  0.75000  0.25940  Biso   1.000  I
  H97      1.0000 0.23690  0.70390  0.52430  Biso   1.000  H
  H98      1.0000 0.13080  0.79610  0.47250  Biso   1.000  H
  C49      1.0000 0.22919  0.82033  0.38887  Biso   1.000  C
  H99      1.0000 0.24250  0.82200  0.34810  Biso   1.000  H
  H100     1.0000 0.19920  0.86720  0.39790  Biso   1.000  H
  C50      1.0000 0.30511  0.81968  0.42490  Biso   1.000  C
  H101     1.0000 0.30770  0.86710  0.44810  Biso   1.000  H
  H102     1.0000 0.35010  0.81920  0.39920  Biso   1.000  H
  H103     1.0000 0.73690  0.20390  0.02430  Biso   1.000  H
  H104     1.0000 0.63080  0.29610  0.97250  Biso   1.000  H
  C51      1.0000 0.72919  0.32033  0.88887  Biso   1.000  C
  H105     1.0000 0.74250  0.32200  0.84810  Biso   1.000  H
  H106     1.0000 0.69920  0.36720  0.89790  Biso   1.000  H
  C52      1.0000 0.80511  0.31968  0.92490  Biso   1.000  C
  H107     1.0000 0.80770  0.36710  0.94810  Biso   1.000  H
  H108     1.0000 0.85010  0.31920  0.89920  Biso   1.000  H
  H109     1.0000 0.26310  0.29610  0.02430  Biso   1.000  H
  H110     1.0000 0.36920  0.20390  0.97250  Biso   1.000  H
  C53      1.0000 0.27081  0.17967  0.88887  Biso   1.000  C
  H111     1.0000 0.25750  0.17800  0.84810  Biso   1.000  H
  H112     1.0000 0.30080  0.13280  0.89790  Biso   1.000  H
  C54      1.0000 0.19489  0.18032  0.92490  Biso   1.000  C
  H113     1.0000 0.19230  0.13290  0.94810  Biso   1.000  H
  H114     1.0000 0.14990  0.18080  0.89920  Biso   1.000  H
  H115     1.0000 0.76310  0.79610  0.52430  Biso   1.000  H
  H116     1.0000 0.86920  0.70390  0.47250  Biso   1.000  H
  C55      1.0000 0.77081  0.67967  0.38887  Biso   1.000  C
  H117     1.0000 0.75750  0.67800  0.34810  Biso   1.000  H
  H118     1.0000 0.80080  0.63280  0.39790  Biso   1.000  H
  C56      1.0000 0.69489  0.68032  0.42490  Biso   1.000  C
  H119     1.0000 0.69230  0.63290  0.44810  Biso   1.000  H
  H120     1.0000 0.64990  0.68080  0.39920  Biso   1.000  H
  H121     1.0000 0.95390  0.01310  0.27430  Biso   1.000  H
  H122     1.0000 0.04610  0.11920  0.22250  Biso   1.000  H
  C57      1.0000 0.07033  0.02081  0.13887  Biso   1.000  C
  H123     1.0000 0.07200  0.00750  0.09810  Biso   1.000  H
  H124     1.0000 0.11720  0.05080  0.14790  Biso   1.000  H
  C58      1.0000 0.06968  0.94489  0.17490  Biso   1.000  C
  H125     1.0000 0.11710  0.94230  0.19810  Biso   1.000  H
  H126     1.0000 0.06920  0.89990  0.14920  Biso   1.000  H
  H127     1.0000 0.45390  0.51310  0.77430  Biso   1.000  H
  H128     1.0000 0.54610  0.61920  0.72250  Biso   1.000  H
  C59      1.0000 0.57033  0.52081  0.63887  Biso   1.000  C
  H129     1.0000 0.57200  0.50750  0.59810  Biso   1.000  H
  H130     1.0000 0.61720  0.55080  0.64790  Biso   1.000  H
  C60      1.0000 0.56968  0.44489  0.67490  Biso   1.000  C
  H131     1.0000 0.61710  0.44230  0.69810  Biso   1.000  H
  H132     1.0000 0.56920  0.39990  0.64920  Biso   1.000  H
  H133     1.0000 0.54610  0.98690  0.77430  Biso   1.000  H
  H134     1.0000 0.45390  0.88080  0.72250  Biso   1.000  H
  C61      1.0000 0.42967  0.97919  0.63887  Biso   1.000  C
  H135     1.0000 0.42800  0.99250  0.59810  Biso   1.000  H
  H136     1.0000 0.38280  0.94920  0.64790  Biso   1.000  H
  C62      1.0000 0.43032  0.05511  0.67490  Biso   1.000  C
  H137     1.0000 0.38290  0.05770  0.69810  Biso   1.000  H
  H138     1.0000 0.43080  0.10010  0.64920  Biso   1.000  H
  H139     1.0000 0.04610  0.48690  0.27430  Biso   1.000  H
  H140     1.0000 0.95390  0.38080  0.22250  Biso   1.000  H
  C63      1.0000 0.92967  0.47919  0.13887  Biso   1.000  C
  H141     1.0000 0.92800  0.49250  0.09810  Biso   1.000  H
  H142     1.0000 0.88280  0.44920  0.14790  Biso   1.000  H
  C64      1.0000 0.93032  0.55511  0.17490  Biso   1.000  C
  H143     1.0000 0.88290  0.55770  0.19810  Biso   1.000  H
  H144     1.0000 0.93080  0.60010  0.14920  Biso   1.000  H
  H145     1.0000 0.73690  0.29610  0.02430  Biso   1.000  H
  H146     1.0000 0.63080  0.20390  0.97250  Biso   1.000  H
  C65      1.0000 0.72919  0.17967  0.88887  Biso   1.000  C
  H147     1.0000 0.74250  0.17800  0.84810  Biso   1.000  H
  H148     1.0000 0.69920  0.13280  0.89790  Biso   1.000  H
  C66      1.0000 0.80511  0.18032  0.92490  Biso   1.000  C
  H149     1.0000 0.80770  0.13290  0.94810  Biso   1.000  H
  H150     1.0000 0.85010  0.18080  0.89920  Biso   1.000  H
  H151     1.0000 0.23690  0.79610  0.52430  Biso   1.000  H
  H152     1.0000 0.13080  0.70390  0.47250  Biso   1.000  H
  C67      1.0000 0.22919  0.67967  0.38887  Biso   1.000  C
  H153     1.0000 0.24250  0.67800  0.34810  Biso   1.000  H
  H154     1.0000 0.19920  0.63280  0.39790  Biso   1.000  H
  C68      1.0000 0.30511  0.68032  0.42490  Biso   1.000  C
  H155     1.0000 0.30770  0.63290  0.44810  Biso   1.000  H
  H156     1.0000 0.35010  0.68080  0.39920  Biso   1.000  H
  H157     1.0000 0.76310  0.70390  0.52430  Biso   1.000  H
  H158     1.0000 0.86920  0.79610  0.47250  Biso   1.000  H
  C69      1.0000 0.77081  0.82033  0.38887  Biso   1.000  C
  H159     1.0000 0.75750  0.82200  0.34810  Biso   1.000  H
  H160     1.0000 0.80080  0.86720  0.39790  Biso   1.000  H
  C70      1.0000 0.69489  0.81968  0.42490  Biso   1.000  C
  H161     1.0000 0.69230  0.86710  0.44810  Biso   1.000  H
  H162     1.0000 0.64990  0.81920  0.39920  Biso   1.000  H
  H163     1.0000 0.26310  0.20390  0.02430  Biso   1.000  H
  H164     1.0000 0.36920  0.29610  0.97250  Biso   1.000  H
  C71      1.0000 0.27081  0.32033  0.88887  Biso   1.000  C
  H165     1.0000 0.25750  0.32200  0.84810  Biso   1.000  H
  H166     1.0000 0.30080  0.36720  0.89790  Biso   1.000  H
  C72      1.0000 0.19489  0.31968  0.92490  Biso   1.000  C
  H167     1.0000 0.19230  0.36710  0.94810  Biso   1.000  H
  H168     1.0000 0.14990  0.31920  0.89920  Biso   1.000  H
  H169     1.0000 0.45390  0.98690  0.77430  Biso   1.000  H
  H170     1.0000 0.54610  0.88080  0.72250  Biso   1.000  H
  C73      1.0000 0.57033  0.97919  0.63887  Biso   1.000  C
  H171     1.0000 0.57200  0.99250  0.59810  Biso   1.000  H
  H172     1.0000 0.61720  0.94920  0.64790  Biso   1.000  H
  C74      1.0000 0.56968  0.05511  0.67490  Biso   1.000  C
  H173     1.0000 0.61710  0.05770  0.69810  Biso   1.000  H
  H174     1.0000 0.56920  0.10010  0.64920  Biso   1.000  H
  H175     1.0000 0.95390  0.48690  0.27430  Biso   1.000  H
  H176     1.0000 0.04610  0.38080  0.22250  Biso   1.000  H
  C75      1.0000 0.07033  0.47919  0.13887  Biso   1.000  C
  H177     1.0000 0.07200  0.49250  0.09810  Biso   1.000  H
  H178     1.0000 0.11720  0.44920  0.14790  Biso   1.000  H
  C76      1.0000 0.06968  0.55511  0.17490  Biso   1.000  C
  H179     1.0000 0.11710  0.55770  0.19810  Biso   1.000  H
  H180     1.0000 0.06920  0.60010  0.14920  Biso   1.000  H
  H181     1.0000 0.04610  0.01310  0.27430  Biso   1.000  H
  H182     1.0000 0.95390  0.11920  0.22250  Biso   1.000  H
  C77      1.0000 0.92967  0.02081  0.13887  Biso   1.000  C
  H183     1.0000 0.92800  0.00750  0.09810  Biso   1.000  H
  H184     1.0000 0.88280  0.05080  0.14790  Biso   1.000  H
  C78      1.0000 0.93032  0.94489  0.17490  Biso   1.000  C
  H185     1.0000 0.88290  0.94230  0.19810  Biso   1.000  H
  H186     1.0000 0.93080  0.89990  0.14920  Biso   1.000  H
  H187     1.0000 0.54610  0.51310  0.77430  Biso   1.000  H
  H188     1.0000 0.45390  0.61920  0.72250  Biso   1.000  H
  C79      1.0000 0.42967  0.52081  0.63887  Biso   1.000  C
  H189     1.0000 0.42800  0.50750  0.59810  Biso   1.000  H
  H190     1.0000 0.38280  0.55080  0.64790  Biso   1.000  H
  C80      1.0000 0.43032  0.44489  0.67490  Biso   1.000  C
  H191     1.0000 0.38290  0.44230  0.69810  Biso   1.000  H
  H192     1.0000 0.43080  0.39990  0.64920  Biso   1.000  H
  Cu17     1.0000 0.41143  0.75000  0.51576  Biso   1.000  Cu
  I17      1.0000 0.36888  0.75000  0.62802  Biso   1.000  I
  N17      1.0000 0.30844  0.75000  0.46342  Biso   1.000  N
  N18      1.0000 0.18060  0.75000  0.40052  Biso   1.000  N
  C81      1.0000 0.23664  0.75000  0.49967  Biso   1.000  C
  C82      1.0000 0.16180  0.75000  0.46325  Biso   1.000  C
  Cu18     1.0000 0.08857  0.25000  0.01576  Biso   1.000  Cu
  I18      1.0000 0.13112  0.25000  0.12802  Biso   1.000  I
  N19      1.0000 0.19156  0.25000  0.96342  Biso   1.000  N
  N20      1.0000 0.31940  0.25000  0.90052  Biso   1.000  N
  C83      1.0000 0.26336  0.25000  0.99967  Biso   1.000  C
  C84      1.0000 0.33820  0.25000  0.96325  Biso   1.000  C
  Cu19     1.0000 0.00000  0.83857  0.26576  Biso   1.000  Cu
  I19      1.0000 0.00000  0.88112  0.37802  Biso   1.000  I
  N21      1.0000 0.00000  0.94156  0.21342  Biso   1.000  N
  N22      1.0000 0.00000  0.06940  0.15052  Biso   1.000  N
  C85      1.0000 0.00000  0.01336  0.24967  Biso   1.000  C
  C86      1.0000 0.00000  0.08820  0.21325  Biso   1.000  C
  Cu20     1.0000 0.50000  0.33857  0.76576  Biso   1.000  Cu
  I20      1.0000 0.50000  0.38112  0.87802  Biso   1.000  I
  N23      1.0000 0.50000  0.44156  0.71342  Biso   1.000  N
  N24      1.0000 0.50000  0.56940  0.65052  Biso   1.000  N
  C87      1.0000 0.50000  0.51336  0.74967  Biso   1.000  C
  C88      1.0000 0.50000  0.58820  0.71325  Biso   1.000  C
  Cu21     1.0000 0.50000  0.16143  0.76576  Biso   1.000  Cu
  I21      1.0000 0.50000  0.11888  0.87802  Biso   1.000  I
  N25      1.0000 0.50000  0.05844  0.71342  Biso   1.000  N
  N26      1.0000 0.50000  0.93060  0.65052  Biso   1.000  N
  C89      1.0000 0.50000  0.98664  0.74967  Biso   1.000  C
  C90      1.0000 0.50000  0.91180  0.71325  Biso   1.000  C
  Cu22     1.0000 0.00000  0.66143  0.26576  Biso   1.000  Cu
  I22      1.0000 0.00000  0.61888  0.37802  Biso   1.000  I
  N27      1.0000 0.00000  0.55844  0.21342  Biso   1.000  N
  N28      1.0000 0.00000  0.43060  0.15052  Biso   1.000  N
  C91      1.0000 0.00000  0.48664  0.24967  Biso   1.000  C
  C92      1.0000 0.00000  0.41180  0.21325  Biso   1.000  C
  Cu23     1.0000 0.91143  0.25000  0.01576  Biso   1.000  Cu
  I23      1.0000 0.86888  0.25000  0.12802  Biso   1.000  I
  N29      1.0000 0.80844  0.25000  0.96342  Biso   1.000  N
  N30      1.0000 0.68060  0.25000  0.90052  Biso   1.000  N
  C93      1.0000 0.73664  0.25000  0.99967  Biso   1.000  C
  C94      1.0000 0.66180  0.25000  0.96325  Biso   1.000  C
  Cu24     1.0000 0.58857  0.75000  0.51576  Biso   1.000  Cu
  I24      1.0000 0.63112  0.75000  0.62802  Biso   1.000  I
  N31      1.0000 0.69156  0.75000  0.46342  Biso   1.000  N
  N32      1.0000 0.81940  0.75000  0.40052  Biso   1.000  N
  C95      1.0000 0.76336  0.75000  0.49967  Biso   1.000  C
  C96      1.0000 0.83820  0.75000  0.46325  Biso   1.000  C
  Cu25     1.0000 0.50000  0.82810  0.59994  Biso   1.000  Cu
  I25      1.0000 0.50000  0.87596  0.49060  Biso   1.000  I
  Cu26     1.0000 0.00000  0.32810  0.09994  Biso   1.000  Cu
  I26      1.0000 0.00000  0.37596  0.99060  Biso   1.000  I
  Cu27     1.0000 0.00000  0.17190  0.09994  Biso   1.000  Cu
  I27      1.0000 0.00000  0.12404  0.99060  Biso   1.000  I
  Cu28     1.0000 0.50000  0.67190  0.59994  Biso   1.000  Cu
  I28      1.0000 0.50000  0.62404  0.49060  Biso   1.000  I
  Cu29     1.0000 0.07810  0.75000  0.34994  Biso   1.000  Cu
  I29      1.0000 0.12596  0.75000  0.24060  Biso   1.000  I
  Cu30     1.0000 0.42190  0.25000  0.84994  Biso   1.000  Cu
  I30      1.0000 0.37404  0.25000  0.74060  Biso   1.000  I
  Cu31     1.0000 0.57810  0.25000  0.84994  Biso   1.000  Cu
  I31      1.0000 0.62596  0.25000  0.74060  Biso   1.000  I
  Cu32     1.0000 0.92190  0.75000  0.34994  Biso   1.000  Cu
  I32      1.0000 0.87404  0.75000  0.24060  Biso   1.000  I
