data_image0
_cell_length_a       15.631
_cell_length_b       18.456
_cell_length_c       27.517
_cell_angle_alpha    80.164
_cell_angle_beta     89.994
_cell_angle_gamma    76.264

_symmetry_space_group_name_H-M    "P 1"
_symmetry_int_tables_number       1

loop_
  _symmetry_equiv_pos_as_xyz
  'x, y, z'

loop_
  _atom_site_label
  _atom_site_occupancy
  _atom_site_fract_x
  _atom_site_fract_y
  _atom_site_fract_z
  _atom_site_thermal_displace_type
  _atom_site_B_iso_or_equiv
  _atom_site_type_symbol
  Ca1      1.0000 0.58984  0.33511  0.58634  Biso   1.000  Ca
  Ca2      1.0000 0.04931  0.82457  0.08797  Biso   1.000  Ca
  C1       1.0000 0.70340  0.20530  0.62220  Biso   1.000  C
  C2       1.0000 0.75850  0.12790  0.64750  Biso   1.000  C
  C3       1.0000 0.74560  0.09500  0.69590  Biso   1.000  C
  H1       1.0000 0.70290  0.12010  0.71470  Biso   1.000  H
  C4       1.0000 0.79900  0.02310  0.71500  Biso   1.000  C
  H2       1.0000 0.79070  0.00060  0.74700  Biso   1.000  H
  C5       1.0000 0.86540  0.98330  0.68730  Biso   1.000  C
  C6       1.0000 0.87890  0.02070  0.64070  Biso   1.000  C
  H3       1.0000 0.92370  0.99640  0.62270  Biso   1.000  H
  C7       1.0000 0.82790  0.09450  0.61880  Biso   1.000  C
  H4       1.0000 0.83940  0.11880  0.58800  Biso   1.000  H
  C8       1.0000 0.91500  0.90940  0.70820  Biso   1.000  C
  C9       1.0000 0.94070  0.89290  0.75860  Biso   1.000  C
  H5       1.0000 0.92820  0.93310  0.77590  Biso   1.000  H
  C10      1.0000 0.98290  0.82270  0.78500  Biso   1.000  C
  C11      1.0000 0.00020  0.75960  0.75690  Biso   1.000  C
  C12      1.0000 0.97510  0.77420  0.70590  Biso   1.000  C
  C13      1.0000 0.93080  0.84720  0.68320  Biso   1.000  C
  C14      1.0000 0.00410  0.81440  0.83500  Biso   1.000  C
  C15      1.0000 0.04320  0.86810  0.85310  Biso   1.000  C
  H6       1.0000 0.06230  0.90440  0.83100  Biso   1.000  H
  C16      1.0000 0.05270  0.86610  0.90380  Biso   1.000  C
  H7       1.0000 0.07890  0.90080  0.91500  Biso   1.000  H
  C17      1.0000 0.02480  0.81550  0.93650  Biso   1.000  C
  C18      1.0000 0.98630  0.75950  0.92120  Biso   1.000  C
  H8       1.0000 0.96820  0.72360  0.94420  Biso   1.000  H
  C19      1.0000 0.97680  0.76030  0.87110  Biso   1.000  C
  H9       1.0000 0.95180  0.72440  0.86060  Biso   1.000  H
  C20      1.0000 0.02720  0.81840  0.98940  Biso   1.000  C
  C21      1.0000 0.99090  0.70660  0.68160  Biso   1.000  C
  C22      1.0000 0.07470  0.67280  0.66880  Biso   1.000  C
  C23      1.0000 0.09060  0.60980  0.64590  Biso   1.000  C
  C24      1.0000 0.01750  0.58230  0.63050  Biso   1.000  C
  H10      1.0000 0.02680  0.54040  0.61480  Biso   1.000  H
  C25      1.0000 0.93030  0.62170  0.64020  Biso   1.000  C
  C26      1.0000 0.91930  0.68150  0.66670  Biso   1.000  C
  C27      1.0000 0.80680  0.67770  0.72320  Biso   1.000  C
  H11      1.0000 0.74780  0.70340  0.72920  Biso   1.000  H
  H12      1.0000 0.84540  0.67690  0.75060  Biso   1.000  H
  H13      1.0000 0.80810  0.62670  0.71940  Biso   1.000  H
  C28      1.0000 0.19760  0.73130  0.64010  Biso   1.000  C
  H14      1.0000 0.25560  0.72980  0.65240  Biso   1.000  H
  H15      1.0000 0.16860  0.78240  0.62580  Biso   1.000  H
  H16      1.0000 0.20200  0.69970  0.61540  Biso   1.000  H
  C29      1.0000 0.12920  0.67430  0.79990  Biso   1.000  C
  H17      1.0000 0.14460  0.62620  0.82170  Biso   1.000  H
  H18      1.0000 0.13280  0.71380  0.81780  Biso   1.000  H
  H19      1.0000 0.16920  0.67430  0.77340  Biso   1.000  H
  C30      1.0000 0.18140  0.56670  0.63420  Biso   1.000  C
  C31      1.0000 0.24030  0.53690  0.67520  Biso   1.000  C
  H20      1.0000 0.22670  0.54780  0.70640  Biso   1.000  H
  C32      1.0000 0.32190  0.48920  0.66590  Biso   1.000  C
  H21      1.0000 0.36280  0.46740  0.69190  Biso   1.000  H
  C33      1.0000 0.34170  0.47450  0.62000  Biso   1.000  C
  C34      1.0000 0.28560  0.50790  0.58130  Biso   1.000  C
  H22      1.0000 0.30190  0.50090  0.54960  Biso   1.000  H
  C35      1.0000 0.20460  0.55210  0.58830  Biso   1.000  C
  H23      1.0000 0.16480  0.57240  0.56150  Biso   1.000  H
  C36      1.0000 0.42810  0.42720  0.61140  Biso   1.000  C
  C37      1.0000 0.85690  0.58670  0.62690  Biso   1.000  C
  C38      1.0000 0.86470  0.50600  0.64130  Biso   1.000  C
  H24      1.0000 0.91300  0.47470  0.66020  Biso   1.000  H
  C39      1.0000 0.79610  0.47750  0.62560  Biso   1.000  C
  H25      1.0000 0.79950  0.42590  0.63420  Biso   1.000  H
  C40      1.0000 0.72550  0.52210  0.59840  Biso   1.000  C
  C41      1.0000 0.71620  0.60060  0.58370  Biso   1.000  C
  H26      1.0000 0.66800  0.63040  0.56400  Biso   1.000  H
  C42      1.0000 0.78290  0.63300  0.59990  Biso   1.000  C
  H27      1.0000 0.77680  0.68510  0.59250  Biso   1.000  H
  C43      1.0000 0.65660  0.47910  0.58160  Biso   1.000  C
  C44      1.0000 0.55120  0.32740  0.48940  Biso   1.000  C
  C45      1.0000 0.53220  0.31770  0.44110  Biso   1.000  C
  C46      1.0000 0.49530  0.25900  0.43050  Biso   1.000  C
  H28      1.0000 0.48690  0.22050  0.45530  Biso   1.000  H
  C47      1.0000 0.47190  0.26130  0.38120  Biso   1.000  C
  H29      1.0000 0.44700  0.22270  0.37470  Biso   1.000  H
  C48      1.0000 0.48150  0.31440  0.34100  Biso   1.000  C
  C49      1.0000 0.52080  0.37120  0.35420  Biso   1.000  C
  H30      1.0000 0.52960  0.40890  0.32910  Biso   1.000  H
  C50      1.0000 0.54620  0.37390  0.40110  Biso   1.000  C
  H31      1.0000 0.57250  0.41200  0.40710  Biso   1.000  H
  C51      1.0000 0.44830  0.32050  0.29090  Biso   1.000  C
  C52      1.0000 0.46780  0.25380  0.26690  Biso   1.000  C
  C53      1.0000 0.43470  0.26250  0.22030  Biso   1.000  C
  C54      1.0000 0.38380  0.33120  0.19290  Biso   1.000  C
  C55      1.0000 0.36140  0.39410  0.21830  Biso   1.000  C
  C56      1.0000 0.39870  0.38540  0.26550  Biso   1.000  C
  H32      1.0000 0.38830  0.42780  0.28070  Biso   1.000  H
  C57      1.0000 0.25220  0.34610  0.14080  Biso   1.000  C
  H33      1.0000 0.23520  0.36030  0.10630  Biso   1.000  H
  H34      1.0000 0.22450  0.38620  0.15780  Biso   1.000  H
  H35      1.0000 0.23400  0.30090  0.15420  Biso   1.000  H
  C58      1.0000 0.60340  0.17860  0.30280  Biso   1.000  C
  H36      1.0000 0.62510  0.13490  0.32790  Biso   1.000  H
  H37      1.0000 0.61040  0.22310  0.31440  Biso   1.000  H
  H38      1.0000 0.63600  0.17300  0.27350  Biso   1.000  H
  C59      1.0000 0.30790  0.47030  0.19390  Biso   1.000  C
  C60      1.0000 0.32390  0.49850  0.14530  Biso   1.000  C
  H39      1.0000 0.36650  0.46960  0.12830  Biso   1.000  H
  C61      1.0000 0.27510  0.57150  0.12180  Biso   1.000  C
  H40      1.0000 0.28650  0.59210  0.08990  Biso   1.000  H
  C62      1.0000 0.20580  0.61300  0.15000  Biso   1.000  C
  C63      1.0000 0.19020  0.58070  0.19700  Biso   1.000  C
  H41      1.0000 0.14580  0.60730  0.21420  Biso   1.000  H
  C64      1.0000 0.24000  0.50800  0.22000  Biso   1.000  C
  H42      1.0000 0.22760  0.48630  0.25150  Biso   1.000  H
  C65      1.0000 0.14830  0.68720  0.12700  Biso   1.000  C
  C66      1.0000 0.38530  0.15440  0.19230  Biso   1.000  C
  C67      1.0000 0.39640  0.08850  0.17320  Biso   1.000  C
  C68      1.0000 0.48240  0.05710  0.15790  Biso   1.000  C
  H43      1.0000 0.49260  0.01230  0.14530  Biso   1.000  H
  C69      1.0000 0.55070  0.09150  0.16150  Biso   1.000  C
  C70      1.0000 0.53230  0.16200  0.17770  Biso   1.000  C
  C71      1.0000 0.45040  0.19050  0.19550  Biso   1.000  C
  C72      1.0000 0.59730  0.26870  0.15070  Biso   1.000  C
  H44      1.0000 0.64870  0.28680  0.15590  Biso   1.000  H
  H45      1.0000 0.54560  0.30500  0.15760  Biso   1.000  H
  H46      1.0000 0.59360  0.26170  0.11710  Biso   1.000  H
  C73      1.0000 0.28710  0.14390  0.25850  Biso   1.000  C
  H47      1.0000 0.22530  0.15440  0.26470  Biso   1.000  H
  H48      1.0000 0.31800  0.15930  0.28350  Biso   1.000  H
  H49      1.0000 0.30910  0.09060  0.25900  Biso   1.000  H
  C74      1.0000 0.64010  0.05970  0.14450  Biso   1.000  C
  C75      1.0000 0.67970  0.98300  0.16540  Biso   1.000  C
  H50      1.0000 0.65030  0.95720  0.18920  Biso   1.000  H
  C76      1.0000 0.76290  0.94520  0.15080  Biso   1.000  C
  H51      1.0000 0.79390  0.89890  0.16850  Biso   1.000  H
  C77      1.0000 0.79630  0.98030  0.10870  Biso   1.000  C
  C78      1.0000 0.75760  0.05150  0.08750  Biso   1.000  C
  H52      1.0000 0.78330  0.07540  0.06090  Biso   1.000  H
  C79      1.0000 0.67710  0.09130  0.10530  Biso   1.000  C
  H53      1.0000 0.65010  0.14000  0.08930  Biso   1.000  H
  C80      1.0000 0.88170  0.94330  0.09240  Biso   1.000  C
  C81      1.0000 0.31920  0.05540  0.16200  Biso   1.000  C
  C82      1.0000 0.24670  0.09930  0.13760  Biso   1.000  C
  H54      1.0000 0.23680  0.15170  0.13350  Biso   1.000  H
  C83      1.0000 0.18490  0.06660  0.11810  Biso   1.000  C
  H55      1.0000 0.13400  0.09760  0.10140  Biso   1.000  H
  C84      1.0000 0.19830  0.99390  0.12300  Biso   1.000  C
  C85      1.0000 0.27070  0.94240  0.15020  Biso   1.000  C
  H56      1.0000 0.27640  0.89030  0.15550  Biso   1.000  H
  C86      1.0000 0.33360  0.97500  0.16880  Biso   1.000  C
  H57      1.0000 0.38460  0.94420  0.18550  Biso   1.000  H
  C87      1.0000 0.13340  0.95480  0.10000  Biso   1.000  C
  C88      1.0000 0.97830  0.85210  0.59030  Biso   1.000  C
  H58      1.0000 0.01340  0.80100  0.59400  Biso   1.000  H
  H59      1.0000 0.01590  0.88580  0.59260  Biso   1.000  H
  H60      1.0000 0.94730  0.86590  0.55870  Biso   1.000  H
  O1       1.0000 0.63220  0.22980  0.64560  Biso   1.000  O
  O2       1.0000 0.72820  0.24390  0.58620  Biso   1.000  O
  O3       1.0000 0.06120  0.87030  0.00420  Biso   1.000  O
  O4       1.0000 0.99910  0.77240  0.02180  Biso   1.000  O
  O5       1.0000 0.47460  0.37480  0.64780  Biso   1.000  O
  O6       1.0000 0.45680  0.42730  0.56660  Biso   1.000  O
  O7       1.0000 0.65730  0.41820  0.60190  Biso   1.000  O
  O8       1.0000 0.60950  0.52400  0.53980  Biso   1.000  O
  O9       1.0000 0.03870  0.68750  0.77960  Biso   1.000  O
  O10      1.0000 0.90940  0.85810  0.63280  Biso   1.000  O
  O11      1.0000 0.83600  0.71740  0.67840  Biso   1.000  O
  O12      1.0000 0.14450  0.70250  0.68240  Biso   1.000  O
  O13      1.0000 0.53990  0.27610  0.52630  Biso   1.000  O
  O14      1.0000 0.58500  0.38010  0.49940  Biso   1.000  O
  O15      1.0000 0.07990  0.71980  0.14770  Biso   1.000  O
  O16      1.0000 0.17720  0.72210  0.08750  Biso   1.000  O
  O17      1.0000 0.08830  0.99670  0.06430  Biso   1.000  O
  O18      1.0000 0.13300  0.88720  0.11890  Biso   1.000  O
  O19      1.0000 0.90050  0.96910  0.04770  Biso   1.000  O
  O20      1.0000 0.92270  0.87880  0.11560  Biso   1.000  O
  O21      1.0000 0.51370  0.18550  0.29190  Biso   1.000  O
  O22      1.0000 0.35100  0.33170  0.14720  Biso   1.000  O
  O23      1.0000 0.60350  0.19490  0.18440  Biso   1.000  O
  O24      1.0000 0.30030  0.18580  0.21010  Biso   1.000  O
  Cd1      1.0000 0.41016  0.66489  0.41366  Biso   1.000  Cd
  Cd2      1.0000 0.95069  0.17543  0.91203  Biso   1.000  Cd
  C89      1.0000 0.29660  0.79470  0.37780  Biso   1.000  C
  C90      1.0000 0.24150  0.87210  0.35250  Biso   1.000  C
  C91      1.0000 0.25440  0.90500  0.30410  Biso   1.000  C
  H61      1.0000 0.29710  0.87990  0.28530  Biso   1.000  H
  C92      1.0000 0.20100  0.97690  0.28500  Biso   1.000  C
  H62      1.0000 0.20930  0.99940  0.25300  Biso   1.000  H
  C93      1.0000 0.13460  0.01670  0.31270  Biso   1.000  C
  C94      1.0000 0.12110  0.97930  0.35930  Biso   1.000  C
  H63      1.0000 0.07630  0.00360  0.37730  Biso   1.000  H
  C95      1.0000 0.17210  0.90550  0.38120  Biso   1.000  C
  H64      1.0000 0.16060  0.88120  0.41200  Biso   1.000  H
  C96      1.0000 0.08500  0.09060  0.29180  Biso   1.000  C
  C97      1.0000 0.05930  0.10710  0.24140  Biso   1.000  C
  H65      1.0000 0.07180  0.06690  0.22410  Biso   1.000  H
  C98      1.0000 0.01710  0.17730  0.21500  Biso   1.000  C
  C99      1.0000 0.99980  0.24040  0.24310  Biso   1.000  C
  C100     1.0000 0.02490  0.22580  0.29410  Biso   1.000  C
  C101     1.0000 0.06920  0.15280  0.31680  Biso   1.000  C
  C102     1.0000 0.99590  0.18560  0.16500  Biso   1.000  C
  C103     1.0000 0.95680  0.13190  0.14690  Biso   1.000  C
  H66      1.0000 0.93770  0.09560  0.16900  Biso   1.000  H
  C104     1.0000 0.94730  0.13390  0.09620  Biso   1.000  C
  H67      1.0000 0.92110  0.09920  0.08500  Biso   1.000  H
  C105     1.0000 0.97520  0.18450  0.06350  Biso   1.000  C
  C106     1.0000 0.01370  0.24050  0.07880  Biso   1.000  C
  H68      1.0000 0.03180  0.27640  0.05580  Biso   1.000  H
  C107     1.0000 0.02320  0.23970  0.12890  Biso   1.000  C
  H69      1.0000 0.04820  0.27560  0.13940  Biso   1.000  H
  C108     1.0000 0.97280  0.18160  0.01060  Biso   1.000  C
  C109     1.0000 0.00910  0.29340  0.31840  Biso   1.000  C
  C110     1.0000 0.92530  0.32720  0.33120  Biso   1.000  C
  C111     1.0000 0.90940  0.39020  0.35410  Biso   1.000  C
  C112     1.0000 0.98250  0.41770  0.36950  Biso   1.000  C
  H70      1.0000 0.97320  0.45960  0.38520  Biso   1.000  H
  C113     1.0000 0.06970  0.37830  0.35980  Biso   1.000  C
  C114     1.0000 0.08070  0.31850  0.33330  Biso   1.000  C
  C115     1.0000 0.19320  0.32230  0.27680  Biso   1.000  C
  H71      1.0000 0.25220  0.29660  0.27080  Biso   1.000  H
  H72      1.0000 0.15460  0.32310  0.24940  Biso   1.000  H
  H73      1.0000 0.19190  0.37330  0.28060  Biso   1.000  H
  C116     1.0000 0.80240  0.26870  0.35990  Biso   1.000  C
  H74      1.0000 0.74440  0.27020  0.34760  Biso   1.000  H
  H75      1.0000 0.83140  0.21760  0.37420  Biso   1.000  H
  H76      1.0000 0.79800  0.30030  0.38460  Biso   1.000  H
  C117     1.0000 0.87080  0.32570  0.20010  Biso   1.000  C
  H77      1.0000 0.85540  0.37380  0.17830  Biso   1.000  H
  H78      1.0000 0.86720  0.28620  0.18220  Biso   1.000  H
  H79      1.0000 0.83080  0.32570  0.22660  Biso   1.000  H
  C118     1.0000 0.81860  0.43330  0.36580  Biso   1.000  C
  C119     1.0000 0.75970  0.46310  0.32480  Biso   1.000  C
  H80      1.0000 0.77330  0.45220  0.29360  Biso   1.000  H
  C120     1.0000 0.67810  0.51080  0.33410  Biso   1.000  C
  H81      1.0000 0.63720  0.53260  0.30810  Biso   1.000  H
  C121     1.0000 0.65830  0.52550  0.38000  Biso   1.000  C
  C122     1.0000 0.71440  0.49210  0.41870  Biso   1.000  C
  H82      1.0000 0.69810  0.49910  0.45040  Biso   1.000  H
  C123     1.0000 0.79540  0.44790  0.41170  Biso   1.000  C
  H83      1.0000 0.83520  0.42760  0.43850  Biso   1.000  H
  C124     1.0000 0.57190  0.57280  0.38860  Biso   1.000  C
  C125     1.0000 0.14310  0.41330  0.37310  Biso   1.000  C
  C126     1.0000 0.13530  0.49400  0.35870  Biso   1.000  C
  H84      1.0000 0.08700  0.52530  0.33980  Biso   1.000  H
  C127     1.0000 0.20390  0.52250  0.37440  Biso   1.000  C
  H85      1.0000 0.20050  0.57410  0.36580  Biso   1.000  H
  C128     1.0000 0.27450  0.47790  0.40160  Biso   1.000  C
  C129     1.0000 0.28380  0.39940  0.41630  Biso   1.000  C
  H86      1.0000 0.33200  0.36960  0.43600  Biso   1.000  H
  C130     1.0000 0.21710  0.36700  0.40010  Biso   1.000  C
  H87      1.0000 0.22320  0.31490  0.40750  Biso   1.000  H
  C131     1.0000 0.34340  0.52090  0.41840  Biso   1.000  C
  C132     1.0000 0.44880  0.67260  0.51060  Biso   1.000  C
  C133     1.0000 0.46780  0.68230  0.55890  Biso   1.000  C
  C134     1.0000 0.50470  0.74100  0.56950  Biso   1.000  C
  H88      1.0000 0.51310  0.77950  0.54470  Biso   1.000  H
  C135     1.0000 0.52810  0.73870  0.61880  Biso   1.000  C
  H89      1.0000 0.55300  0.77730  0.62530  Biso   1.000  H
  C136     1.0000 0.51850  0.68560  0.65900  Biso   1.000  C
  C137     1.0000 0.47920  0.62880  0.64580  Biso   1.000  C
  H90      1.0000 0.47040  0.59110  0.67090  Biso   1.000  H
  C138     1.0000 0.45380  0.62610  0.59890  Biso   1.000  C
  H91      1.0000 0.42750  0.58800  0.59290  Biso   1.000  H
  C139     1.0000 0.55170  0.67950  0.70910  Biso   1.000  C
  C140     1.0000 0.53220  0.74620  0.73310  Biso   1.000  C
  C141     1.0000 0.56530  0.73750  0.77970  Biso   1.000  C
  C142     1.0000 0.61620  0.66880  0.80710  Biso   1.000  C
  C143     1.0000 0.63860  0.60590  0.78170  Biso   1.000  C
  C144     1.0000 0.60130  0.61460  0.73450  Biso   1.000  C
  H92      1.0000 0.61170  0.57220  0.71930  Biso   1.000  H
  C145     1.0000 0.74780  0.65390  0.85920  Biso   1.000  C
  H93      1.0000 0.76480  0.63970  0.89370  Biso   1.000  H
  H94      1.0000 0.77550  0.61380  0.84220  Biso   1.000  H
  H95      1.0000 0.76600  0.69910  0.84580  Biso   1.000  H
  C146     1.0000 0.39660  0.82140  0.69720  Biso   1.000  C
  H96      1.0000 0.37490  0.86510  0.67210  Biso   1.000  H
  H97      1.0000 0.38960  0.77690  0.68560  Biso   1.000  H
  H98      1.0000 0.36400  0.82700  0.72650  Biso   1.000  H
  C147     1.0000 0.69210  0.52970  0.80610  Biso   1.000  C
  C148     1.0000 0.67610  0.50150  0.85470  Biso   1.000  C
  H99      1.0000 0.63350  0.53040  0.87170  Biso   1.000  H
  C149     1.0000 0.72490  0.42850  0.87820  Biso   1.000  C
  H100     1.0000 0.71350  0.40790  0.91010  Biso   1.000  H
  C150     1.0000 0.79420  0.38700  0.85000  Biso   1.000  C
  C151     1.0000 0.80980  0.41930  0.80300  Biso   1.000  C
  H101     1.0000 0.85420  0.39270  0.78580  Biso   1.000  H
  C152     1.0000 0.76000  0.49200  0.78000  Biso   1.000  C
  H102     1.0000 0.77240  0.51370  0.74850  Biso   1.000  H
  C153     1.0000 0.85170  0.31280  0.87300  Biso   1.000  C
  C154     1.0000 0.61470  0.84560  0.80770  Biso   1.000  C
  C155     1.0000 0.60360  0.91150  0.82680  Biso   1.000  C
  C156     1.0000 0.51760  0.94290  0.84210  Biso   1.000  C
  H103     1.0000 0.50740  0.98770  0.85470  Biso   1.000  H
  C157     1.0000 0.44930  0.90850  0.83850  Biso   1.000  C
  C158     1.0000 0.46770  0.83800  0.82230  Biso   1.000  C
  C159     1.0000 0.54960  0.80950  0.80450  Biso   1.000  C
  C160     1.0000 0.40270  0.73130  0.84930  Biso   1.000  C
  H104     1.0000 0.35130  0.71320  0.84410  Biso   1.000  H
  H105     1.0000 0.45440  0.69500  0.84240  Biso   1.000  H
  H106     1.0000 0.40640  0.73830  0.88290  Biso   1.000  H
  C161     1.0000 0.71290  0.85610  0.74150  Biso   1.000  C
  H107     1.0000 0.77470  0.84560  0.73530  Biso   1.000  H
  H108     1.0000 0.68200  0.84070  0.71650  Biso   1.000  H
  H109     1.0000 0.69090  0.90940  0.74100  Biso   1.000  H
  C162     1.0000 0.35990  0.94030  0.85550  Biso   1.000  C
  C163     1.0000 0.32030  0.01700  0.83460  Biso   1.000  C
  H110     1.0000 0.34970  0.04280  0.81080  Biso   1.000  H
  C164     1.0000 0.23710  0.05480  0.84920  Biso   1.000  C
  H111     1.0000 0.20610  0.10110  0.83150  Biso   1.000  H
  C165     1.0000 0.20370  0.01970  0.89130  Biso   1.000  C
  C166     1.0000 0.24240  0.94850  0.91250  Biso   1.000  C
  H112     1.0000 0.21670  0.92460  0.93910  Biso   1.000  H
  C167     1.0000 0.32290  0.90870  0.89470  Biso   1.000  C
  H113     1.0000 0.34990  0.86000  0.91070  Biso   1.000  H
  C168     1.0000 0.11830  0.05670  0.90760  Biso   1.000  C
  C169     1.0000 0.68080  0.94460  0.83800  Biso   1.000  C
  C170     1.0000 0.75330  0.90070  0.86240  Biso   1.000  C
  H114     1.0000 0.76320  0.84830  0.86650  Biso   1.000  H
  C171     1.0000 0.81510  0.93340  0.88190  Biso   1.000  C
  H115     1.0000 0.86600  0.90240  0.89860  Biso   1.000  H
  C172     1.0000 0.80170  0.00610  0.87700  Biso   1.000  C
  C173     1.0000 0.72930  0.05760  0.84980  Biso   1.000  C
  H116     1.0000 0.72360  0.10970  0.84450  Biso   1.000  H
  C174     1.0000 0.66640  0.02500  0.83120  Biso   1.000  C
  H117     1.0000 0.61540  0.05580  0.81450  Biso   1.000  H
  C175     1.0000 0.86660  0.04520  0.90000  Biso   1.000  C
  C176     1.0000 0.02170  0.14790  0.40970  Biso   1.000  C
  H118     1.0000 0.98660  0.19900  0.40600  Biso   1.000  H
  H119     1.0000 0.98410  0.11420  0.40740  Biso   1.000  H
  H120     1.0000 0.05270  0.13410  0.44130  Biso   1.000  H
  O25      1.0000 0.36780  0.77020  0.35440  Biso   1.000  O
  O26      1.0000 0.27180  0.75610  0.41380  Biso   1.000  O
  O27      1.0000 0.93880  0.12970  0.99580  Biso   1.000  O
  O28      1.0000 0.00090  0.22760  0.97820  Biso   1.000  O
  O29      1.0000 0.52540  0.62520  0.35220  Biso   1.000  O
  O30      1.0000 0.54320  0.57270  0.43340  Biso   1.000  O
  O31      1.0000 0.34270  0.58180  0.39810  Biso   1.000  O
  O32      1.0000 0.39050  0.47600  0.46020  Biso   1.000  O
  O33      1.0000 0.96130  0.31250  0.22040  Biso   1.000  O
  O34      1.0000 0.09060  0.14190  0.36720  Biso   1.000  O
  O35      1.0000 0.16400  0.28260  0.32160  Biso   1.000  O
  O36      1.0000 0.85550  0.29750  0.31760  Biso   1.000  O
  O37      1.0000 0.46010  0.72390  0.47370  Biso   1.000  O
  O38      1.0000 0.41500  0.61990  0.50060  Biso   1.000  O
  O39      1.0000 0.92010  0.28020  0.85230  Biso   1.000  O
  O40      1.0000 0.82280  0.27790  0.91250  Biso   1.000  O
  O41      1.0000 0.91170  0.00330  0.93570  Biso   1.000  O
  O42      1.0000 0.86700  0.11280  0.88110  Biso   1.000  O
  O43      1.0000 0.09950  0.03090  0.95230  Biso   1.000  O
  O44      1.0000 0.07730  0.12120  0.88440  Biso   1.000  O
  O45      1.0000 0.48630  0.81450  0.70810  Biso   1.000  O
  O46      1.0000 0.64900  0.66830  0.85280  Biso   1.000  O
  O47      1.0000 0.39650  0.80510  0.81560  Biso   1.000  O
  O48      1.0000 0.69970  0.81420  0.78990  Biso   1.000  O
  Ca3      1.0000 0.50000  0.50000  0.50000  Biso   1.000  Ca
  Ca4      1.0000 0.00000  0.00000  0.00000  Biso   1.000  Ca
