data_image0
_cell_length_a       6.5228
_cell_length_b       13.8413
_cell_length_c       15.6405
_cell_angle_alpha    96.641
_cell_angle_beta     93.775
_cell_angle_gamma    94.727

_symmetry_space_group_name_H-M    "P 1"
_symmetry_int_tables_number       1

loop_
  _symmetry_equiv_pos_as_xyz
  'x, y, z'

loop_
  _atom_site_label
  _atom_site_occupancy
  _atom_site_fract_x
  _atom_site_fract_y
  _atom_site_fract_z
  _atom_site_thermal_displace_type
  _atom_site_B_iso_or_equiv
  _atom_site_type_symbol
  Cu1      1.0000 0.69599  0.70859  0.70819  Biso   1.000  Cu
  N1       1.0000 0.91510  0.98330  0.98230  Biso   1.000  N
  N2       1.0000 0.52640  0.56190  0.91370  Biso   1.000  N
  N3       1.0000 0.80010  0.78570  0.61630  Biso   1.000  N
  N4       1.0000 0.57660  0.63800  0.80250  Biso   1.000  N
  N5       1.0000 0.57740  0.51190  0.98230  Biso   1.000  N
  N6       1.0000 0.85390  0.80790  0.80230  Biso   1.000  N
  N7       1.0000 0.51080  0.61450  0.62370  Biso   1.000  N
  N8       1.0000 0.22910  0.54630  0.55270  Biso   1.000  N
  N9       1.0000 0.99780  0.99550  0.53850  Biso   1.000  N
  N10      1.0000 0.06630  0.81210  0.81880  Biso   1.000  N
  N11      1.0000 0.94060  0.91110  0.91560  Biso   1.000  N
  C1       1.0000 0.34080  0.63160  0.58110  Biso   1.000  C
  H1       1.0000 0.30290  0.69310  0.57190  Biso   1.000  H
  N12      1.0000 0.91400  0.90120  0.54620  Biso   1.000  N
  N13      1.0000 0.77040  0.75060  0.52830  Biso   1.000  N
  C2       1.0000 0.78160  0.86750  0.86040  Biso   1.000  C
  H2       1.0000 0.64350  0.87860  0.86380  Biso   1.000  H
  N14      1.0000 0.51050  0.51350  0.62300  Biso   1.000  N
  C3       1.0000 0.11390  0.87580  0.88670  Biso   1.000  C
  H3       1.0000 0.24690  0.89420  0.91160  Biso   1.000  H
  N15      1.0000 0.03430  0.54300  0.50970  Biso   1.000  N
  N16      1.0000 0.36800  0.63390  0.81610  Biso   1.000  N
  C4       1.0000 0.88250  0.87420  0.62460  Biso   1.000  C
  H4       1.0000 0.91530  0.91360  0.67680  Biso   1.000  H
  C5       1.0000 0.34000  0.47410  0.57980  Biso   1.000  C
  H5       1.0000 0.30020  0.40750  0.56910  Biso   1.000  H
  C6       1.0000 0.66890  0.59410  0.86090  Biso   1.000  C
  H6       1.0000 0.80910  0.58600  0.86600  Biso   1.000  H
  C7       1.0000 0.83930  0.82250  0.48780  Biso   1.000  C
  H7       1.0000 0.83790  0.82070  0.42810  Biso   1.000  H
  C8       1.0000 0.34240  0.58830  0.88330  Biso   1.000  C
  H8       1.0000 0.21720  0.57570  0.90690  Biso   1.000  H
  Cu2      1.0000 0.30401  0.29141  0.29181  Biso   1.000  Cu
  N17      1.0000 0.08490  0.01670  0.01770  Biso   1.000  N
  N18      1.0000 0.47360  0.43810  0.08630  Biso   1.000  N
  N19      1.0000 0.19990  0.21430  0.38370  Biso   1.000  N
  N20      1.0000 0.42340  0.36200  0.19750  Biso   1.000  N
  N21      1.0000 0.42260  0.48810  0.01770  Biso   1.000  N
  N22      1.0000 0.14610  0.19210  0.19770  Biso   1.000  N
  N23      1.0000 0.48920  0.38550  0.37630  Biso   1.000  N
  N24      1.0000 0.77090  0.45370  0.44730  Biso   1.000  N
  N25      1.0000 0.00220  0.00450  0.46150  Biso   1.000  N
  N26      1.0000 0.93370  0.18790  0.18120  Biso   1.000  N
  N27      1.0000 0.05940  0.08890  0.08440  Biso   1.000  N
  C9       1.0000 0.65920  0.36840  0.41890  Biso   1.000  C
  H9       1.0000 0.69710  0.30690  0.42810  Biso   1.000  H
  N28      1.0000 0.08600  0.09880  0.45380  Biso   1.000  N
  N29      1.0000 0.22960  0.24940  0.47170  Biso   1.000  N
  C10      1.0000 0.21840  0.13250  0.13960  Biso   1.000  C
  H10      1.0000 0.35650  0.12140  0.13620  Biso   1.000  H
  N30      1.0000 0.48950  0.48650  0.37700  Biso   1.000  N
  C11      1.0000 0.88610  0.12420  0.11330  Biso   1.000  C
  H11      1.0000 0.75310  0.10580  0.08840  Biso   1.000  H
  N31      1.0000 0.96570  0.45700  0.49030  Biso   1.000  N
  N32      1.0000 0.63200  0.36610  0.18390  Biso   1.000  N
  C12      1.0000 0.11750  0.12580  0.37540  Biso   1.000  C
  H12      1.0000 0.08470  0.08640  0.32320  Biso   1.000  H
  C13      1.0000 0.66000  0.52590  0.42020  Biso   1.000  C
  H13      1.0000 0.69980  0.59250  0.43090  Biso   1.000  H
  C14      1.0000 0.33110  0.40590  0.13910  Biso   1.000  C
  H14      1.0000 0.19090  0.41400  0.13400  Biso   1.000  H
  C15      1.0000 0.16070  0.17750  0.51220  Biso   1.000  C
  H15      1.0000 0.16210  0.17930  0.57190  Biso   1.000  H
  C16      1.0000 0.65760  0.41170  0.11670  Biso   1.000  C
  H16      1.0000 0.78280  0.42430  0.09310  Biso   1.000  H
