data_image0
_cell_length_a       11.528
_cell_length_b       11.528
_cell_length_c       15.168
_cell_angle_alpha    90
_cell_angle_beta     90
_cell_angle_gamma    120

_symmetry_space_group_name_H-M    "P 1"
_symmetry_int_tables_number       1

loop_
  _symmetry_equiv_pos_as_xyz
  'x, y, z'

loop_
  _atom_site_label
  _atom_site_occupancy
  _atom_site_fract_x
  _atom_site_fract_y
  _atom_site_fract_z
  _atom_site_thermal_displace_type
  _atom_site_B_iso_or_equiv
  _atom_site_type_symbol
  C1       1.0000 0.08950  0.16660  0.17980  Biso   1.000  C
  H1       1.0000 0.18490  0.19860  0.18160  Biso   1.000  H
  H2       1.0000 0.06310  0.15820  0.11840  Biso   1.000  H
  C2       1.0000 0.06310  0.26990  0.22370  Biso   1.000  C
  H3       1.0000 0.96720  0.23500  0.22710  Biso   1.000  H
  H4       1.0000 0.09820  0.28610  0.28330  Biso   1.000  H
  C3       1.0000 0.12760  0.40090  0.17300  Biso   1.000  C
  O1       1.0000 0.24570  0.48920  0.19520  Biso   1.000  O
  O2       1.0000 0.06640  0.41580  0.11210  Biso   1.000  O
  C4       1.0000 0.49310  0.71640  0.92920  Biso   1.000  C
  H5       1.0000 0.52240  0.65430  0.94710  Biso   1.000  H
  H6       1.0000 0.48110  0.70930  0.86570  Biso   1.000  H
  C5       1.0000 0.60220  0.85740  0.95170  Biso   1.000  C
  H7       1.0000 0.58120  0.92120  0.92490  Biso   1.000  H
  H8       1.0000 0.60540  0.86990  0.01510  Biso   1.000  H
  C6       1.0000 0.73750  0.88420  0.91940  Biso   1.000  C
  O3       1.0000 0.83960  0.99060  0.94820  Biso   1.000  O
  O4       1.0000 0.74640  0.80850  0.86550  Biso   1.000  O
  C7       1.0000 0.83340  0.92290  0.17980  Biso   1.000  C
  H9       1.0000 0.80140  0.98630  0.18160  Biso   1.000  H
  H10      1.0000 0.84180  0.90490  0.11840  Biso   1.000  H
  C8       1.0000 0.73010  0.79320  0.22370  Biso   1.000  C
  H11      1.0000 0.76500  0.73220  0.22710  Biso   1.000  H
  H12      1.0000 0.71390  0.81210  0.28330  Biso   1.000  H
  C9       1.0000 0.59910  0.72670  0.17300  Biso   1.000  C
  O5       1.0000 0.51080  0.75650  0.19520  Biso   1.000  O
  O6       1.0000 0.58420  0.65060  0.11210  Biso   1.000  O
  C10      1.0000 0.28360  0.77670  0.92920  Biso   1.000  C
  H13      1.0000 0.34570  0.86810  0.94710  Biso   1.000  H
  H14      1.0000 0.29070  0.77180  0.86570  Biso   1.000  H
  C11      1.0000 0.14260  0.74480  0.95170  Biso   1.000  C
  H15      1.0000 0.07880  0.66000  0.92490  Biso   1.000  H
  H16      1.0000 0.13010  0.73550  0.01510  Biso   1.000  H
  C12      1.0000 0.11580  0.85330  0.91940  Biso   1.000  C
  O7       1.0000 0.00940  0.84900  0.94820  Biso   1.000  O
  O8       1.0000 0.19150  0.93790  0.86550  Biso   1.000  O
  C13      1.0000 0.07710  0.91050  0.17980  Biso   1.000  C
  H17      1.0000 0.01370  0.81510  0.18160  Biso   1.000  H
  H18      1.0000 0.09510  0.93690  0.11840  Biso   1.000  H
  C14      1.0000 0.20680  0.93690  0.22370  Biso   1.000  C
  H19      1.0000 0.26780  0.03280  0.22710  Biso   1.000  H
  H20      1.0000 0.18790  0.90180  0.28330  Biso   1.000  H
  C15      1.0000 0.27330  0.87240  0.17300  Biso   1.000  C
  O9       1.0000 0.24350  0.75430  0.19520  Biso   1.000  O
  O10      1.0000 0.34940  0.93360  0.11210  Biso   1.000  O
  C16      1.0000 0.22330  0.50690  0.92920  Biso   1.000  C
  H21      1.0000 0.13190  0.47760  0.94710  Biso   1.000  H
  H22      1.0000 0.22820  0.51890  0.86570  Biso   1.000  H
  C17      1.0000 0.25520  0.39780  0.95170  Biso   1.000  C
  H23      1.0000 0.34000  0.41880  0.92490  Biso   1.000  H
  H24      1.0000 0.26450  0.39460  0.01510  Biso   1.000  H
  C18      1.0000 0.14670  0.26250  0.91940  Biso   1.000  C
  O11      1.0000 0.15100  0.16040  0.94820  Biso   1.000  O
  O12      1.0000 0.06210  0.25360  0.86550  Biso   1.000  O
  C19      1.0000 0.91050  0.83340  0.67980  Biso   1.000  C
  H25      1.0000 0.81510  0.80140  0.68160  Biso   1.000  H
  H26      1.0000 0.93690  0.84180  0.61840  Biso   1.000  H
  C20      1.0000 0.93690  0.73010  0.72370  Biso   1.000  C
  H27      1.0000 0.03280  0.76500  0.72710  Biso   1.000  H
  H28      1.0000 0.90180  0.71390  0.78330  Biso   1.000  H
  C21      1.0000 0.87240  0.59910  0.67300  Biso   1.000  C
  O13      1.0000 0.75430  0.51080  0.69520  Biso   1.000  O
  O14      1.0000 0.93360  0.58420  0.61210  Biso   1.000  O
  C22      1.0000 0.50690  0.28360  0.42920  Biso   1.000  C
  H29      1.0000 0.47760  0.34570  0.44710  Biso   1.000  H
  H30      1.0000 0.51890  0.29070  0.36570  Biso   1.000  H
  C23      1.0000 0.39780  0.14260  0.45170  Biso   1.000  C
  H31      1.0000 0.41880  0.07880  0.42490  Biso   1.000  H
  H32      1.0000 0.39460  0.13010  0.51510  Biso   1.000  H
  C24      1.0000 0.26250  0.11580  0.41940  Biso   1.000  C
  O15      1.0000 0.16040  0.00940  0.44820  Biso   1.000  O
  O16      1.0000 0.25360  0.19150  0.36550  Biso   1.000  O
  C25      1.0000 0.16660  0.07710  0.67980  Biso   1.000  C
  H33      1.0000 0.19860  0.01370  0.68160  Biso   1.000  H
  H34      1.0000 0.15820  0.09510  0.61840  Biso   1.000  H
  C26      1.0000 0.26990  0.20680  0.72370  Biso   1.000  C
  H35      1.0000 0.23500  0.26780  0.72710  Biso   1.000  H
  H36      1.0000 0.28610  0.18790  0.78330  Biso   1.000  H
  C27      1.0000 0.40090  0.27330  0.67300  Biso   1.000  C
  O17      1.0000 0.48920  0.24350  0.69520  Biso   1.000  O
  O18      1.0000 0.41580  0.34940  0.61210  Biso   1.000  O
  C28      1.0000 0.71640  0.22330  0.42920  Biso   1.000  C
  H37      1.0000 0.65430  0.13190  0.44710  Biso   1.000  H
  H38      1.0000 0.70930  0.22820  0.36570  Biso   1.000  H
  C29      1.0000 0.85740  0.25520  0.45170  Biso   1.000  C
  H39      1.0000 0.92120  0.34000  0.42490  Biso   1.000  H
  H40      1.0000 0.86990  0.26450  0.51510  Biso   1.000  H
  C30      1.0000 0.88420  0.14670  0.41940  Biso   1.000  C
  O19      1.0000 0.99060  0.15100  0.44820  Biso   1.000  O
  O20      1.0000 0.80850  0.06210  0.36550  Biso   1.000  O
  C31      1.0000 0.92290  0.08950  0.67980  Biso   1.000  C
  H41      1.0000 0.98630  0.18490  0.68160  Biso   1.000  H
  H42      1.0000 0.90490  0.06310  0.61840  Biso   1.000  H
  C32      1.0000 0.79320  0.06310  0.72370  Biso   1.000  C
  H43      1.0000 0.73220  0.96720  0.72710  Biso   1.000  H
  H44      1.0000 0.81210  0.09820  0.78330  Biso   1.000  H
  C33      1.0000 0.72670  0.12760  0.67300  Biso   1.000  C
  O21      1.0000 0.75650  0.24570  0.69520  Biso   1.000  O
  O22      1.0000 0.65060  0.06640  0.61210  Biso   1.000  O
  C34      1.0000 0.77670  0.49310  0.42920  Biso   1.000  C
  H45      1.0000 0.86810  0.52240  0.44710  Biso   1.000  H
  H46      1.0000 0.77180  0.48110  0.36570  Biso   1.000  H
  C35      1.0000 0.74480  0.60220  0.45170  Biso   1.000  C
  H47      1.0000 0.66000  0.58120  0.42490  Biso   1.000  H
  H48      1.0000 0.73550  0.60540  0.51510  Biso   1.000  H
  C36      1.0000 0.85330  0.73750  0.41940  Biso   1.000  C
  O23      1.0000 0.84900  0.83960  0.44820  Biso   1.000  O
  O24      1.0000 0.93790  0.74640  0.36550  Biso   1.000  O
  Zn1      1.0000 0.33333  0.66667  0.13592  Biso   1.000  Zn
  P1       1.0000 0.33333  0.66667  0.98052  Biso   1.000  P
  Zn2      1.0000 0.66667  0.33333  0.63592  Biso   1.000  Zn
  P2       1.0000 0.66667  0.33333  0.48052  Biso   1.000  P
  P3       1.0000 0.00000  0.00000  0.23164  Biso   1.000  P
  Zn3      1.0000 0.00000  0.00000  0.38890  Biso   1.000  Zn
  P4       1.0000 0.00000  0.00000  0.73164  Biso   1.000  P
  Zn4      1.0000 0.00000  0.00000  0.88890  Biso   1.000  Zn
