data_image0
_cell_length_a       11.819
_cell_length_b       12.6741
_cell_length_c       13.7585
_cell_angle_alpha    85.8653
_cell_angle_beta     81.6197
_cell_angle_gamma    84.0945

_symmetry_space_group_name_H-M    "P 1"
_symmetry_int_tables_number       1

loop_
  _symmetry_equiv_pos_as_xyz
  'x, y, z'

loop_
  _atom_site_label
  _atom_site_occupancy
  _atom_site_fract_x
  _atom_site_fract_y
  _atom_site_fract_z
  _atom_site_thermal_displace_type
  _atom_site_B_iso_or_equiv
  _atom_site_type_symbol
  Cu1      1.0000 0.73539  0.72229  0.98772  Biso   1.000  Cu
  Cu2      1.0000 0.27163  0.29616  0.51878  Biso   1.000  Cu
  N1       1.0000 0.63300  0.63900  0.92470  Biso   1.000  N
  N2       1.0000 0.35790  0.37100  0.60350  Biso   1.000  N
  N3       1.0000 0.65470  0.82860  0.08730  Biso   1.000  N
  N4       1.0000 0.37750  0.21150  0.41540  Biso   1.000  N
  N5       1.0000 0.83150  0.82040  0.89110  Biso   1.000  N
  N6       1.0000 0.17530  0.18090  0.59470  Biso   1.000  N
  N7       1.0000 0.84160  0.62070  0.06540  Biso   1.000  N
  N8       1.0000 0.15860  0.39100  0.44340  Biso   1.000  N
  C1       1.0000 0.54470  0.68670  0.88010  Biso   1.000  C
  C2       1.0000 0.49160  0.63710  0.81660  Biso   1.000  C
  C3       1.0000 0.52540  0.53200  0.79730  Biso   1.000  C
  C4       1.0000 0.61350  0.47980  0.84610  Biso   1.000  C
  C5       1.0000 0.66400  0.53720  0.90750  Biso   1.000  C
  C6       1.0000 0.47190  0.47610  0.72720  Biso   1.000  C
  C7       1.0000 0.46240  0.36720  0.74050  Biso   1.000  C
  C8       1.0000 0.40520  0.31920  0.67850  Biso   1.000  C
  C9       1.0000 0.37050  0.47490  0.59000  Biso   1.000  C
  C10      1.0000 0.42650  0.52950  0.64800  Biso   1.000  C
  C11      1.0000 0.71550  0.88190  0.13860  Biso   1.000  C
  C12      1.0000 0.66810  0.95590  0.20560  Biso   1.000  C
  C13      1.0000 0.55010  0.97820  0.22190  Biso   1.000  C
  C14      1.0000 0.48460  0.92200  0.16910  Biso   1.000  C
  C15      1.0000 0.53980  0.84920  0.10410  Biso   1.000  C
  C16      1.0000 0.49190  0.05900  0.28920  Biso   1.000  C
  C17      1.0000 0.38750  0.11140  0.27410  Biso   1.000  C
  C18      1.0000 0.33370  0.18580  0.33690  Biso   1.000  C
  C19      1.0000 0.47970  0.16110  0.42980  Biso   1.000  C
  C20      1.0000 0.53890  0.08630  0.36920  Biso   1.000  C
  C21      1.0000 0.91980  0.78560  0.82480  Biso   1.000  C
  C22      1.0000 0.98520  0.85180  0.76210  Biso   1.000  C
  C23      1.0000 0.96120  0.96090  0.76490  Biso   1.000  C
  C24      1.0000 0.86780  0.99850  0.83220  Biso   1.000  C
  C25      1.0000 0.80670  0.92610  0.89200  Biso   1.000  C
  C26      1.0000 0.03430  0.03710  0.70410  Biso   1.000  C
  C27      1.0000 0.04270  0.13680  0.73660  Biso   1.000  C
  C28      1.0000 0.11250  0.20530  0.68100  Biso   1.000  C
  C29      1.0000 0.16720  0.08500  0.56350  Biso   1.000  C
  C30      1.0000 0.09890  0.01120  0.61470  Biso   1.000  C
  C31      1.0000 0.80280  0.54100  0.12790  Biso   1.000  C
  C32      1.0000 0.86040  0.49480  0.20140  Biso   1.000  C
  C33      1.0000 0.96510  0.52860  0.21530  Biso   1.000  C
  C34      1.0000 0.00820  0.60720  0.14860  Biso   1.000  C
  C35      1.0000 0.94530  0.65030  0.07590  Biso   1.000  C
  C36      1.0000 0.02920  0.48410  0.29680  Biso   1.000  C
  C37      1.0000 0.13110  0.52100  0.31020  Biso   1.000  C
  C38      1.0000 0.19290  0.47240  0.38170  Biso   1.000  C
  C39      1.0000 0.05610  0.36080  0.43470  Biso   1.000  C
  C40      1.0000 0.98960  0.40380  0.36380  Biso   1.000  C
  H1       1.0000 0.51800  0.75900  0.89400  Biso   1.000  H
  H2       1.0000 0.43100  0.67500  0.78500  Biso   1.000  H
  H3       1.0000 0.63800  0.40600  0.83800  Biso   1.000  H
  H4       1.0000 0.72400  0.50100  0.94000  Biso   1.000  H
  H5       1.0000 0.49500  0.32600  0.79300  Biso   1.000  H
  H6       1.0000 0.40000  0.24400  0.68800  Biso   1.000  H
  H7       1.0000 0.33900  0.51400  0.53600  Biso   1.000  H
  H8       1.0000 0.43300  0.60400  0.63500  Biso   1.000  H
  H9       1.0000 0.79800  0.86800  0.12800  Biso   1.000  H
  H10      1.0000 0.71600  0.99200  0.24000  Biso   1.000  H
  H11      1.0000 0.40200  0.93400  0.17900  Biso   1.000  H
  H12      1.0000 0.49400  0.81200  0.06900  Biso   1.000  H
  H13      1.0000 0.35200  0.09500  0.21900  Biso   1.000  H
  H14      1.0000 0.26100  0.22200  0.32400  Biso   1.000  H
  H15      1.0000 0.51300  0.17900  0.48500  Biso   1.000  H
  H16      1.0000 0.61200  0.05300  0.38300  Biso   1.000  H
  H17      1.0000 0.93800  0.71000  0.82100  Biso   1.000  H
  H18      1.0000 0.04800  0.82300  0.71600  Biso   1.000  H
  H19      1.0000 0.84600  0.07300  0.83600  Biso   1.000  H
  H20      1.0000 0.74300  0.95300  0.93800  Biso   1.000  H
  H21      1.0000 0.99900  0.15800  0.79800  Biso   1.000  H
  H22      1.0000 0.11700  0.27400  0.70500  Biso   1.000  H
  H23      1.0000 0.21100  0.06600  0.50200  Biso   1.000  H
  H24      1.0000 0.09600  0.94300  0.58900  Biso   1.000  H
  H25      1.0000 0.73100  0.51600  0.12000  Biso   1.000  H
  H26      1.0000 0.82900  0.43900  0.24400  Biso   1.000  H
  H27      1.0000 0.08200  0.63100  0.15200  Biso   1.000  H
  H28      1.0000 0.97600  0.70500  0.03100  Biso   1.000  H
  H29      1.0000 0.16000  0.57900  0.26900  Biso   1.000  H
  H30      1.0000 0.26500  0.49800  0.38800  Biso   1.000  H
  H31      1.0000 0.02700  0.30600  0.48000  Biso   1.000  H
  H32      1.0000 0.91700  0.37800  0.36100  Biso   1.000  H
  Cu3      1.0000 0.26461  0.27771  0.01228  Biso   1.000  Cu
  Cu4      1.0000 0.72837  0.70384  0.48122  Biso   1.000  Cu
  N9       1.0000 0.36700  0.36100  0.07530  Biso   1.000  N
  N10      1.0000 0.64210  0.62900  0.39650  Biso   1.000  N
  N11      1.0000 0.34530  0.17140  0.91270  Biso   1.000  N
  N12      1.0000 0.62250  0.78850  0.58460  Biso   1.000  N
  N13      1.0000 0.16850  0.17960  0.10890  Biso   1.000  N
  N14      1.0000 0.82470  0.81910  0.40530  Biso   1.000  N
  N15      1.0000 0.15840  0.37930  0.93460  Biso   1.000  N
  N16      1.0000 0.84140  0.60900  0.55660  Biso   1.000  N
  C41      1.0000 0.45530  0.31330  0.11990  Biso   1.000  C
  C42      1.0000 0.50840  0.36290  0.18340  Biso   1.000  C
  C43      1.0000 0.47460  0.46800  0.20270  Biso   1.000  C
  C44      1.0000 0.38650  0.52020  0.15390  Biso   1.000  C
  C45      1.0000 0.33600  0.46280  0.09250  Biso   1.000  C
  C46      1.0000 0.52810  0.52390  0.27280  Biso   1.000  C
  C47      1.0000 0.53760  0.63280  0.25950  Biso   1.000  C
  C48      1.0000 0.59480  0.68080  0.32150  Biso   1.000  C
  C49      1.0000 0.62950  0.52510  0.41000  Biso   1.000  C
  C50      1.0000 0.57350  0.47050  0.35200  Biso   1.000  C
  C51      1.0000 0.28450  0.11810  0.86140  Biso   1.000  C
  C52      1.0000 0.33190  0.04410  0.79440  Biso   1.000  C
  C53      1.0000 0.44990  0.02180  0.77810  Biso   1.000  C
  C54      1.0000 0.51540  0.07800  0.83090  Biso   1.000  C
  C55      1.0000 0.46020  0.15080  0.89590  Biso   1.000  C
  C56      1.0000 0.50810  0.94100  0.71080  Biso   1.000  C
  C57      1.0000 0.61250  0.88860  0.72590  Biso   1.000  C
  C58      1.0000 0.66630  0.81420  0.66310  Biso   1.000  C
  C59      1.0000 0.52030  0.83890  0.57020  Biso   1.000  C
  C60      1.0000 0.46110  0.91370  0.63080  Biso   1.000  C
  C61      1.0000 0.08020  0.21440  0.17520  Biso   1.000  C
  C62      1.0000 0.01480  0.14820  0.23790  Biso   1.000  C
  C63      1.0000 0.03880  0.03910  0.23510  Biso   1.000  C
  C64      1.0000 0.13220  0.00150  0.16780  Biso   1.000  C
  C65      1.0000 0.19330  0.07390  0.10800  Biso   1.000  C
  C66      1.0000 0.96570  0.96290  0.29590  Biso   1.000  C
  C67      1.0000 0.95730  0.86320  0.26340  Biso   1.000  C
  C68      1.0000 0.88750  0.79470  0.31900  Biso   1.000  C
  C69      1.0000 0.83280  0.91500  0.43650  Biso   1.000  C
  C70      1.0000 0.90110  0.98880  0.38530  Biso   1.000  C
  C71      1.0000 0.19720  0.45900  0.87210  Biso   1.000  C
  C72      1.0000 0.13960  0.50520  0.79860  Biso   1.000  C
  C73      1.0000 0.03490  0.47140  0.78470  Biso   1.000  C
  C74      1.0000 0.99180  0.39280  0.85140  Biso   1.000  C
  C75      1.0000 0.05470  0.34970  0.92410  Biso   1.000  C
  C76      1.0000 0.97080  0.51590  0.70320  Biso   1.000  C
  C77      1.0000 0.86890  0.47900  0.68980  Biso   1.000  C
  C78      1.0000 0.80710  0.52760  0.61830  Biso   1.000  C
  C79      1.0000 0.94390  0.63920  0.56530  Biso   1.000  C
  C80      1.0000 0.01040  0.59620  0.63620  Biso   1.000  C
  H33      1.0000 0.48200  0.24100  0.10600  Biso   1.000  H
  H34      1.0000 0.56900  0.32500  0.21500  Biso   1.000  H
  H35      1.0000 0.36200  0.59400  0.16200  Biso   1.000  H
  H36      1.0000 0.27600  0.49900  0.06000  Biso   1.000  H
  H37      1.0000 0.50500  0.67400  0.20700  Biso   1.000  H
  H38      1.0000 0.60000  0.75600  0.31200  Biso   1.000  H
  H39      1.0000 0.66100  0.48600  0.46400  Biso   1.000  H
  H40      1.0000 0.56700  0.39600  0.36500  Biso   1.000  H
  H41      1.0000 0.20200  0.13200  0.87200  Biso   1.000  H
  H42      1.0000 0.28400  0.00800  0.76000  Biso   1.000  H
  H43      1.0000 0.59800  0.06600  0.82100  Biso   1.000  H
  H44      1.0000 0.50600  0.18800  0.93100  Biso   1.000  H
  H45      1.0000 0.64800  0.90500  0.78100  Biso   1.000  H
  H46      1.0000 0.73900  0.77800  0.67600  Biso   1.000  H
  H47      1.0000 0.48700  0.82100  0.51500  Biso   1.000  H
  H48      1.0000 0.38800  0.94700  0.61700  Biso   1.000  H
  H49      1.0000 0.06200  0.29000  0.17900  Biso   1.000  H
  H50      1.0000 0.95200  0.17700  0.28400  Biso   1.000  H
  H51      1.0000 0.15400  0.92700  0.16400  Biso   1.000  H
  H52      1.0000 0.25700  0.04700  0.06200  Biso   1.000  H
  H53      1.0000 0.00100  0.84200  0.20200  Biso   1.000  H
  H54      1.0000 0.88300  0.72600  0.29500  Biso   1.000  H
  H55      1.0000 0.78900  0.93400  0.49800  Biso   1.000  H
  H56      1.0000 0.90400  0.05700  0.41100  Biso   1.000  H
  H57      1.0000 0.26900  0.48400  0.88000  Biso   1.000  H
  H58      1.0000 0.17100  0.56100  0.75600  Biso   1.000  H
  H59      1.0000 0.91800  0.36900  0.84800  Biso   1.000  H
  H60      1.0000 0.02400  0.29500  0.96900  Biso   1.000  H
  H61      1.0000 0.84000  0.42100  0.73100  Biso   1.000  H
  H62      1.0000 0.73500  0.50200  0.61200  Biso   1.000  H
  H63      1.0000 0.97300  0.69400  0.52000  Biso   1.000  H
  H64      1.0000 0.08300  0.62200  0.63900  Biso   1.000  H
