data_image0
_cell_length_a       7.569
_cell_length_b       7.821
_cell_length_c       18.033
_cell_angle_alpha    90
_cell_angle_beta     98.8
_cell_angle_gamma    90

_symmetry_space_group_name_H-M    "P 1"
_symmetry_int_tables_number       1

loop_
  _symmetry_equiv_pos_as_xyz
  'x, y, z'

loop_
  _atom_site_label
  _atom_site_occupancy
  _atom_site_fract_x
  _atom_site_fract_y
  _atom_site_fract_z
  _atom_site_thermal_displace_type
  _atom_site_B_iso_or_equiv
  _atom_site_type_symbol
  Fe1      1.0000 0.36590  0.05650  0.63520  Biso   1.000  Fe
  Fe2      1.0000 0.71220  0.79800  0.69010  Biso   1.000  Fe
  P1       1.0000 0.55400  0.41710  0.69090  Biso   1.000  P
  O1       1.0000 0.42200  0.30650  0.63990  Biso   1.000  O
  O2       1.0000 0.19510  0.84840  0.61690  Biso   1.000  O
  O3       1.0000 0.58470  0.94650  0.59260  Biso   1.000  O
  O4       1.0000 0.50590  0.93390  0.73220  Biso   1.000  O
  O5       1.0000 0.29820  0.09770  0.51240  Biso   1.000  O
  O6       1.0000 0.13910  0.12990  0.69740  Biso   1.000  O
  O7       1.0000 0.57880  0.58880  0.65600  Biso   1.000  O
  O8       1.0000 0.94340  0.73580  0.64280  Biso   1.000  O
  O9       1.0000 0.88180  0.01190  0.72120  Biso   1.000  O
  O10      1.0000 0.74510  0.33070  0.70030  Biso   1.000  O
  C1       1.0000 0.05770  0.85250  0.64690  Biso   1.000  C
  C2       1.0000 0.02420  0.01320  0.69350  Biso   1.000  C
  C3       1.0000 0.58380  0.95560  0.52220  Biso   1.000  C
  Fe3      1.0000 0.63410  0.55650  0.86480  Biso   1.000  Fe
  Fe4      1.0000 0.28780  0.29800  0.80990  Biso   1.000  Fe
  P2       1.0000 0.44600  0.91710  0.80910  Biso   1.000  P
  O11      1.0000 0.57800  0.80650  0.86010  Biso   1.000  O
  O12      1.0000 0.80490  0.34840  0.88310  Biso   1.000  O
  O13      1.0000 0.41530  0.44650  0.90740  Biso   1.000  O
  O14      1.0000 0.49410  0.43390  0.76780  Biso   1.000  O
  O15      1.0000 0.70180  0.59770  0.98760  Biso   1.000  O
  O16      1.0000 0.86090  0.62990  0.80260  Biso   1.000  O
  O17      1.0000 0.42120  0.08880  0.84400  Biso   1.000  O
  O18      1.0000 0.05660  0.23580  0.85720  Biso   1.000  O
  O19      1.0000 0.11820  0.51190  0.77880  Biso   1.000  O
  O20      1.0000 0.25490  0.83070  0.79970  Biso   1.000  O
  C4       1.0000 0.94230  0.35250  0.85310  Biso   1.000  C
  C5       1.0000 0.97580  0.51320  0.80650  Biso   1.000  C
  C6       1.0000 0.41620  0.45560  0.97780  Biso   1.000  C
  Fe5      1.0000 0.63410  0.94350  0.36480  Biso   1.000  Fe
  Fe6      1.0000 0.28780  0.20200  0.30990  Biso   1.000  Fe
  P3       1.0000 0.44600  0.58290  0.30910  Biso   1.000  P
  O21      1.0000 0.57800  0.69350  0.36010  Biso   1.000  O
  O22      1.0000 0.80490  0.15160  0.38310  Biso   1.000  O
  O23      1.0000 0.41530  0.05350  0.40740  Biso   1.000  O
  O24      1.0000 0.49410  0.06610  0.26780  Biso   1.000  O
  O25      1.0000 0.70180  0.90230  0.48760  Biso   1.000  O
  O26      1.0000 0.86090  0.87010  0.30260  Biso   1.000  O
  O27      1.0000 0.42120  0.41120  0.34400  Biso   1.000  O
  O28      1.0000 0.05660  0.26420  0.35720  Biso   1.000  O
  O29      1.0000 0.11820  0.98810  0.27880  Biso   1.000  O
  O30      1.0000 0.25490  0.66930  0.29970  Biso   1.000  O
  C7       1.0000 0.94230  0.14750  0.35310  Biso   1.000  C
  C8       1.0000 0.97580  0.98680  0.30650  Biso   1.000  C
  C9       1.0000 0.41620  0.04440  0.47780  Biso   1.000  C
  Fe7      1.0000 0.36590  0.44350  0.13520  Biso   1.000  Fe
  Fe8      1.0000 0.71220  0.70200  0.19010  Biso   1.000  Fe
  P4       1.0000 0.55400  0.08290  0.19090  Biso   1.000  P
  O31      1.0000 0.42200  0.19350  0.13990  Biso   1.000  O
  O32      1.0000 0.19510  0.65160  0.11690  Biso   1.000  O
  O33      1.0000 0.58470  0.55350  0.09260  Biso   1.000  O
  O34      1.0000 0.50590  0.56610  0.23220  Biso   1.000  O
  O35      1.0000 0.29820  0.40230  0.01240  Biso   1.000  O
  O36      1.0000 0.13910  0.37010  0.19740  Biso   1.000  O
  O37      1.0000 0.57880  0.91120  0.15600  Biso   1.000  O
  O38      1.0000 0.94340  0.76420  0.14280  Biso   1.000  O
  O39      1.0000 0.88180  0.48810  0.22120  Biso   1.000  O
  O40      1.0000 0.74510  0.16930  0.20030  Biso   1.000  O
  C10      1.0000 0.05770  0.64750  0.14690  Biso   1.000  C
  C11      1.0000 0.02420  0.48680  0.19350  Biso   1.000  C
  C12      1.0000 0.58380  0.54440  0.02220  Biso   1.000  C
