data_image0
_cell_length_a       5.04
_cell_length_b       22.738
_cell_length_c       9.2968
_cell_angle_alpha    90
_cell_angle_beta     103.8
_cell_angle_gamma    90

_symmetry_space_group_name_H-M    "P 1"
_symmetry_int_tables_number       1

loop_
  _symmetry_equiv_pos_as_xyz
  'x, y, z'

loop_
  _atom_site_label
  _atom_site_occupancy
  _atom_site_fract_x
  _atom_site_fract_y
  _atom_site_fract_z
  _atom_site_thermal_displace_type
  _atom_site_B_iso_or_equiv
  _atom_site_type_symbol
  Ga1      1.0000 0.81950  0.21119  0.74583  Biso   1.000  Ga
  Ga2      1.0000 0.17960  0.06307  0.60166  Biso   1.000  Ga
  Ga3      1.0000 0.93190  0.92714  0.01698  Biso   1.000  Ga
  Ga4      1.0000 0.57130  0.07737  0.15127  Biso   1.000  Ga
  P1       1.0000 0.35000  0.15500  0.87770  Biso   1.000  P
  P2       1.0000 0.11610  0.01690  0.26910  Biso   1.000  P
  P3       1.0000 0.40520  0.98278  0.87700  Biso   1.000  P
  P4       1.0000 0.31700  0.83047  0.13620  Biso   1.000  P
  P5       1.0000 0.63140  0.12765  0.48410  Biso   1.000  P
  O1       1.0000 0.76490  0.18660  0.55610  Biso   1.000  O
  O2       1.0000 0.28210  0.78900  0.25990  Biso   1.000  O
  O3       1.0000 0.17960  0.21400  0.85150  Biso   1.000  O
  O4       1.0000 0.63460  0.16740  0.85370  Biso   1.000  O
  O5       1.0000 0.18920  0.11050  0.77800  Biso   1.000  O
  O6       1.0000 0.80170  0.07510  0.54810  Biso   1.000  O
  O7       1.0000 0.35190  0.00090  0.71340  Biso   1.000  O
  O8       1.0000 0.13820  0.00980  0.43460  Biso   1.000  O
  O9       1.0000 0.34600  0.12310  0.51470  Biso   1.000  O
  O10      1.0000 0.03460  0.85060  0.04390  Biso   1.000  O
  O11      1.0000 0.58860  0.92820  0.89720  Biso   1.000  O
  O12      1.0000 0.12920  0.96790  0.90730  Biso   1.000  O
  O13      1.0000 0.97300  0.96170  0.19810  Biso   1.000  O
  O14      1.0000 0.38610  0.14150  0.04280  Biso   1.000  O
  O15      1.0000 0.55280  0.03210  0.97620  Biso   1.000  O
  O16      1.0000 0.60950  0.13670  0.31980  Biso   1.000  O
  O17      1.0000 0.40330  0.02300  0.24350  Biso   1.000  O
  O18      1.0000 0.95270  0.07270  0.20460  Biso   1.000  O
  O19      1.0000 0.42510  0.79280  0.01920  Biso   1.000  O
  O20      1.0000 0.50430  0.88020  0.19720  Biso   1.000  O
  Ga5      1.0000 0.18050  0.71119  0.25417  Biso   1.000  Ga
  Ga6      1.0000 0.82040  0.56307  0.39834  Biso   1.000  Ga
  Ga7      1.0000 0.06810  0.42714  0.98302  Biso   1.000  Ga
  Ga8      1.0000 0.42870  0.57737  0.84873  Biso   1.000  Ga
  P6       1.0000 0.65000  0.65500  0.12230  Biso   1.000  P
  P7       1.0000 0.88390  0.51690  0.73090  Biso   1.000  P
  P8       1.0000 0.59480  0.48278  0.12300  Biso   1.000  P
  P9       1.0000 0.68300  0.33047  0.86380  Biso   1.000  P
  P10      1.0000 0.36860  0.62765  0.51590  Biso   1.000  P
  O21      1.0000 0.23510  0.68660  0.44390  Biso   1.000  O
  O22      1.0000 0.71790  0.28900  0.74010  Biso   1.000  O
  O23      1.0000 0.82040  0.71400  0.14850  Biso   1.000  O
  O24      1.0000 0.36540  0.66740  0.14630  Biso   1.000  O
  O25      1.0000 0.81080  0.61050  0.22200  Biso   1.000  O
  O26      1.0000 0.19830  0.57510  0.45190  Biso   1.000  O
  O27      1.0000 0.64810  0.50090  0.28660  Biso   1.000  O
  O28      1.0000 0.86180  0.50980  0.56540  Biso   1.000  O
  O29      1.0000 0.65400  0.62310  0.48530  Biso   1.000  O
  O30      1.0000 0.96540  0.35060  0.95610  Biso   1.000  O
  O31      1.0000 0.41140  0.42820  0.10280  Biso   1.000  O
  O32      1.0000 0.87080  0.46790  0.09270  Biso   1.000  O
  O33      1.0000 0.02700  0.46170  0.80190  Biso   1.000  O
  O34      1.0000 0.61390  0.64150  0.95720  Biso   1.000  O
  O35      1.0000 0.44720  0.53210  0.02380  Biso   1.000  O
  O36      1.0000 0.39050  0.63670  0.68020  Biso   1.000  O
  O37      1.0000 0.59670  0.52300  0.75650  Biso   1.000  O
  O38      1.0000 0.04730  0.57270  0.79540  Biso   1.000  O
  O39      1.0000 0.57490  0.29280  0.98080  Biso   1.000  O
  O40      1.0000 0.49570  0.38020  0.80280  Biso   1.000  O
