data_image0
_cell_length_a       22.709
_cell_length_b       7.118
_cell_length_c       12.828
_cell_angle_alpha    90
_cell_angle_beta     90
_cell_angle_gamma    90

_symmetry_space_group_name_H-M    "P 1"
_symmetry_int_tables_number       1

loop_
  _symmetry_equiv_pos_as_xyz
  'x, y, z'

loop_
  _atom_site_label
  _atom_site_occupancy
  _atom_site_fract_x
  _atom_site_fract_y
  _atom_site_fract_z
  _atom_site_thermal_displace_type
  _atom_site_B_iso_or_equiv
  _atom_site_type_symbol
  N1       1.0000 0.11080  0.09510  0.38650  Biso   1.000  N
  N2       1.0000 0.06210  0.15840  0.43330  Biso   1.000  N
  C1       1.0000 0.22280  0.10100  0.27630  Biso   1.000  C
  H1       1.0000 0.20560  0.98420  0.29450  Biso   1.000  H
  C2       1.0000 0.20600  0.89500  0.29900  Biso   1.000  C
  N3       1.0000 0.61080  0.59510  0.88650  Biso   1.000  N
  N4       1.0000 0.56210  0.65840  0.93330  Biso   1.000  N
  C3       1.0000 0.72280  0.60100  0.77630  Biso   1.000  C
  H2       1.0000 0.70560  0.48420  0.79450  Biso   1.000  H
  C4       1.0000 0.70600  0.39500  0.79900  Biso   1.000  C
  N5       1.0000 0.88920  0.40490  0.38650  Biso   1.000  N
  N6       1.0000 0.93790  0.34160  0.43330  Biso   1.000  N
  C5       1.0000 0.77720  0.39900  0.27630  Biso   1.000  C
  H3       1.0000 0.79440  0.51580  0.29450  Biso   1.000  H
  C6       1.0000 0.79400  0.60500  0.29900  Biso   1.000  C
  N7       1.0000 0.38920  0.90490  0.88650  Biso   1.000  N
  N8       1.0000 0.43790  0.84160  0.93330  Biso   1.000  N
  C7       1.0000 0.27720  0.89900  0.77630  Biso   1.000  C
  H4       1.0000 0.29440  0.01580  0.79450  Biso   1.000  H
  C8       1.0000 0.29400  0.10500  0.79900  Biso   1.000  C
  N9       1.0000 0.88920  0.59510  0.61350  Biso   1.000  N
  N10      1.0000 0.93790  0.65840  0.56670  Biso   1.000  N
  C9       1.0000 0.77720  0.60100  0.72370  Biso   1.000  C
  H5       1.0000 0.79440  0.48420  0.70550  Biso   1.000  H
  C10      1.0000 0.79400  0.39500  0.70100  Biso   1.000  C
  N11      1.0000 0.38920  0.09510  0.11350  Biso   1.000  N
  N12      1.0000 0.43790  0.15840  0.06670  Biso   1.000  N
  C11      1.0000 0.27720  0.10100  0.22370  Biso   1.000  C
  H6       1.0000 0.29440  0.98420  0.20550  Biso   1.000  H
  C12      1.0000 0.29400  0.89500  0.20100  Biso   1.000  C
  N13      1.0000 0.11080  0.90490  0.61350  Biso   1.000  N
  N14      1.0000 0.06210  0.84160  0.56670  Biso   1.000  N
  C13      1.0000 0.22280  0.89900  0.72370  Biso   1.000  C
  H7       1.0000 0.20560  0.01580  0.70550  Biso   1.000  H
  C14      1.0000 0.20600  0.10500  0.70100  Biso   1.000  C
  N15      1.0000 0.61080  0.40490  0.11350  Biso   1.000  N
  N16      1.0000 0.56210  0.34160  0.06670  Biso   1.000  N
  C15      1.0000 0.72280  0.39900  0.22370  Biso   1.000  C
  H8       1.0000 0.70560  0.51580  0.20550  Biso   1.000  H
  C16      1.0000 0.70600  0.60500  0.20100  Biso   1.000  C
  N17      1.0000 0.88920  0.90490  0.61350  Biso   1.000  N
  N18      1.0000 0.93790  0.84160  0.56670  Biso   1.000  N
  C17      1.0000 0.77720  0.89900  0.72370  Biso   1.000  C
  H9       1.0000 0.79440  0.01580  0.70550  Biso   1.000  H
  C18      1.0000 0.79400  0.10500  0.70100  Biso   1.000  C
  N19      1.0000 0.38920  0.40490  0.11350  Biso   1.000  N
  N20      1.0000 0.43790  0.34160  0.06670  Biso   1.000  N
  C19      1.0000 0.27720  0.39900  0.22370  Biso   1.000  C
  H10      1.0000 0.29440  0.51580  0.20550  Biso   1.000  H
  C20      1.0000 0.29400  0.60500  0.20100  Biso   1.000  C
  N21      1.0000 0.11080  0.59510  0.61350  Biso   1.000  N
  N22      1.0000 0.06210  0.65840  0.56670  Biso   1.000  N
  C21      1.0000 0.22280  0.60100  0.72370  Biso   1.000  C
  H11      1.0000 0.20560  0.48420  0.70550  Biso   1.000  H
  C22      1.0000 0.20600  0.39500  0.70100  Biso   1.000  C
  N23      1.0000 0.61080  0.09510  0.11350  Biso   1.000  N
  N24      1.0000 0.56210  0.15840  0.06670  Biso   1.000  N
  C23      1.0000 0.72280  0.10100  0.22370  Biso   1.000  C
  H12      1.0000 0.70560  0.98420  0.20550  Biso   1.000  H
  C24      1.0000 0.70600  0.89500  0.20100  Biso   1.000  C
  N25      1.0000 0.11080  0.40490  0.38650  Biso   1.000  N
  N26      1.0000 0.06210  0.34160  0.43330  Biso   1.000  N
  C25      1.0000 0.22280  0.39900  0.27630  Biso   1.000  C
  H13      1.0000 0.20560  0.51580  0.29450  Biso   1.000  H
  C26      1.0000 0.20600  0.60500  0.29900  Biso   1.000  C
  N27      1.0000 0.61080  0.90490  0.88650  Biso   1.000  N
  N28      1.0000 0.56210  0.84160  0.93330  Biso   1.000  N
  C27      1.0000 0.72280  0.89900  0.77630  Biso   1.000  C
  H14      1.0000 0.70560  0.01580  0.79450  Biso   1.000  H
  C28      1.0000 0.70600  0.10500  0.79900  Biso   1.000  C
  N29      1.0000 0.88920  0.09510  0.38650  Biso   1.000  N
  N30      1.0000 0.93790  0.15840  0.43330  Biso   1.000  N
  C29      1.0000 0.77720  0.10100  0.27630  Biso   1.000  C
  H15      1.0000 0.79440  0.98420  0.29450  Biso   1.000  H
  C30      1.0000 0.79400  0.89500  0.29900  Biso   1.000  C
  N31      1.0000 0.38920  0.59510  0.88650  Biso   1.000  N
  N32      1.0000 0.43790  0.65840  0.93330  Biso   1.000  N
  C31      1.0000 0.27720  0.60100  0.77630  Biso   1.000  C
  H16      1.0000 0.29440  0.48420  0.79450  Biso   1.000  H
  C32      1.0000 0.29400  0.39500  0.79900  Biso   1.000  C
  Cu1      1.0000 0.00000  0.00000  0.50000  Biso   1.000  Cu
  Cu2      1.0000 0.50000  0.50000  0.00000  Biso   1.000  Cu
  Cu3      1.0000 0.00000  0.50000  0.50000  Biso   1.000  Cu
  Cu4      1.0000 0.50000  0.00000  0.00000  Biso   1.000  Cu
  C33      1.0000 0.19610  0.25000  0.30040  Biso   1.000  C
  C34      1.0000 0.13930  0.25000  0.35920  Biso   1.000  C
  C35      1.0000 0.69610  0.75000  0.80040  Biso   1.000  C
  C36      1.0000 0.63930  0.75000  0.85920  Biso   1.000  C
  C37      1.0000 0.80390  0.25000  0.30040  Biso   1.000  C
  C38      1.0000 0.86070  0.25000  0.35920  Biso   1.000  C
  C39      1.0000 0.30390  0.75000  0.80040  Biso   1.000  C
  C40      1.0000 0.36070  0.75000  0.85920  Biso   1.000  C
  C41      1.0000 0.80390  0.75000  0.69960  Biso   1.000  C
  C42      1.0000 0.86070  0.75000  0.64080  Biso   1.000  C
  C43      1.0000 0.30390  0.25000  0.19960  Biso   1.000  C
  C44      1.0000 0.36070  0.25000  0.14080  Biso   1.000  C
  C45      1.0000 0.19610  0.75000  0.69960  Biso   1.000  C
  C46      1.0000 0.13930  0.75000  0.64080  Biso   1.000  C
  C47      1.0000 0.69610  0.25000  0.19960  Biso   1.000  C
  C48      1.0000 0.63930  0.25000  0.14080  Biso   1.000  C
