data_XADDIR_uncharged_b
_audit_creation_date              2014-07-02
_audit_creation_method            'Materials Studio'
_symmetry_space_group_name_H-M    'P1'
_symmetry_Int_Tables_number       1
_symmetry_cell_setting            triclinic
loop_
_symmetry_equiv_pos_as_xyz
  x,y,z
_cell_length_a                    18.6626
_cell_length_b                    18.6626
_cell_length_c                    18.6626
_cell_angle_alpha                 60.0000
_cell_angle_beta                  60.0000
_cell_angle_gamma                 60.0000
loop_
_atom_site_label
_atom_site_type_symbol
_atom_site_fract_x
_atom_site_fract_y
_atom_site_fract_z
_atom_site_U_iso_or_equiv
_atom_site_adp_type
_atom_site_occupancy
Cu1    Cu    0.50000   0.06986   0.93014   0.01267  Uiso   1.00
Cu2    Cu    0.06986   0.50000   0.50000   0.01267  Uiso   1.00
Cu3    Cu    0.93014   0.50000   0.50000   0.01267  Uiso   1.00
Cu4    Cu    0.50000   0.93014   0.06986   0.01267  Uiso   1.00
Cu5    Cu    0.50000   0.93014   0.50000   0.01267  Uiso   1.00
Cu6    Cu    0.06986   0.50000   0.93014   0.01267  Uiso   1.00
Cu7    Cu    0.93014   0.50000   0.06986   0.01267  Uiso   1.00
Cu8    Cu    0.50000   0.06986   0.50000   0.01267  Uiso   1.00
Cu9    Cu    0.50000   0.50000   0.06986   0.01267  Uiso   1.00
Cu10   Cu    0.06986   0.93014   0.50000   0.01267  Uiso   1.00
Cu11   Cu    0.93014   0.06986   0.50000   0.01267  Uiso   1.00
Cu12   Cu    0.50000   0.50000   0.93014   0.01267  Uiso   1.00
H1     H     0.46820   0.98820   0.77180   0.01267  Uiso   1.00
H2     H     0.98820   0.46820   0.77180   0.01267  Uiso   1.00
H3     H     0.77180   0.77180   0.46820   0.01267  Uiso   1.00
H4     H     0.77180   0.77180   0.98820   0.01267  Uiso   1.00
H5     H     0.46820   0.77180   0.77180   0.01267  Uiso   1.00
H6     H     0.98820   0.77180   0.77180   0.01267  Uiso   1.00
H7     H     0.77180   0.46820   0.98820   0.01267  Uiso   1.00
H8     H     0.77180   0.98820   0.46820   0.01267  Uiso   1.00
H9     H     0.46820   0.77180   0.98820   0.01267  Uiso   1.00
H10    H     0.98820   0.77180   0.46820   0.01267  Uiso   1.00
H11    H     0.77180   0.98820   0.77180   0.01267  Uiso   1.00
H12    H     0.77180   0.46820   0.77180   0.01267  Uiso   1.00
H13    H     0.01180   0.53180   0.22820   0.01267  Uiso   1.00
H14    H     0.53180   0.01180   0.22820   0.01267  Uiso   1.00
H15    H     0.22820   0.22820   0.53180   0.01267  Uiso   1.00
H16    H     0.22820   0.22820   0.01180   0.01267  Uiso   1.00
H17    H     0.22820   0.53180   0.22820   0.01267  Uiso   1.00
H18    H     0.22820   0.01180   0.22820   0.01267  Uiso   1.00
H19    H     0.53180   0.22820   0.01180   0.01267  Uiso   1.00
H20    H     0.01180   0.22820   0.53180   0.01267  Uiso   1.00
H21    H     0.22820   0.53180   0.01180   0.01267  Uiso   1.00
H22    H     0.22820   0.01180   0.53180   0.01267  Uiso   1.00
H23    H     0.01180   0.22820   0.22820   0.01267  Uiso   1.00
H24    H     0.53180   0.22820   0.22820   0.01267  Uiso   1.00
C1     C     0.46734   0.93086   0.80090   0.01267  Uiso   1.00
C2     C     0.93086   0.46734   0.80090   0.01267  Uiso   1.00
C3     C     0.80090   0.80090   0.46734   0.01267  Uiso   1.00
C4     C     0.80090   0.80090   0.93086   0.01267  Uiso   1.00
C5     C     0.46734   0.80090   0.80090   0.01267  Uiso   1.00
C6     C     0.93086   0.80090   0.80090   0.01267  Uiso   1.00
C7     C     0.80090   0.46734   0.93086   0.01267  Uiso   1.00
C8     C     0.80090   0.93086   0.46734   0.01267  Uiso   1.00
C9     C     0.46734   0.80090   0.93086   0.01267  Uiso   1.00
C10    C     0.93086   0.80090   0.46734   0.01267  Uiso   1.00
C11    C     0.80090   0.93086   0.80090   0.01267  Uiso   1.00
C12    C     0.80090   0.46734   0.80090   0.01267  Uiso   1.00
C13    C     0.06914   0.53266   0.19910   0.01267  Uiso   1.00
C14    C     0.53266   0.06914   0.19910   0.01267  Uiso   1.00
C15    C     0.19910   0.19910   0.53266   0.01267  Uiso   1.00
C16    C     0.19910   0.19910   0.06914   0.01267  Uiso   1.00
C17    C     0.19910   0.53266   0.19910   0.01267  Uiso   1.00
C18    C     0.19910   0.06914   0.19910   0.01267  Uiso   1.00
C19    C     0.53266   0.19910   0.06914   0.01267  Uiso   1.00
C20    C     0.06914   0.19910   0.53266   0.01267  Uiso   1.00
C21    C     0.19910   0.53266   0.06914   0.01267  Uiso   1.00
C22    C     0.19910   0.06914   0.53266   0.01267  Uiso   1.00
C23    C     0.06914   0.19910   0.19910   0.01267  Uiso   1.00
C24    C     0.53266   0.19910   0.19910   0.01267  Uiso   1.00
C25    C     0.46676   0.88740   0.88740   0.01267  Uiso   1.00
C26    C     0.47428   0.93120   0.93120   0.01267  Uiso   1.00
C27    C     0.88740   0.46676   0.75844   0.01267  Uiso   1.00
C28    C     0.93120   0.47428   0.66332   0.01267  Uiso   1.00
C29    C     0.88740   0.75844   0.46676   0.01267  Uiso   1.00
C30    C     0.93120   0.66332   0.47428   0.01267  Uiso   1.00
C31    C     0.75844   0.88740   0.88740   0.01267  Uiso   1.00
C32    C     0.66332   0.93120   0.93120   0.01267  Uiso   1.00
C33    C     0.46676   0.88740   0.75844   0.01267  Uiso   1.00
C34    C     0.47428   0.93120   0.66332   0.01267  Uiso   1.00
C35    C     0.88740   0.75844   0.88740   0.01267  Uiso   1.00
C36    C     0.93120   0.66332   0.93120   0.01267  Uiso   1.00
C37    C     0.88740   0.46676   0.88740   0.01267  Uiso   1.00
C38    C     0.93120   0.47428   0.93120   0.01267  Uiso   1.00
C39    C     0.75844   0.88740   0.46676   0.01267  Uiso   1.00
C40    C     0.66332   0.93120   0.47428   0.01267  Uiso   1.00
C41    C     0.46676   0.75844   0.88740   0.01267  Uiso   1.00
C42    C     0.47428   0.66332   0.93120   0.01267  Uiso   1.00
C43    C     0.88740   0.88740   0.46676   0.01267  Uiso   1.00
C44    C     0.93120   0.93120   0.47428   0.01267  Uiso   1.00
C45    C     0.88740   0.88740   0.75844   0.01267  Uiso   1.00
C46    C     0.93120   0.93120   0.66332   0.01267  Uiso   1.00
C47    C     0.75844   0.46676   0.88740   0.01267  Uiso   1.00
C48    C     0.66332   0.47428   0.93120   0.01267  Uiso   1.00
C49    C     0.11260   0.53324   0.11260   0.01267  Uiso   1.00
C50    C     0.06880   0.52572   0.06880   0.01267  Uiso   1.00
C51    C     0.53324   0.11260   0.24156   0.01267  Uiso   1.00
C52    C     0.52572   0.06880   0.33668   0.01267  Uiso   1.00
C53    C     0.24156   0.11260   0.53324   0.01267  Uiso   1.00
C54    C     0.33668   0.06880   0.52572   0.01267  Uiso   1.00
C55    C     0.11260   0.24156   0.11260   0.01267  Uiso   1.00
C56    C     0.06880   0.33668   0.06880   0.01267  Uiso   1.00
C57    C     0.11260   0.53324   0.24156   0.01267  Uiso   1.00
C58    C     0.06880   0.52572   0.33668   0.01267  Uiso   1.00
C59    C     0.24156   0.11260   0.11260   0.01267  Uiso   1.00
C60    C     0.33668   0.06880   0.06880   0.01267  Uiso   1.00
C61    C     0.53324   0.11260   0.11260   0.01267  Uiso   1.00
C62    C     0.52572   0.06880   0.06880   0.01267  Uiso   1.00
C63    C     0.11260   0.24156   0.53324   0.01267  Uiso   1.00
C64    C     0.06880   0.33668   0.52572   0.01267  Uiso   1.00
C65    C     0.24156   0.53324   0.11260   0.01267  Uiso   1.00
C66    C     0.33668   0.52572   0.06880   0.01267  Uiso   1.00
C67    C     0.11260   0.11260   0.53324   0.01267  Uiso   1.00
C68    C     0.06880   0.06880   0.52572   0.01267  Uiso   1.00
C69    C     0.11260   0.11260   0.24156   0.01267  Uiso   1.00
C70    C     0.06880   0.06880   0.33668   0.01267  Uiso   1.00
C71    C     0.53324   0.24156   0.11260   0.01267  Uiso   1.00
C72    C     0.52572   0.33668   0.06880   0.01267  Uiso   1.00
O1     O     0.47880   0.00756   0.88758   0.01267  Uiso   1.00
O2     O     0.00756   0.47880   0.62606   0.01267  Uiso   1.00
O3     O     0.88758   0.62606   0.47880   0.01267  Uiso   1.00
O4     O     0.62606   0.88758   0.00756   0.01267  Uiso   1.00
O5     O     0.47880   0.88758   0.62606   0.01267  Uiso   1.00
O6     O     0.00756   0.62606   0.88758   0.01267  Uiso   1.00
O7     O     0.88758   0.47880   0.00756   0.01267  Uiso   1.00
O8     O     0.62606   0.00756   0.47880   0.01267  Uiso   1.00
O9     O     0.47880   0.62606   0.00756   0.01267  Uiso   1.00
O10    O     0.00756   0.88758   0.47880   0.01267  Uiso   1.00
O11    O     0.88758   0.00756   0.62606   0.01267  Uiso   1.00
O12    O     0.62606   0.47880   0.88758   0.01267  Uiso   1.00
O13    O     0.99244   0.52120   0.11242   0.01267  Uiso   1.00
O14    O     0.52120   0.99244   0.37394   0.01267  Uiso   1.00
O15    O     0.37394   0.11242   0.52120   0.01267  Uiso   1.00
O16    O     0.11242   0.37394   0.99244   0.01267  Uiso   1.00
O17    O     0.11242   0.52120   0.37394   0.01267  Uiso   1.00
O18    O     0.37394   0.99244   0.11242   0.01267  Uiso   1.00
O19    O     0.52120   0.11242   0.99244   0.01267  Uiso   1.00
O20    O     0.99244   0.37394   0.52120   0.01267  Uiso   1.00
O21    O     0.37394   0.52120   0.99244   0.01267  Uiso   1.00
O22    O     0.11242   0.99244   0.52120   0.01267  Uiso   1.00
O23    O     0.99244   0.11242   0.37394   0.01267  Uiso   1.00
O24    O     0.52120   0.37394   0.11242   0.01267  Uiso   1.00
O25    O     0.52120   0.99244   0.11242   0.01267  Uiso   1.00
O26    O     0.99244   0.52120   0.37394   0.01267  Uiso   1.00
O27    O     0.11242   0.37394   0.52120   0.01267  Uiso   1.00
O28    O     0.37394   0.11242   0.99244   0.01267  Uiso   1.00
O29    O     0.52120   0.11242   0.37394   0.01267  Uiso   1.00
O30    O     0.99244   0.37394   0.11242   0.01267  Uiso   1.00
O31    O     0.11242   0.52120   0.99244   0.01267  Uiso   1.00
O32    O     0.37394   0.99244   0.52120   0.01267  Uiso   1.00
O33    O     0.52120   0.37394   0.99244   0.01267  Uiso   1.00
O34    O     0.99244   0.11242   0.52120   0.01267  Uiso   1.00
O35    O     0.11242   0.99244   0.37394   0.01267  Uiso   1.00
O36    O     0.37394   0.52120   0.11242   0.01267  Uiso   1.00
O37    O     0.00756   0.47880   0.88758   0.01267  Uiso   1.00
O38    O     0.47880   0.00756   0.62606   0.01267  Uiso   1.00
O39    O     0.62606   0.88758   0.47880   0.01267  Uiso   1.00
O40    O     0.88758   0.62606   0.00756   0.01267  Uiso   1.00
O41    O     0.88758   0.47880   0.62606   0.01267  Uiso   1.00
O42    O     0.62606   0.00756   0.88758   0.01267  Uiso   1.00
O43    O     0.47880   0.88758   0.00756   0.01267  Uiso   1.00
O44    O     0.00756   0.62606   0.47880   0.01267  Uiso   1.00
O45    O     0.62606   0.47880   0.00756   0.01267  Uiso   1.00
O46    O     0.88758   0.00756   0.47880   0.01267  Uiso   1.00
O47    O     0.00756   0.88758   0.62606   0.01267  Uiso   1.00
O48    O     0.47880   0.62606   0.88758   0.01267  Uiso   1.00
loop_
_geom_bond_atom_site_label_1
_geom_bond_atom_site_label_2
_geom_bond_distance
_geom_bond_site_symmetry_2
_ccdc_geom_bond_type
Cu1    O1      1.959   .     S
Cu1    O19     1.959   .     S
Cu1    O28     1.959   .     S
Cu1    O42     1.959   .     S
Cu1    Cu4     2.608   1_546 S
Cu2    O2      1.959   .     S
Cu2    O17     1.959   .     S
Cu2    O27     1.959   .     S
Cu2    O44     1.959   .     S
Cu2    Cu3     2.608   1_455 S
Cu3    O3      1.959   .     S
Cu3    O20     1.959   .     S
Cu3    O26     1.959   .     S
Cu3    O41     1.959   .     S
Cu3    Cu2     2.608   1_655 S
Cu4    O4      1.959   .     S
Cu4    O18     1.959   .     S
Cu4    O25     1.959   .     S
Cu4    O43     1.959   .     S
Cu4    Cu1     2.608   1_564 S
Cu5    O5      1.959   .     S
Cu5    O14     1.959   .     S
Cu5    O32     1.959   .     S
Cu5    O39     1.959   .     S
Cu5    Cu8     2.608   1_565 S
Cu6    O6      1.959   .     S
Cu6    O16     1.959   .     S
Cu6    O31     1.959   .     S
Cu6    O37     1.959   .     S
Cu6    Cu7     2.608   1_456 S
Cu7    O7      1.959   .     S
Cu7    O13     1.959   .     S
Cu7    O30     1.959   .     S
Cu7    O40     1.959   .     S
Cu7    Cu6     2.608   1_654 S
Cu8    O8      1.959   .     S
Cu8    O15     1.959   .     S
Cu8    O29     1.959   .     S
Cu8    O38     1.959   .     S
Cu8    Cu5     2.608   1_545 S
Cu9    O9      1.959   .     S
Cu9    O24     1.959   .     S
Cu9    O36     1.959   .     S
Cu9    O45     1.959   .     S
Cu9    Cu12    2.608   1_554 S
Cu10   O10     1.959   .     S
Cu10   O22     1.959   .     S
Cu10   O35     1.959   .     S
Cu10   O47     1.959   .     S
Cu10   Cu11    2.608   1_465 S
Cu11   O11     1.959   .     S
Cu11   O23     1.959   .     S
Cu11   O34     1.959   .     S
Cu11   O46     1.959   .     S
Cu11   Cu10    2.608   1_645 S
Cu12   O12     1.959   .     S
Cu12   O21     1.959   .     S
Cu12   O33     1.959   .     S
Cu12   O48     1.959   .     S
Cu12   Cu9     2.608   1_556 S
H1     C1      0.931   .     S
H2     C2      0.931   .     S
H3     C3      0.931   .     S
H4     C4      0.931   .     S
H5     C5      0.931   .     S
H6     C6      0.931   .     S
H7     C7      0.931   .     S
H8     C8      0.931   .     S
H9     C9      0.931   .     S
H10    C10     0.931   .     S
H11    C11     0.931   .     S
H12    C12     0.931   .     S
H13    C13     0.931   .     S
H14    C14     0.931   .     S
H15    C15     0.931   .     S
H16    C16     0.931   .     S
H17    C17     0.931   .     S
H18    C18     0.931   .     S
H19    C19     0.931   .     S
H20    C20     0.931   .     S
H21    C21     0.931   .     S
H22    C22     0.931   .     S
H23    C23     0.931   .     S
H24    C24     0.931   .     S
C1     C25     1.395   .     A
C1     C33     1.395   .     A
C2     C27     1.395   .     A
C2     C37     1.395   .     A
C3     C29     1.395   .     A
C3     C39     1.395   .     A
C4     C31     1.395   .     A
C4     C35     1.395   .     A
C5     C33     1.395   .     A
C5     C41     1.395   .     A
C6     C35     1.395   .     A
C6     C45     1.395   .     A
C7     C37     1.395   .     A
C7     C47     1.395   .     A
C8     C39     1.395   .     A
C8     C43     1.395   .     A
C9     C25     1.395   .     A
C9     C41     1.395   .     A
C10    C29     1.395   .     A
C10    C43     1.395   .     A
C11    C31     1.395   .     A
C11    C45     1.395   .     A
C12    C27     1.395   .     A
C12    C47     1.395   .     A
C13    C49     1.395   .     A
C13    C57     1.395   .     A
C14    C51     1.395   .     A
C14    C61     1.395   .     A
C15    C53     1.395   .     A
C15    C63     1.395   .     A
C16    C55     1.395   .     A
C16    C59     1.395   .     A
C17    C57     1.395   .     A
C17    C65     1.395   .     A
C18    C59     1.395   .     A
C18    C69     1.395   .     A
C19    C61     1.395   .     A
C19    C71     1.395   .     A
C20    C63     1.395   .     A
C20    C67     1.395   .     A
C21    C49     1.395   .     A
C21    C65     1.395   .     A
C22    C53     1.395   .     A
C22    C67     1.395   .     A
C23    C55     1.395   .     A
C23    C69     1.395   .     A
C24    C51     1.395   .     A
C24    C71     1.395   .     A
C25    C26     1.501   .     S
C26    O1      1.262   1_565 S
C26    O43     1.262   1_556 S
C27    C28     1.501   .     S
C28    O41     1.262   .     A
C28    O2      1.262   1_655 S
C29    C30     1.501   .     S
C30    O3      1.262   .     A
C30    O44     1.262   1_655 S
C31    C32     1.501   .     S
C32    O4      1.262   1_556 S
C32    O42     1.262   1_565 S
C33    C34     1.501   .     S
C34    O5      1.262   .     A
C34    O38     1.262   1_565 S
C35    C36     1.501   .     S
C36    O6      1.262   1_655 S
C36    O40     1.262   1_556 S
C37    C38     1.501   .     S
C38    O7      1.262   1_556 S
C38    O37     1.262   1_655 S
C39    C40     1.501   .     S
C40    O39     1.262   .     A
C40    O8      1.262   1_565 S
C41    C42     1.501   .     S
C42    O48     1.262   .     A
C42    O9      1.262   1_556 S
C43    C44     1.501   .     S
C44    O10     1.262   1_655 S
C44    O46     1.262   1_565 S
C45    C46     1.501   .     S
C46    O11     1.262   1_565 S
C46    O47     1.262   1_655 S
C47    C48     1.501   .     S
C48    O12     1.262   .     A
C48    O45     1.262   1_556 S
C49    C50     1.501   .     S
C50    O13     1.262   1_455 S
C50    O31     1.262   1_554 S
C51    C52     1.501   .     S
C52    O29     1.262   .     A
C52    O14     1.262   1_545 S
C53    C54     1.501   .     S
C54    O15     1.262   .     A
C54    O32     1.262   1_545 S
C55    C56     1.501   .     S
C56    O16     1.262   1_554 S
C56    O30     1.262   1_455 S
C57    C58     1.501   .     S
C58    O17     1.262   .     A
C58    O26     1.262   1_455 S
C59    C60     1.501   .     S
C60    O18     1.262   1_545 S
C60    O28     1.262   1_554 S
C61    C62     1.501   .     S
C62    O19     1.262   1_554 S
C62    O25     1.262   1_545 S
C63    C64     1.501   .     S
C64    O27     1.262   .     A
C64    O20     1.262   1_455 S
C65    C66     1.501   .     S
C66    O36     1.262   .     A
C66    O21     1.262   1_554 S
C67    C68     1.501   .     S
C68    O22     1.262   1_545 S
C68    O34     1.262   1_455 S
C69    C70     1.501   .     S
C70    O23     1.262   1_455 S
C70    O35     1.262   1_545 S
C71    C72     1.501   .     S
C72    O24     1.262   .     A
C72    O33     1.262   1_554 S
O1     C26     1.262   1_545 S
O2     C28     1.262   1_455 S
O4     C32     1.262   1_554 S
O6     C36     1.262   1_455 S
O7     C38     1.262   1_554 S
O8     C40     1.262   1_545 S
O9     C42     1.262   1_554 S
O10    C44     1.262   1_455 S
O11    C46     1.262   1_545 S
O13    C50     1.262   1_655 S
O14    C52     1.262   1_565 S
O16    C56     1.262   1_556 S
O18    C60     1.262   1_565 S
O19    C62     1.262   1_556 S
O20    C64     1.262   1_655 S
O21    C66     1.262   1_556 S
O22    C68     1.262   1_565 S
O23    C70     1.262   1_655 S
O25    C62     1.262   1_565 S
O26    C58     1.262   1_655 S
O28    C60     1.262   1_556 S
O30    C56     1.262   1_655 S
O31    C50     1.262   1_556 S
O32    C54     1.262   1_565 S
O33    C72     1.262   1_556 S
O34    C68     1.262   1_655 S
O35    C70     1.262   1_565 S
O37    C38     1.262   1_455 S
O38    C34     1.262   1_545 S
O40    C36     1.262   1_554 S
O42    C32     1.262   1_545 S
O43    C26     1.262   1_554 S
O44    C30     1.262   1_455 S
O45    C48     1.262   1_554 S
O46    C44     1.262   1_545 S
O47    C46     1.262   1_455 S
