data_XADDUD_clean
_audit_creation_date              2014-07-02
_audit_creation_method            'Materials Studio'
_symmetry_space_group_name_H-M    'P1'
_symmetry_Int_Tables_number       1
_symmetry_cell_setting            triclinic
loop_
_symmetry_equiv_pos_as_xyz
  x,y,z
_cell_length_a                    11.2072
_cell_length_b                    22.3034
_cell_length_c                    22.3034
_cell_angle_alpha                 86.3809
_cell_angle_beta                  75.4488
_cell_angle_gamma                 75.4488
loop_
_atom_site_label
_atom_site_type_symbol
_atom_site_fract_x
_atom_site_fract_y
_atom_site_fract_z
_atom_site_U_iso_or_equiv
_atom_site_adp_type
_atom_site_occupancy
Co1    Co    0.03606   0.40346   0.86828   0.01267  Uiso   1.00
Co2    Co    0.25532   0.39862   0.72996   0.01267  Uiso   1.00
Co3    Co    0.80780   0.09654   0.63172   0.01267  Uiso   1.00
Co4    Co    0.88390   0.10138   0.77004   0.01267  Uiso   1.00
Co5    Co    0.90434   0.13172   0.90346   0.01267  Uiso   1.00
Co6    Co    0.98528   0.27004   0.89862   0.01267  Uiso   1.00
Co7    Co    0.43952   0.36828   0.59654   0.01267  Uiso   1.00
Co8    Co    0.65394   0.22996   0.60138   0.01267  Uiso   1.00
Co9    Co    0.96394   0.59654   0.13172   0.01267  Uiso   1.00
Co10   Co    0.74468   0.60138   0.27004   0.01267  Uiso   1.00
Co11   Co    0.19220   0.90346   0.36828   0.01267  Uiso   1.00
Co12   Co    0.11610   0.89862   0.22996   0.01267  Uiso   1.00
Co13   Co    0.09566   0.86828   0.09654   0.01267  Uiso   1.00
Co14   Co    0.01472   0.72996   0.10138   0.01267  Uiso   1.00
Co15   Co    0.56048   0.63172   0.40346   0.01267  Uiso   1.00
Co16   Co    0.34606   0.77004   0.39862   0.01267  Uiso   1.00
H1     H     0.39590   0.54730   0.79510   0.01267  Uiso   1.00
H2     H     0.43120   0.62840   0.84200   0.01267  Uiso   1.00
H3     H     0.30450   0.66520   0.93720   0.01267  Uiso   1.00
H4     H     0.12060   0.53140   0.94520   0.01267  Uiso   1.00
H5     H     0.28240   0.21470   0.92730   0.01267  Uiso   1.00
H6     H     0.43430   0.12290   0.92910   0.01267  Uiso   1.00
H7     H     0.58990   0.08680   0.84040   0.01267  Uiso   1.00
H8     H     0.43350   0.23130   0.74590   0.01267  Uiso   1.00
H9     H     0.23830   0.95270   0.70490   0.01267  Uiso   1.00
H10    H     0.40160   0.87160   0.65800   0.01267  Uiso   1.00
H11    H     0.40690   0.83480   0.56280   0.01267  Uiso   1.00
H12    H     0.09720   0.96860   0.55480   0.01267  Uiso   1.00
H13    H     0.92440   0.28530   0.57270   0.01267  Uiso   1.00
H14    H     0.98630   0.37710   0.57090   0.01267  Uiso   1.00
H15    H     0.01710   0.41320   0.65960   0.01267  Uiso   1.00
H16    H     0.91070   0.26870   0.75410   0.01267  Uiso   1.00
H17    H     0.19100   0.20490   0.04730   0.01267  Uiso   1.00
H18    H     0.27320   0.15800   0.12840   0.01267  Uiso   1.00
H19    H     0.24170   0.06280   0.16520   0.01267  Uiso   1.00
H20    H     0.06580   0.05480   0.03140   0.01267  Uiso   1.00
H21    H     0.20970   0.07270   0.71470   0.01267  Uiso   1.00
H22    H     0.36340   0.07090   0.62290   0.01267  Uiso   1.00
H23    H     0.43030   0.15960   0.58680   0.01267  Uiso   1.00
H24    H     0.17940   0.25410   0.73130   0.01267  Uiso   1.00
H25    H     0.94320   0.29510   0.45270   0.01267  Uiso   1.00
H26    H     0.05960   0.34200   0.37160   0.01267  Uiso   1.00
H27    H     0.96970   0.43720   0.33480   0.01267  Uiso   1.00
H28    H     0.65200   0.44520   0.46860   0.01267  Uiso   1.00
H29    H     0.49710   0.42730   0.78530   0.01267  Uiso   1.00
H30    H     0.55720   0.42910   0.87710   0.01267  Uiso   1.00
H31    H     0.67670   0.34040   0.91320   0.01267  Uiso   1.00
H32    H     0.66480   0.24590   0.76870   0.01267  Uiso   1.00
H33    H     0.60410   0.45270   0.20490   0.01267  Uiso   1.00
H34    H     0.56880   0.37160   0.15800   0.01267  Uiso   1.00
H35    H     0.69550   0.33480   0.06280   0.01267  Uiso   1.00
H36    H     0.87940   0.46860   0.05480   0.01267  Uiso   1.00
H37    H     0.71760   0.78530   0.07270   0.01267  Uiso   1.00
H38    H     0.56570   0.87710   0.07090   0.01267  Uiso   1.00
H39    H     0.41010   0.91320   0.15960   0.01267  Uiso   1.00
H40    H     0.56650   0.76870   0.25410   0.01267  Uiso   1.00
H41    H     0.76170   0.04730   0.29510   0.01267  Uiso   1.00
H42    H     0.59840   0.12840   0.34200   0.01267  Uiso   1.00
H43    H     0.59310   0.16520   0.43720   0.01267  Uiso   1.00
H44    H     0.90280   0.03140   0.44520   0.01267  Uiso   1.00
H45    H     0.07560   0.71470   0.42730   0.01267  Uiso   1.00
H46    H     0.01370   0.62290   0.42910   0.01267  Uiso   1.00
H47    H     0.98290   0.58680   0.34040   0.01267  Uiso   1.00
H48    H     0.08930   0.73130   0.24590   0.01267  Uiso   1.00
H49    H     0.80900   0.79510   0.95270   0.01267  Uiso   1.00
H50    H     0.72680   0.84200   0.87160   0.01267  Uiso   1.00
H51    H     0.75830   0.93720   0.83480   0.01267  Uiso   1.00
H52    H     0.93420   0.94520   0.96860   0.01267  Uiso   1.00
H53    H     0.79030   0.92730   0.28530   0.01267  Uiso   1.00
H54    H     0.63660   0.92910   0.37710   0.01267  Uiso   1.00
H55    H     0.56970   0.84040   0.41320   0.01267  Uiso   1.00
H56    H     0.82060   0.74590   0.26870   0.01267  Uiso   1.00
H57    H     0.05680   0.70490   0.54730   0.01267  Uiso   1.00
H58    H     0.94040   0.65800   0.62840   0.01267  Uiso   1.00
H59    H     0.03030   0.56280   0.66520   0.01267  Uiso   1.00
H60    H     0.34800   0.55480   0.53140   0.01267  Uiso   1.00
H61    H     0.50290   0.57270   0.21470   0.01267  Uiso   1.00
H62    H     0.44280   0.57090   0.12290   0.01267  Uiso   1.00
H63    H     0.32330   0.65960   0.08680   0.01267  Uiso   1.00
H64    H     0.33520   0.75410   0.23130   0.01267  Uiso   1.00
C1     C     0.22834   0.47773   0.83779   0.01267  Uiso   1.00
C2     C     0.25397   0.53130   0.86556   0.01267  Uiso   1.00
C3     C     0.34710   0.56056   0.83444   0.01267  Uiso   1.00
C4     C     0.36680   0.60960   0.86220   0.01267  Uiso   1.00
C5     C     0.29222   0.63115   0.91961   0.01267  Uiso   1.00
C6     C     0.19932   0.60200   0.95076   0.01267  Uiso   1.00
C7     C     0.18168   0.55175   0.92389   0.01267  Uiso   1.00
C8     C     0.11642   0.62421   0.01335   0.01267  Uiso   1.00
C9     C     0.25450   0.29480   0.83260   0.01267  Uiso   1.00
C10    C     0.34392   0.23315   0.83641   0.01267  Uiso   1.00
C11    C     0.34356   0.20009   0.89139   0.01267  Uiso   1.00
C12    C     0.43505   0.14514   0.89236   0.01267  Uiso   1.00
C13    C     0.52760   0.12293   0.83907   0.01267  Uiso   1.00
C14    C     0.52616   0.15526   0.78382   0.01267  Uiso   1.00
C15    C     0.43440   0.20985   0.78295   0.01267  Uiso   1.00
C16    C     0.62623   0.13518   0.72616   0.01267  Uiso   1.00
C17    C     0.04386   0.02227   0.66221   0.01267  Uiso   1.00
C18    C     0.15083   0.96870   0.63444   0.01267  Uiso   1.00
C19    C     0.24210   0.93944   0.66556   0.01267  Uiso   1.00
C20    C     0.33860   0.89040   0.63780   0.01267  Uiso   1.00
C21    C     0.34298   0.86885   0.58039   0.01267  Uiso   1.00
C22    C     0.25208   0.89800   0.54924   0.01267  Uiso   1.00
C23    C     0.15732   0.94825   0.57611   0.01267  Uiso   1.00
C24    C     0.25398   0.87579   0.48665   0.01267  Uiso   1.00
C25    C     0.88190   0.20520   0.66740   0.01267  Uiso   1.00
C26    C     0.91348   0.26685   0.66359   0.01267  Uiso   1.00
C27    C     0.93504   0.29991   0.60861   0.01267  Uiso   1.00
C28    C     0.97255   0.35486   0.60764   0.01267  Uiso   1.00
C29    C     0.98960   0.37707   0.66093   0.01267  Uiso   1.00
C30    C     0.96524   0.34474   0.71618   0.01267  Uiso   1.00
C31    C     0.92720   0.29015   0.71705   0.01267  Uiso   1.00
C32    C     0.98757   0.36482   0.77384   0.01267  Uiso   1.00
C33    C     0.06613   0.16221   0.97773   0.01267  Uiso   1.00
C34    C     0.11953   0.13444   0.03130   0.01267  Uiso   1.00
C35    C     0.18154   0.16556   0.06056   0.01267  Uiso   1.00
C36    C     0.22900   0.13780   0.10960   0.01267  Uiso   1.00
C37    C     0.21183   0.08039   0.13115   0.01267  Uiso   1.00
C38    C     0.15008   0.04924   0.10200   0.01267  Uiso   1.00
C39    C     0.10557   0.07611   0.05175   0.01267  Uiso   1.00
C40    C     0.12977   0.98665   0.12421   0.01267  Uiso   1.00
C41    C     0.08710   0.16740   0.79480   0.01267  Uiso   1.00
C42    C     0.18033   0.16359   0.73315   0.01267  Uiso   1.00
C43    C     0.23495   0.10861   0.70009   0.01267  Uiso   1.00
C44    C     0.32741   0.10764   0.64514   0.01267  Uiso   1.00
C45    C     0.36667   0.16093   0.62293   0.01267  Uiso   1.00
C46    C     0.30998   0.21618   0.65526   0.01267  Uiso   1.00
C47    C     0.21735   0.21705   0.70985   0.01267  Uiso   1.00
C48    C     0.35239   0.27384   0.63518   0.01267  Uiso   1.00
C49    C     0.70607   0.33779   0.52227   0.01267  Uiso   1.00
C50    C     0.78527   0.36556   0.46870   0.01267  Uiso   1.00
C51    C     0.90766   0.33444   0.43944   0.01267  Uiso   1.00
C52    C     0.97640   0.36220   0.39040   0.01267  Uiso   1.00
C53    C     0.92337   0.41961   0.36885   0.01267  Uiso   1.00
C54    C     0.80132   0.45076   0.39800   0.01267  Uiso   1.00
C55    C     0.73343   0.42389   0.44825   0.01267  Uiso   1.00
C56    C     0.74063   0.51335   0.37579   0.01267  Uiso   1.00
C57    C     0.54930   0.33260   0.70520   0.01267  Uiso   1.00
C58    C     0.57707   0.33641   0.76685   0.01267  Uiso   1.00
C59    C     0.54365   0.39139   0.79991   0.01267  Uiso   1.00
C60    C     0.58019   0.39236   0.85486   0.01267  Uiso   1.00
C61    C     0.65053   0.33907   0.87707   0.01267  Uiso   1.00
C62    C     0.68142   0.28382   0.84474   0.01267  Uiso   1.00
C63    C     0.64425   0.28295   0.79015   0.01267  Uiso   1.00
C64    C     0.76141   0.22616   0.86482   0.01267  Uiso   1.00
C65    C     0.77166   0.52227   0.16221   0.01267  Uiso   1.00
C66    C     0.74603   0.46870   0.13444   0.01267  Uiso   1.00
C67    C     0.65290   0.43944   0.16556   0.01267  Uiso   1.00
C68    C     0.63320   0.39040   0.13780   0.01267  Uiso   1.00
C69    C     0.70778   0.36885   0.08039   0.01267  Uiso   1.00
C70    C     0.80068   0.39800   0.04924   0.01267  Uiso   1.00
C71    C     0.81832   0.44825   0.07611   0.01267  Uiso   1.00
C72    C     0.88358   0.37579   0.98665   0.01267  Uiso   1.00
C73    C     0.74550   0.70520   0.16740   0.01267  Uiso   1.00
C74    C     0.65608   0.76685   0.16359   0.01267  Uiso   1.00
C75    C     0.65644   0.79991   0.10861   0.01267  Uiso   1.00
C76    C     0.56495   0.85486   0.10764   0.01267  Uiso   1.00
C77    C     0.47240   0.87707   0.16093   0.01267  Uiso   1.00
C78    C     0.47384   0.84474   0.21618   0.01267  Uiso   1.00
C79    C     0.56560   0.79015   0.21705   0.01267  Uiso   1.00
C80    C     0.37377   0.86482   0.27384   0.01267  Uiso   1.00
C81    C     0.95614   0.97773   0.33779   0.01267  Uiso   1.00
C82    C     0.84917   0.03130   0.36556   0.01267  Uiso   1.00
C83    C     0.75790   0.06056   0.33444   0.01267  Uiso   1.00
C84    C     0.66140   0.10960   0.36220   0.01267  Uiso   1.00
C85    C     0.65702   0.13115   0.41961   0.01267  Uiso   1.00
C86    C     0.74792   0.10200   0.45076   0.01267  Uiso   1.00
C87    C     0.84268   0.05175   0.42389   0.01267  Uiso   1.00
C88    C     0.74602   0.12421   0.51335   0.01267  Uiso   1.00
C89    C     0.11810   0.79480   0.33260   0.01267  Uiso   1.00
C90    C     0.08652   0.73315   0.33641   0.01267  Uiso   1.00
C91    C     0.06496   0.70009   0.39139   0.01267  Uiso   1.00
C92    C     0.02745   0.64514   0.39236   0.01267  Uiso   1.00
C93    C     0.01040   0.62293   0.33907   0.01267  Uiso   1.00
C94    C     0.03476   0.65526   0.28382   0.01267  Uiso   1.00
C95    C     0.07280   0.70985   0.28295   0.01267  Uiso   1.00
C96    C     0.01243   0.63518   0.22616   0.01267  Uiso   1.00
C97    C     0.93387   0.83779   0.02227   0.01267  Uiso   1.00
C98    C     0.88047   0.86556   0.96870   0.01267  Uiso   1.00
C99    C     0.81846   0.83444   0.93944   0.01267  Uiso   1.00
C100   C     0.77100   0.86220   0.89040   0.01267  Uiso   1.00
C101   C     0.78817   0.91961   0.86885   0.01267  Uiso   1.00
C102   C     0.84992   0.95076   0.89800   0.01267  Uiso   1.00
C103   C     0.89443   0.92389   0.94825   0.01267  Uiso   1.00
C104   C     0.87023   0.01335   0.87579   0.01267  Uiso   1.00
C105   C     0.91290   0.83260   0.20520   0.01267  Uiso   1.00
C106   C     0.81967   0.83641   0.26685   0.01267  Uiso   1.00
C107   C     0.76505   0.89139   0.29991   0.01267  Uiso   1.00
C108   C     0.67259   0.89236   0.35486   0.01267  Uiso   1.00
C109   C     0.63333   0.83907   0.37707   0.01267  Uiso   1.00
C110   C     0.69002   0.78382   0.34474   0.01267  Uiso   1.00
C111   C     0.78265   0.78295   0.29015   0.01267  Uiso   1.00
C112   C     0.64761   0.72616   0.36482   0.01267  Uiso   1.00
C113   C     0.29393   0.66221   0.47773   0.01267  Uiso   1.00
C114   C     0.21473   0.63444   0.53130   0.01267  Uiso   1.00
C115   C     0.09234   0.66556   0.56056   0.01267  Uiso   1.00
C116   C     0.02360   0.63780   0.60960   0.01267  Uiso   1.00
C117   C     0.07663   0.58039   0.63115   0.01267  Uiso   1.00
C118   C     0.19868   0.54924   0.60200   0.01267  Uiso   1.00
C119   C     0.26657   0.57611   0.55175   0.01267  Uiso   1.00
C120   C     0.25937   0.48665   0.62421   0.01267  Uiso   1.00
C121   C     0.45070   0.66740   0.29480   0.01267  Uiso   1.00
C122   C     0.42293   0.66359   0.23315   0.01267  Uiso   1.00
C123   C     0.45635   0.60861   0.20009   0.01267  Uiso   1.00
C124   C     0.41981   0.60764   0.14514   0.01267  Uiso   1.00
C125   C     0.34947   0.66093   0.12293   0.01267  Uiso   1.00
C126   C     0.31858   0.71618   0.15526   0.01267  Uiso   1.00
C127   C     0.35575   0.71705   0.20985   0.01267  Uiso   1.00
C128   C     0.23859   0.77384   0.13518   0.01267  Uiso   1.00
O1     O     0.16900   0.44489   0.87551   0.01267  Uiso   1.00
O2     O     0.26759   0.46896   0.78066   0.01267  Uiso   1.00
O3     O     0.03422   0.59505   0.03871   0.01267  Uiso   1.00
O4     O     0.13485   0.66987   0.03643   0.01267  Uiso   1.00
O5     O     0.15076   0.31170   0.87398   0.01267  Uiso   1.00
O6     O     0.29075   0.32721   0.78709   0.01267  Uiso   1.00
O7     O     0.61046   0.15401   0.67387   0.01267  Uiso   1.00
O8     O     0.73122   0.09727   0.72969   0.01267  Uiso   1.00
O9     O     0.98940   0.05511   0.62449   0.01267  Uiso   1.00
O10    O     0.01721   0.03104   0.71934   0.01267  Uiso   1.00
O11    O     0.16798   0.90495   0.46129   0.01267  Uiso   1.00
O12    O     0.34115   0.83013   0.46357   0.01267  Uiso   1.00
O13    O     0.83644   0.18830   0.62602   0.01267  Uiso   1.00
O14    O     0.90505   0.17279   0.71291   0.01267  Uiso   1.00
O15    O     0.93834   0.34599   0.82613   0.01267  Uiso   1.00
O16    O     0.05818   0.40273   0.77031   0.01267  Uiso   1.00
O17    O     0.04451   0.12449   0.94489   0.01267  Uiso   1.00
O18    O     0.04825   0.21934   0.96896   0.01267  Uiso   1.00
O19    O     0.07293   0.96129   0.09505   0.01267  Uiso   1.00
O20    O     0.17128   0.96357   0.16987   0.01267  Uiso   1.00
O21    O     0.02474   0.12602   0.81170   0.01267  Uiso   1.00
O22    O     0.07784   0.21291   0.82721   0.01267  Uiso   1.00
O23    O     0.28433   0.32613   0.65401   0.01267  Uiso   1.00
O24    O     0.46091   0.27031   0.59727   0.01267  Uiso   1.00
O25    O     0.61389   0.37551   0.55511   0.01267  Uiso   1.00
O26    O     0.73655   0.28066   0.53104   0.01267  Uiso   1.00
O27    O     0.62927   0.53871   0.40495   0.01267  Uiso   1.00
O28    O     0.80472   0.53643   0.33013   0.01267  Uiso   1.00
O29    O     0.46246   0.37398   0.68830   0.01267  Uiso   1.00
O30    O     0.61796   0.28709   0.67279   0.01267  Uiso   1.00
O31    O     0.76447   0.17387   0.84599   0.01267  Uiso   1.00
O32    O     0.82849   0.22969   0.90273   0.01267  Uiso   1.00
O33    O     0.83100   0.55511   0.12449   0.01267  Uiso   1.00
O34    O     0.73241   0.53104   0.21934   0.01267  Uiso   1.00
O35    O     0.96578   0.40495   0.96129   0.01267  Uiso   1.00
O36    O     0.86515   0.33013   0.96357   0.01267  Uiso   1.00
O37    O     0.84924   0.68830   0.12602   0.01267  Uiso   1.00
O38    O     0.70925   0.67279   0.21291   0.01267  Uiso   1.00
O39    O     0.38954   0.84599   0.32613   0.01267  Uiso   1.00
O40    O     0.26878   0.90273   0.27031   0.01267  Uiso   1.00
O41    O     0.01060   0.94489   0.37551   0.01267  Uiso   1.00
O42    O     0.98279   0.96896   0.28066   0.01267  Uiso   1.00
O43    O     0.83202   0.09505   0.53871   0.01267  Uiso   1.00
O44    O     0.65885   0.16987   0.53643   0.01267  Uiso   1.00
O45    O     0.16356   0.81170   0.37398   0.01267  Uiso   1.00
O46    O     0.09495   0.82721   0.28709   0.01267  Uiso   1.00
O47    O     0.06166   0.65401   0.17387   0.01267  Uiso   1.00
O48    O     0.94182   0.59727   0.22969   0.01267  Uiso   1.00
O49    O     0.95549   0.87551   0.05511   0.01267  Uiso   1.00
O50    O     0.95175   0.78066   0.03104   0.01267  Uiso   1.00
O51    O     0.92707   0.03871   0.90495   0.01267  Uiso   1.00
O52    O     0.82872   0.03643   0.83013   0.01267  Uiso   1.00
O53    O     0.97526   0.87398   0.18830   0.01267  Uiso   1.00
O54    O     0.92216   0.78709   0.17279   0.01267  Uiso   1.00
O55    O     0.71567   0.67387   0.34599   0.01267  Uiso   1.00
O56    O     0.53909   0.72969   0.40273   0.01267  Uiso   1.00
O57    O     0.38611   0.62449   0.44489   0.01267  Uiso   1.00
O58    O     0.26345   0.71934   0.46896   0.01267  Uiso   1.00
O59    O     0.37073   0.46129   0.59505   0.01267  Uiso   1.00
O60    O     0.19528   0.46357   0.66987   0.01267  Uiso   1.00
O61    O     0.53754   0.62602   0.31170   0.01267  Uiso   1.00
O62    O     0.38204   0.71291   0.32721   0.01267  Uiso   1.00
O63    O     0.23553   0.82613   0.15401   0.01267  Uiso   1.00
O64    O     0.17151   0.77031   0.09727   0.01267  Uiso   1.00
