data_XADDAJ_clean
_audit_creation_date              2014-07-02
_audit_creation_method            'Materials Studio'
_symmetry_space_group_name_H-M    'P1'
_symmetry_Int_Tables_number       1
_symmetry_cell_setting            triclinic
loop_
_symmetry_equiv_pos_as_xyz
  x,y,z
_cell_length_a                    12.6804
_cell_length_b                    13.8440
_cell_length_c                    27.8650
_cell_angle_alpha                 104.2460
_cell_angle_beta                  97.3170
_cell_angle_gamma                 94.4560
loop_
_atom_site_label
_atom_site_type_symbol
_atom_site_fract_x
_atom_site_fract_y
_atom_site_fract_z
_atom_site_U_iso_or_equiv
_atom_site_adp_type
_atom_site_occupancy
Tb1    Tb    0.03600   0.56599   0.93992   0.01267  Uiso   1.00
Tb2    Tb    0.12156   0.07335   0.55197   0.01267  Uiso   1.00
Tb3    Tb    0.46399   0.54780   0.58547   0.01267  Uiso   1.00
Tb4    Tb    0.48915   0.89152   0.91347   0.01267  Uiso   1.00
Tb5    Tb    0.96400   0.43401   0.06008   0.01267  Uiso   1.00
Tb6    Tb    0.87844   0.92665   0.44803   0.01267  Uiso   1.00
Tb7    Tb    0.53601   0.45220   0.41453   0.01267  Uiso   1.00
Tb8    Tb    0.51085   0.10848   0.08653   0.01267  Uiso   1.00
H1     H     0.73730   0.20530   0.94250   0.01267  Uiso   1.00
H2     H     0.76030   0.37120   0.84340   0.01267  Uiso   1.00
H3     H     0.02690   0.89380   0.65480   0.01267  Uiso   1.00
H4     H     0.55290   0.12190   0.80780   0.01267  Uiso   1.00
H5     H     0.06120   0.21420   0.80870   0.01267  Uiso   1.00
H6     H     0.74620   0.79430   0.56560   0.01267  Uiso   1.00
H7     H     0.50710   0.16960   0.65280   0.01267  Uiso   1.00
H8     H     0.61680   0.42420   0.79750   0.01267  Uiso   1.00
H9     H     0.25400   0.23970   0.01150   0.01267  Uiso   1.00
H10    H     0.35770   0.13280   0.80740   0.01267  Uiso   1.00
H11    H     0.54770   0.46220   0.72500   0.01267  Uiso   1.00
H12    H     0.07500   0.94380   0.74490   0.01267  Uiso   1.00
H13    H     0.13820   0.31390   0.88610   0.01267  Uiso   1.00
H14    H     0.20580   0.93210   0.80830   0.01267  Uiso   1.00
H15    H     0.32320   0.08760   0.87880   0.01267  Uiso   1.00
H16    H     0.33240   0.09680   0.72100   0.01267  Uiso   1.00
H17    H     0.80990   0.71060   0.69340   0.01267  Uiso   1.00
H18    H     0.03740   0.18000   0.72230   0.01267  Uiso   1.00
H19    H     0.57620   0.13040   0.72590   0.01267  Uiso   1.00
H20    H     0.09640   0.64340   0.78840   0.01267  Uiso   1.00
H21    H     0.96640   0.65440   0.72440   0.01267  Uiso   1.00
H22    H     0.72910   0.45110   0.61630   0.01267  Uiso   1.00
H23    H     0.06130   0.38350   0.76570   0.01267  Uiso   1.00
H24    H     0.91500   0.22660   0.61080   0.01267  Uiso   1.00
H25    H     0.72200   0.24170   0.48700   0.01267  Uiso   1.00
H26    H     0.74850   0.47110   0.69330   0.01267  Uiso   1.00
H27    H     0.00360   0.32040   0.68080   0.01267  Uiso   1.00
H28    H     0.80950   0.54000   0.77780   0.01267  Uiso   1.00
H29    H     0.26270   0.79470   0.05750   0.01267  Uiso   1.00
H30    H     0.23970   0.62880   0.15660   0.01267  Uiso   1.00
H31    H     0.97310   0.10620   0.34520   0.01267  Uiso   1.00
H32    H     0.44710   0.87810   0.19220   0.01267  Uiso   1.00
H33    H     0.93880   0.78580   0.19130   0.01267  Uiso   1.00
H34    H     0.25380   0.20570   0.43440   0.01267  Uiso   1.00
H35    H     0.49290   0.83040   0.34720   0.01267  Uiso   1.00
H36    H     0.38320   0.57580   0.20250   0.01267  Uiso   1.00
H37    H     0.74600   0.76030   0.98850   0.01267  Uiso   1.00
H38    H     0.64230   0.86720   0.19260   0.01267  Uiso   1.00
H39    H     0.45230   0.53780   0.27500   0.01267  Uiso   1.00
H40    H     0.92500   0.05620   0.25510   0.01267  Uiso   1.00
H41    H     0.86180   0.68610   0.11390   0.01267  Uiso   1.00
H42    H     0.79420   0.06790   0.19170   0.01267  Uiso   1.00
H43    H     0.67680   0.91240   0.12120   0.01267  Uiso   1.00
H44    H     0.66760   0.90320   0.27900   0.01267  Uiso   1.00
H45    H     0.19010   0.28940   0.30660   0.01267  Uiso   1.00
H46    H     0.96260   0.82000   0.27770   0.01267  Uiso   1.00
H47    H     0.42380   0.86960   0.27410   0.01267  Uiso   1.00
H48    H     0.90360   0.35660   0.21160   0.01267  Uiso   1.00
H49    H     0.03360   0.34560   0.27560   0.01267  Uiso   1.00
H50    H     0.27090   0.54890   0.38370   0.01267  Uiso   1.00
H51    H     0.93870   0.61650   0.23430   0.01267  Uiso   1.00
H52    H     0.08500   0.77340   0.38920   0.01267  Uiso   1.00
H53    H     0.27800   0.75830   0.51300   0.01267  Uiso   1.00
H54    H     0.25150   0.52890   0.30670   0.01267  Uiso   1.00
H55    H     0.99640   0.67960   0.31920   0.01267  Uiso   1.00
H56    H     0.19050   0.46000   0.22220   0.01267  Uiso   1.00
C1     C     0.71630   0.21590   0.91116   0.01267  Uiso   1.00
C2     C     0.72900   0.31580   0.85175   0.01267  Uiso   1.00
C3     C     0.96080   0.85520   0.64799   0.01267  Uiso   1.00
C4     C     0.60500   0.16710   0.83068   0.01267  Uiso   1.00
C5     C     0.11610   0.19080   0.79135   0.01267  Uiso   1.00
C6     C     0.58610   0.06140   0.89077   0.01267  Uiso   1.00
C7     C     0.18060   0.13430   0.71273   0.01267  Uiso   1.00
C8     C     0.79240   0.79650   0.59470   0.01267  Uiso   1.00
C9     C     0.16520   0.11550   0.65697   0.01267  Uiso   1.00
C10    C     0.52950   0.22080   0.68180   0.01267  Uiso   1.00
C11    C     0.76070   0.74510   0.62818   0.01267  Uiso   1.00
C12    C     0.59520   0.37290   0.76850   0.01267  Uiso   1.00
C13    C     0.24820   0.22960   0.97698   0.01267  Uiso   1.00
C14    C     0.63790   0.14890   0.87728   0.01267  Uiso   1.00
C15    C     0.60480   0.27340   0.76952   0.01267  Uiso   1.00
C16    C     0.00910   0.79900   0.72683   0.01267  Uiso   1.00
C17    C     0.29280   0.14190   0.79036   0.01267  Uiso   1.00
C18    C     0.30120   0.15630   0.94939   0.01267  Uiso   1.00
C19    C     0.93130   0.80230   0.68188   0.01267  Uiso   1.00
C20    C     0.76400   0.29880   0.89881   0.01267  Uiso   1.00
C21    C     0.55380   0.39560   0.72490   0.01267  Uiso   1.00
C22    C     0.08020   0.88290   0.75300   0.01267  Uiso   1.00
C23    C     0.17750   0.27310   0.90163   0.01267  Uiso   1.00
C24    C     0.52100   0.32050   0.68062   0.01267  Uiso   1.00
C25    C     0.64830   0.25100   0.81760   0.01267  Uiso   1.00
C26    C     0.15870   0.87590   0.79105   0.01267  Uiso   1.00
C27    C     0.22730   0.19690   0.87297   0.01267  Uiso   1.00
C28    C     0.28970   0.13830   0.89732   0.01267  Uiso   1.00
C29    C     0.89190   0.85080   0.60408   0.01267  Uiso   1.00
C30    C     0.27790   0.12040   0.73860   0.01267  Uiso   1.00
C31    C     0.83060   0.74680   0.67143   0.01267  Uiso   1.00
C32    C     0.16750   0.78470   0.80373   0.01267  Uiso   1.00
C33    C     0.10180   0.16980   0.73935   0.01267  Uiso   1.00
C34    C     0.57100   0.19700   0.72580   0.01267  Uiso   1.00
C35    C     0.21230   0.17690   0.81755   0.01267  Uiso   1.00
C36    C     0.25920   0.77350   0.84151   0.01267  Uiso   1.00
C37    C     0.09370   0.70340   0.77920   0.01267  Uiso   1.00
C38    C     0.01510   0.71000   0.74080   0.01267  Uiso   1.00
C39    C     0.84860   0.37150   0.93638   0.01267  Uiso   1.00
C40    C     0.92970   0.90050   0.56519   0.01267  Uiso   1.00
C41    C     0.36810   0.09660   0.97673   0.01267  Uiso   1.00
C42    C     0.97960   0.50690   0.83578   0.01267  Uiso   1.00
C43    C     0.75390   0.39350   0.59849   0.01267  Uiso   1.00
C44    C     0.94170   0.46690   0.78065   0.01267  Uiso   1.00
C45    C     0.65270   0.68400   0.61726   0.01267  Uiso   1.00
C46    C     0.12590   0.36380   0.98332   0.01267  Uiso   1.00
C47    C     0.99840   0.40210   0.75122   0.01267  Uiso   1.00
C48    C     0.82310   0.21890   0.54453   0.01267  Uiso   1.00
C49    C     0.71590   0.35560   0.54764   0.01267  Uiso   1.00
C50    C     0.86400   0.25850   0.59532   0.01267  Uiso   1.00
C51    C     0.48020   0.34810   0.63349   0.01267  Uiso   1.00
C52    C     0.85680   0.12440   0.51474   0.01267  Uiso   1.00
C53    C     0.82910   0.34590   0.62328   0.01267  Uiso   1.00
C54    C     0.74920   0.26780   0.52079   0.01267  Uiso   1.00
C55    C     0.81230   0.45400   0.70758   0.01267  Uiso   1.00
C56    C     0.18670   0.28770   0.95339   0.01267  Uiso   1.00
C57    C     0.96350   0.36360   0.70014   0.01267  Uiso   1.00
C58    C     0.84800   0.49470   0.75868   0.01267  Uiso   1.00
C59    C     0.86910   0.38930   0.67782   0.01267  Uiso   1.00
C60    C     0.64230   0.41260   0.52144   0.01267  Uiso   1.00
C61    C     0.28370   0.78410   0.08884   0.01267  Uiso   1.00
C62    C     0.27100   0.68420   0.14825   0.01267  Uiso   1.00
C63    C     0.03920   0.14480   0.35201   0.01267  Uiso   1.00
C64    C     0.39500   0.83290   0.16932   0.01267  Uiso   1.00
C65    C     0.88390   0.80920   0.20865   0.01267  Uiso   1.00
C66    C     0.41390   0.93860   0.10923   0.01267  Uiso   1.00
C67    C     0.81940   0.86570   0.28727   0.01267  Uiso   1.00
C68    C     0.20760   0.20350   0.40530   0.01267  Uiso   1.00
C69    C     0.83480   0.88450   0.34303   0.01267  Uiso   1.00
C70    C     0.47050   0.77920   0.31820   0.01267  Uiso   1.00
C71    C     0.23930   0.25490   0.37182   0.01267  Uiso   1.00
C72    C     0.40480   0.62710   0.23150   0.01267  Uiso   1.00
C73    C     0.75180   0.77040   0.02302   0.01267  Uiso   1.00
C74    C     0.36210   0.85110   0.12272   0.01267  Uiso   1.00
C75    C     0.39520   0.72660   0.23048   0.01267  Uiso   1.00
C76    C     0.99090   0.20100   0.27317   0.01267  Uiso   1.00
C77    C     0.70720   0.85810   0.20964   0.01267  Uiso   1.00
C78    C     0.69880   0.84370   0.05061   0.01267  Uiso   1.00
C79    C     0.06870   0.19770   0.31812   0.01267  Uiso   1.00
C80    C     0.23600   0.70120   0.10119   0.01267  Uiso   1.00
C81    C     0.44620   0.60440   0.27510   0.01267  Uiso   1.00
C82    C     0.91980   0.11710   0.24700   0.01267  Uiso   1.00
C83    C     0.82250   0.72690   0.09837   0.01267  Uiso   1.00
C84    C     0.47900   0.67950   0.31938   0.01267  Uiso   1.00
C85    C     0.35170   0.74900   0.18240   0.01267  Uiso   1.00
C86    C     0.84130   0.12410   0.20895   0.01267  Uiso   1.00
C87    C     0.77270   0.80310   0.12703   0.01267  Uiso   1.00
C88    C     0.71030   0.86170   0.10268   0.01267  Uiso   1.00
C89    C     0.10810   0.14920   0.39592   0.01267  Uiso   1.00
C90    C     0.72210   0.87960   0.26140   0.01267  Uiso   1.00
C91    C     0.16940   0.25320   0.32857   0.01267  Uiso   1.00
C92    C     0.83250   0.21530   0.19627   0.01267  Uiso   1.00
C93    C     0.89820   0.83020   0.26065   0.01267  Uiso   1.00
C94    C     0.42900   0.80300   0.27420   0.01267  Uiso   1.00
C95    C     0.78770   0.82310   0.18245   0.01267  Uiso   1.00
C96    C     0.74080   0.22650   0.15849   0.01267  Uiso   1.00
C97    C     0.90630   0.29660   0.22080   0.01267  Uiso   1.00
C98    C     0.98490   0.29000   0.25920   0.01267  Uiso   1.00
C99    C     0.15140   0.62850   0.06362   0.01267  Uiso   1.00
C100   C     0.07030   0.09950   0.43481   0.01267  Uiso   1.00
C101   C     0.63190   0.90340   0.02327   0.01267  Uiso   1.00
C102   C     0.02040   0.49310   0.16422   0.01267  Uiso   1.00
C103   C     0.24610   0.60650   0.40151   0.01267  Uiso   1.00
C104   C     0.05830   0.53310   0.21935   0.01267  Uiso   1.00
C105   C     0.34730   0.31600   0.38274   0.01267  Uiso   1.00
C106   C     0.87410   0.63620   0.01668   0.01267  Uiso   1.00
C107   C     0.00160   0.59790   0.24878   0.01267  Uiso   1.00
C108   C     0.17690   0.78110   0.45547   0.01267  Uiso   1.00
C109   C     0.28410   0.64440   0.45236   0.01267  Uiso   1.00
C110   C     0.13600   0.74150   0.40468   0.01267  Uiso   1.00
C111   C     0.51980   0.65190   0.36651   0.01267  Uiso   1.00
C112   C     0.14320   0.87560   0.48526   0.01267  Uiso   1.00
C113   C     0.17090   0.65410   0.37672   0.01267  Uiso   1.00
C114   C     0.25080   0.73220   0.47921   0.01267  Uiso   1.00
C115   C     0.18770   0.54600   0.29242   0.01267  Uiso   1.00
C116   C     0.81330   0.71230   0.04661   0.01267  Uiso   1.00
C117   C     0.03650   0.63640   0.29986   0.01267  Uiso   1.00
C118   C     0.15200   0.50530   0.24132   0.01267  Uiso   1.00
C119   C     0.13090   0.61070   0.32218   0.01267  Uiso   1.00
C120   C     0.35770   0.58740   0.47856   0.01267  Uiso   1.00
O1     O     0.51460   0.00120   0.85909   0.01267  Uiso   1.00
O2     O     0.61470   0.04700   0.93329   0.01267  Uiso   1.00
O3     O     0.22490   0.06170   0.63196   0.01267  Uiso   1.00
O4     O     0.08990   0.15360   0.63638   0.01267  Uiso   1.00
O5     O     0.10340   0.34940   0.02441   0.01267  Uiso   1.00
O6     O     0.02120   0.95070   0.57742   0.01267  Uiso   1.00
O7     O     0.58820   0.68670   0.57930   0.01267  Uiso   1.00
O8     O     0.60340   0.48370   0.54742   0.01267  Uiso   1.00
O9     O     0.94030   0.58060   0.86086   0.01267  Uiso   1.00
O10    O     0.88920   0.44420   0.92219   0.01267  Uiso   1.00
O11    O     0.79320   0.07460   0.47632   0.01267  Uiso   1.00
O12    O     0.87490   0.35340   0.97773   0.01267  Uiso   1.00
O13    O     0.94470   0.09430   0.52823   0.01267  Uiso   1.00
O14    O     0.09900   0.43550   0.96663   0.01267  Uiso   1.00
O15    O     0.86700   0.89110   0.52597   0.01267  Uiso   1.00
O16    O     0.48310   0.44120   0.63620   0.01267  Uiso   1.00
O17    O     0.62530   0.38560   0.47419   0.01267  Uiso   1.00
O18    O     0.40260   0.02010   0.95176   0.01267  Uiso   1.00
O19    O     0.32990   0.84880   0.85854   0.01267  Uiso   1.00
O20    O     0.62900   0.62910   0.64518   0.01267  Uiso   1.00
O21    O     0.38570   0.12830   0.02373   0.01267  Uiso   1.00
O22    O     0.26300   0.69090   0.85225   0.01267  Uiso   1.00
O23    O     0.44730   0.28000   0.59431   0.01267  Uiso   1.00
O24    O     0.05070   0.46530   0.85658   0.01267  Uiso   1.00
O25    O     0.48540   0.99880   0.14091   0.01267  Uiso   1.00
O26    O     0.38530   0.95300   0.06671   0.01267  Uiso   1.00
O27    O     0.77510   0.93830   0.36804   0.01267  Uiso   1.00
O28    O     0.91010   0.84640   0.36362   0.01267  Uiso   1.00
O29    O     0.89660   0.65060   0.97559   0.01267  Uiso   1.00
O30    O     0.97880   0.04930   0.42258   0.01267  Uiso   1.00
O31    O     0.41180   0.31330   0.42070   0.01267  Uiso   1.00
O32    O     0.39660   0.51630   0.45258   0.01267  Uiso   1.00
O33    O     0.05970   0.41940   0.13914   0.01267  Uiso   1.00
O34    O     0.11080   0.55580   0.07781   0.01267  Uiso   1.00
O35    O     0.20680   0.92540   0.52368   0.01267  Uiso   1.00
O36    O     0.12510   0.64660   0.02227   0.01267  Uiso   1.00
O37    O     0.05530   0.90570   0.47177   0.01267  Uiso   1.00
O38    O     0.90100   0.56450   0.03337   0.01267  Uiso   1.00
O39    O     0.13300   0.10890   0.47403   0.01267  Uiso   1.00
O40    O     0.51690   0.55880   0.36380   0.01267  Uiso   1.00
O41    O     0.37470   0.61440   0.52581   0.01267  Uiso   1.00
O42    O     0.59740   0.97990   0.04824   0.01267  Uiso   1.00
O43    O     0.67010   0.15120   0.14146   0.01267  Uiso   1.00
O44    O     0.37100   0.37090   0.35482   0.01267  Uiso   1.00
O45    O     0.61430   0.87170   0.97627   0.01267  Uiso   1.00
O46    O     0.73700   0.30910   0.14775   0.01267  Uiso   1.00
O47    O     0.55270   0.72000   0.40569   0.01267  Uiso   1.00
O48    O     0.94930   0.53470   0.14342   0.01267  Uiso   1.00
