data_XADDEN_uncharged_b
_audit_creation_date              2014-07-02
_audit_creation_method            'Materials Studio'
_symmetry_space_group_name_H-M    'P1'
_symmetry_Int_Tables_number       1
_symmetry_cell_setting            triclinic
loop_
_symmetry_equiv_pos_as_xyz
  x,y,z
_cell_length_a                    18.6510
_cell_length_b                    18.6510
_cell_length_c                    18.6510
_cell_angle_alpha                 60.0000
_cell_angle_beta                  60.0000
_cell_angle_gamma                 60.0000
loop_
_atom_site_label
_atom_site_type_symbol
_atom_site_fract_x
_atom_site_fract_y
_atom_site_fract_z
_atom_site_U_iso_or_equiv
_atom_site_adp_type
_atom_site_occupancy
Cu1    Cu    0.06986   0.50000   0.50000   0.01267  Uiso   1.00
Cu2    Cu    0.50000   0.06986   0.93014   0.01267  Uiso   1.00
Cu3    Cu    0.50000   0.93014   0.06986   0.01267  Uiso   1.00
Cu4    Cu    0.93014   0.50000   0.50000   0.01267  Uiso   1.00
Cu5    Cu    0.06986   0.50000   0.93014   0.01267  Uiso   1.00
Cu6    Cu    0.50000   0.93014   0.50000   0.01267  Uiso   1.00
Cu7    Cu    0.50000   0.06986   0.50000   0.01267  Uiso   1.00
Cu8    Cu    0.93014   0.50000   0.06986   0.01267  Uiso   1.00
Cu9    Cu    0.06986   0.93014   0.50000   0.01267  Uiso   1.00
Cu10   Cu    0.50000   0.50000   0.06986   0.01267  Uiso   1.00
Cu11   Cu    0.50000   0.50000   0.93014   0.01267  Uiso   1.00
Cu12   Cu    0.93014   0.06986   0.50000   0.01267  Uiso   1.00
H1     H     0.77260   0.46740   0.77260   0.01267  Uiso   1.00
H2     H     0.46740   0.77260   0.98740   0.01267  Uiso   1.00
H3     H     0.77260   0.98740   0.77260   0.01267  Uiso   1.00
H4     H     0.98740   0.77260   0.46740   0.01267  Uiso   1.00
H5     H     0.77260   0.77260   0.98740   0.01267  Uiso   1.00
H6     H     0.46740   0.98740   0.77260   0.01267  Uiso   1.00
H7     H     0.77260   0.77260   0.46740   0.01267  Uiso   1.00
H8     H     0.98740   0.46740   0.77260   0.01267  Uiso   1.00
H9     H     0.77260   0.98740   0.46740   0.01267  Uiso   1.00
H10    H     0.46740   0.77260   0.77260   0.01267  Uiso   1.00
H11    H     0.77260   0.46740   0.98740   0.01267  Uiso   1.00
H12    H     0.98740   0.77260   0.77260   0.01267  Uiso   1.00
H13    H     0.53260   0.22740   0.22740   0.01267  Uiso   1.00
H14    H     0.22740   0.53260   0.01260   0.01267  Uiso   1.00
H15    H     0.01260   0.22740   0.22740   0.01267  Uiso   1.00
H16    H     0.22740   0.01260   0.53260   0.01267  Uiso   1.00
H17    H     0.22740   0.22740   0.01260   0.01267  Uiso   1.00
H18    H     0.01260   0.53260   0.22740   0.01267  Uiso   1.00
H19    H     0.22740   0.22740   0.53260   0.01267  Uiso   1.00
H20    H     0.53260   0.01260   0.22740   0.01267  Uiso   1.00
H21    H     0.01260   0.22740   0.53260   0.01267  Uiso   1.00
H22    H     0.22740   0.53260   0.22740   0.01267  Uiso   1.00
H23    H     0.53260   0.22740   0.01260   0.01267  Uiso   1.00
H24    H     0.22740   0.01260   0.22740   0.01267  Uiso   1.00
C1     C     0.93090   0.47426   0.66394   0.01267  Uiso   1.00
C2     C     0.88740   0.46712   0.75808   0.01267  Uiso   1.00
C3     C     0.47426   0.93090   0.93090   0.01267  Uiso   1.00
C4     C     0.46712   0.88740   0.88740   0.01267  Uiso   1.00
C5     C     0.66394   0.93090   0.93090   0.01267  Uiso   1.00
C6     C     0.75808   0.88740   0.88740   0.01267  Uiso   1.00
C7     C     0.93090   0.66394   0.47426   0.01267  Uiso   1.00
C8     C     0.88740   0.75808   0.46712   0.01267  Uiso   1.00
C9     C     0.93090   0.66394   0.93090   0.01267  Uiso   1.00
C10    C     0.88740   0.75808   0.88740   0.01267  Uiso   1.00
C11    C     0.47426   0.93090   0.66394   0.01267  Uiso   1.00
C12    C     0.46712   0.88740   0.75808   0.01267  Uiso   1.00
C13    C     0.66394   0.93090   0.47426   0.01267  Uiso   1.00
C14    C     0.75808   0.88740   0.46712   0.01267  Uiso   1.00
C15    C     0.93090   0.47426   0.93090   0.01267  Uiso   1.00
C16    C     0.88740   0.46712   0.88740   0.01267  Uiso   1.00
C17    C     0.93090   0.93090   0.47426   0.01267  Uiso   1.00
C18    C     0.88740   0.88740   0.46712   0.01267  Uiso   1.00
C19    C     0.47426   0.66394   0.93090   0.01267  Uiso   1.00
C20    C     0.46712   0.75808   0.88740   0.01267  Uiso   1.00
C21    C     0.66394   0.47426   0.93090   0.01267  Uiso   1.00
C22    C     0.75808   0.46712   0.88740   0.01267  Uiso   1.00
C23    C     0.93090   0.93090   0.66394   0.01267  Uiso   1.00
C24    C     0.88740   0.88740   0.75808   0.01267  Uiso   1.00
C25    C     0.52574   0.06910   0.33606   0.01267  Uiso   1.00
C26    C     0.53288   0.11260   0.24192   0.01267  Uiso   1.00
C27    C     0.06910   0.52574   0.06910   0.01267  Uiso   1.00
C28    C     0.11260   0.53288   0.11260   0.01267  Uiso   1.00
C29    C     0.06910   0.33606   0.06910   0.01267  Uiso   1.00
C30    C     0.11260   0.24192   0.11260   0.01267  Uiso   1.00
C31    C     0.33606   0.06910   0.52574   0.01267  Uiso   1.00
C32    C     0.24192   0.11260   0.53288   0.01267  Uiso   1.00
C33    C     0.33606   0.06910   0.06910   0.01267  Uiso   1.00
C34    C     0.24192   0.11260   0.11260   0.01267  Uiso   1.00
C35    C     0.06910   0.52574   0.33606   0.01267  Uiso   1.00
C36    C     0.11260   0.53288   0.24192   0.01267  Uiso   1.00
C37    C     0.06910   0.33606   0.52574   0.01267  Uiso   1.00
C38    C     0.11260   0.24192   0.53288   0.01267  Uiso   1.00
C39    C     0.52574   0.06910   0.06910   0.01267  Uiso   1.00
C40    C     0.53288   0.11260   0.11260   0.01267  Uiso   1.00
C41    C     0.06910   0.06910   0.52574   0.01267  Uiso   1.00
C42    C     0.11260   0.11260   0.53288   0.01267  Uiso   1.00
C43    C     0.33606   0.52574   0.06910   0.01267  Uiso   1.00
C44    C     0.24192   0.53288   0.11260   0.01267  Uiso   1.00
C45    C     0.52574   0.33606   0.06910   0.01267  Uiso   1.00
C46    C     0.53288   0.24192   0.11260   0.01267  Uiso   1.00
C47    C     0.06910   0.06910   0.33606   0.01267  Uiso   1.00
C48    C     0.11260   0.11260   0.24192   0.01267  Uiso   1.00
C49    C     0.80150   0.46722   0.80150   0.01267  Uiso   1.00
C50    C     0.46722   0.80150   0.92978   0.01267  Uiso   1.00
C51    C     0.80150   0.92978   0.80150   0.01267  Uiso   1.00
C52    C     0.92978   0.80150   0.46722   0.01267  Uiso   1.00
C53    C     0.80150   0.80150   0.92978   0.01267  Uiso   1.00
C54    C     0.46722   0.92978   0.80150   0.01267  Uiso   1.00
C55    C     0.80150   0.80150   0.46722   0.01267  Uiso   1.00
C56    C     0.92978   0.46722   0.80150   0.01267  Uiso   1.00
C57    C     0.80150   0.92978   0.46722   0.01267  Uiso   1.00
C58    C     0.46722   0.80150   0.80150   0.01267  Uiso   1.00
C59    C     0.80150   0.46722   0.92978   0.01267  Uiso   1.00
C60    C     0.92978   0.80150   0.80150   0.01267  Uiso   1.00
C61    C     0.53278   0.19850   0.19850   0.01267  Uiso   1.00
C62    C     0.19850   0.53278   0.07022   0.01267  Uiso   1.00
C63    C     0.07022   0.19850   0.19850   0.01267  Uiso   1.00
C64    C     0.19850   0.07022   0.53278   0.01267  Uiso   1.00
C65    C     0.19850   0.19850   0.07022   0.01267  Uiso   1.00
C66    C     0.07022   0.53278   0.19850   0.01267  Uiso   1.00
C67    C     0.19850   0.19850   0.53278   0.01267  Uiso   1.00
C68    C     0.53278   0.07022   0.19850   0.01267  Uiso   1.00
C69    C     0.07022   0.19850   0.53278   0.01267  Uiso   1.00
C70    C     0.19850   0.53278   0.19850   0.01267  Uiso   1.00
C71    C     0.53278   0.19850   0.07022   0.01267  Uiso   1.00
C72    C     0.19850   0.07022   0.19850   0.01267  Uiso   1.00
O1     O     0.00740   0.47868   0.62646   0.01267  Uiso   1.00
O2     O     0.47868   0.00740   0.88746   0.01267  Uiso   1.00
O3     O     0.62646   0.88746   0.00740   0.01267  Uiso   1.00
O4     O     0.88746   0.62646   0.47868   0.01267  Uiso   1.00
O5     O     0.00740   0.62646   0.88746   0.01267  Uiso   1.00
O6     O     0.47868   0.88746   0.62646   0.01267  Uiso   1.00
O7     O     0.62646   0.00740   0.47868   0.01267  Uiso   1.00
O8     O     0.88746   0.47868   0.00740   0.01267  Uiso   1.00
O9     O     0.00740   0.88746   0.47868   0.01267  Uiso   1.00
O10    O     0.47868   0.62646   0.00740   0.01267  Uiso   1.00
O11    O     0.62646   0.47868   0.88746   0.01267  Uiso   1.00
O12    O     0.88746   0.00740   0.62646   0.01267  Uiso   1.00
O13    O     0.52132   0.99260   0.37354   0.01267  Uiso   1.00
O14    O     0.99260   0.52132   0.11254   0.01267  Uiso   1.00
O15    O     0.11254   0.37354   0.99260   0.01267  Uiso   1.00
O16    O     0.37354   0.11254   0.52132   0.01267  Uiso   1.00
O17    O     0.37354   0.99260   0.11254   0.01267  Uiso   1.00
O18    O     0.11254   0.52132   0.37354   0.01267  Uiso   1.00
O19    O     0.99260   0.37354   0.52132   0.01267  Uiso   1.00
O20    O     0.52132   0.11254   0.99260   0.01267  Uiso   1.00
O21    O     0.11254   0.99260   0.52132   0.01267  Uiso   1.00
O22    O     0.37354   0.52132   0.99260   0.01267  Uiso   1.00
O23    O     0.52132   0.37354   0.11254   0.01267  Uiso   1.00
O24    O     0.99260   0.11254   0.37354   0.01267  Uiso   1.00
O25    O     0.99260   0.52132   0.37354   0.01267  Uiso   1.00
O26    O     0.52132   0.99260   0.11254   0.01267  Uiso   1.00
O27    O     0.37354   0.11254   0.99260   0.01267  Uiso   1.00
O28    O     0.11254   0.37354   0.52132   0.01267  Uiso   1.00
O29    O     0.99260   0.37354   0.11254   0.01267  Uiso   1.00
O30    O     0.52132   0.11254   0.37354   0.01267  Uiso   1.00
O31    O     0.37354   0.99260   0.52132   0.01267  Uiso   1.00
O32    O     0.11254   0.52132   0.99260   0.01267  Uiso   1.00
O33    O     0.99260   0.11254   0.52132   0.01267  Uiso   1.00
O34    O     0.52132   0.37354   0.99260   0.01267  Uiso   1.00
O35    O     0.37354   0.52132   0.11254   0.01267  Uiso   1.00
O36    O     0.11254   0.99260   0.37354   0.01267  Uiso   1.00
O37    O     0.47868   0.00740   0.62646   0.01267  Uiso   1.00
O38    O     0.00740   0.47868   0.88746   0.01267  Uiso   1.00
O39    O     0.88746   0.62646   0.00740   0.01267  Uiso   1.00
O40    O     0.62646   0.88746   0.47868   0.01267  Uiso   1.00
O41    O     0.62646   0.00740   0.88746   0.01267  Uiso   1.00
O42    O     0.88746   0.47868   0.62646   0.01267  Uiso   1.00
O43    O     0.00740   0.62646   0.47868   0.01267  Uiso   1.00
O44    O     0.47868   0.88746   0.00740   0.01267  Uiso   1.00
O45    O     0.88746   0.00740   0.47868   0.01267  Uiso   1.00
O46    O     0.62646   0.47868   0.00740   0.01267  Uiso   1.00
O47    O     0.47868   0.62646   0.88746   0.01267  Uiso   1.00
O48    O     0.00740   0.88746   0.62646   0.01267  Uiso   1.00
loop_
_geom_bond_atom_site_label_1
_geom_bond_atom_site_label_2
_geom_bond_distance
_geom_bond_site_symmetry_2
_ccdc_geom_bond_type
Cu1    O1      1.964   .     S
Cu1    O18     1.964   .     S
Cu1    O28     1.964   .     S
Cu1    O43     1.964   .     S
Cu1    Cu4     2.606   1_455 S
Cu2    O2      1.964   .     S
Cu2    O20     1.964   .     S
Cu2    O27     1.964   .     S
Cu2    O41     1.964   .     S
Cu2    Cu3     2.606   1_546 S
Cu3    O3      1.964   .     S
Cu3    O17     1.964   .     S
Cu3    O26     1.964   .     S
Cu3    O44     1.964   .     S
Cu3    Cu2     2.606   1_564 S
Cu4    O4      1.964   .     S
Cu4    O19     1.964   .     S
Cu4    O25     1.964   .     S
Cu4    O42     1.964   .     S
Cu4    Cu1     2.606   1_655 S
Cu5    O5      1.964   .     S
Cu5    O15     1.964   .     S
Cu5    O32     1.964   .     S
Cu5    O38     1.964   .     S
Cu5    Cu8     2.606   1_456 S
Cu6    O6      1.964   .     S
Cu6    O13     1.964   .     S
Cu6    O31     1.964   .     S
Cu6    O40     1.964   .     S
Cu6    Cu7     2.606   1_565 S
Cu7    O7      1.964   .     S
Cu7    O16     1.964   .     S
Cu7    O30     1.964   .     S
Cu7    O37     1.964   .     S
Cu7    Cu6     2.606   1_545 S
Cu8    O8      1.964   .     S
Cu8    O14     1.964   .     S
Cu8    O29     1.964   .     S
Cu8    O39     1.964   .     S
Cu8    Cu5     2.606   1_654 S
Cu9    O9      1.964   .     S
Cu9    O21     1.964   .     S
Cu9    O36     1.964   .     S
Cu9    O48     1.964   .     S
Cu9    Cu12    2.606   1_465 S
Cu10   O10     1.964   .     S
Cu10   O23     1.964   .     S
Cu10   O35     1.964   .     S
Cu10   O46     1.964   .     S
Cu10   Cu11    2.606   1_554 S
Cu11   O11     1.964   .     S
Cu11   O22     1.964   .     S
Cu11   O34     1.964   .     S
Cu11   O47     1.964   .     S
Cu11   Cu10    2.606   1_556 S
Cu12   O12     1.964   .     S
Cu12   O24     1.964   .     S
Cu12   O33     1.964   .     S
Cu12   O45     1.964   .     S
Cu12   Cu9     2.606   1_645 S
H1     C49     0.932   .     S
H2     C50     0.932   .     S
H3     C51     0.932   .     S
H4     C52     0.932   .     S
H5     C53     0.932   .     S
H6     C54     0.932   .     S
H7     C55     0.932   .     S
H8     C56     0.932   .     S
H9     C57     0.932   .     S
H10    C58     0.932   .     S
H11    C59     0.932   .     S
H12    C60     0.932   .     S
H13    C61     0.932   .     S
H14    C62     0.932   .     S
H15    C63     0.932   .     S
H16    C64     0.932   .     S
H17    C65     0.932   .     S
H18    C66     0.932   .     S
H19    C67     0.932   .     S
H20    C68     0.932   .     S
H21    C69     0.932   .     S
H22    C70     0.932   .     S
H23    C71     0.932   .     S
H24    C72     0.932   .     S
C1     C2      1.486   .     S
C1     O42     1.262   .     A
C1     O1      1.262   1_655 S
C2     C49     1.387   .     A
C2     C56     1.387   .     A
C3     C4      1.486   .     S
C3     O2      1.262   1_565 S
C3     O44     1.262   1_556 S
C4     C50     1.387   .     A
C4     C54     1.387   .     A
C5     C6      1.486   .     S
C5     O3      1.262   1_556 S
C5     O41     1.262   1_565 S
C6     C51     1.387   .     A
C6     C53     1.387   .     A
C7     C8      1.486   .     S
C7     O4      1.262   .     A
C7     O43     1.262   1_655 S
C8     C52     1.387   .     A
C8     C55     1.387   .     A
C9     C10     1.486   .     S
C9     O5      1.262   1_655 S
C9     O39     1.262   1_556 S
C10    C53     1.387   .     A
C10    C60     1.387   .     A
C11    C12     1.486   .     S
C11    O6      1.262   .     A
C11    O37     1.262   1_565 S
C12    C54     1.387   .     A
C12    C58     1.387   .     A
C13    C14     1.486   .     S
C13    O40     1.262   .     A
C13    O7      1.262   1_565 S
C14    C55     1.387   .     A
C14    C57     1.387   .     A
C15    C16     1.486   .     S
C15    O8      1.262   1_556 S
C15    O38     1.262   1_655 S
C16    C56     1.387   .     A
C16    C59     1.387   .     A
C17    C18     1.486   .     S
C17    O9      1.262   1_655 S
C17    O45     1.262   1_565 S
C18    C52     1.387   .     A
C18    C57     1.387   .     A
C19    C20     1.486   .     S
C19    O47     1.262   .     A
C19    O10     1.262   1_556 S
C20    C50     1.387   .     A
C20    C58     1.387   .     A
C21    C22     1.486   .     S
C21    O11     1.262   .     A
C21    O46     1.262   1_556 S
C22    C49     1.387   .     A
C22    C59     1.387   .     A
C23    C24     1.486   .     S
C23    O12     1.262   1_565 S
C23    O48     1.262   1_655 S
C24    C51     1.387   .     A
C24    C60     1.387   .     A
C25    C26     1.486   .     S
C25    O30     1.262   .     A
C25    O13     1.262   1_545 S
C26    C61     1.387   .     A
C26    C68     1.387   .     A
C27    C28     1.486   .     S
C27    O14     1.262   1_455 S
C27    O32     1.262   1_554 S
C28    C62     1.387   .     A
C28    C66     1.387   .     A
C29    C30     1.486   .     S
C29    O15     1.262   1_554 S
C29    O29     1.262   1_455 S
C30    C63     1.387   .     A
C30    C65     1.387   .     A
C31    C32     1.486   .     S
C31    O16     1.262   .     A
C31    O31     1.262   1_545 S
C32    C64     1.387   .     A
C32    C67     1.387   .     A
C33    C34     1.486   .     S
C33    O17     1.262   1_545 S
C33    O27     1.262   1_554 S
C34    C65     1.387   .     A
C34    C72     1.387   .     A
C35    C36     1.486   .     S
C35    O18     1.262   .     A
C35    O25     1.262   1_455 S
C36    C66     1.387   .     A
C36    C70     1.387   .     A
C37    C38     1.486   .     S
C37    O28     1.262   .     A
C37    O19     1.262   1_455 S
C38    C67     1.387   .     A
C38    C69     1.387   .     A
C39    C40     1.486   .     S
C39    O20     1.262   1_554 S
C39    O26     1.262   1_545 S
C40    C68     1.387   .     A
C40    C71     1.387   .     A
C41    C42     1.486   .     S
C41    O21     1.262   1_545 S
C41    O33     1.262   1_455 S
C42    C64     1.387   .     A
C42    C69     1.387   .     A
C43    C44     1.486   .     S
C43    O35     1.262   .     A
C43    O22     1.262   1_554 S
C44    C62     1.387   .     A
C44    C70     1.387   .     A
C45    C46     1.486   .     S
C45    O23     1.262   .     A
C45    O34     1.262   1_554 S
C46    C61     1.387   .     A
C46    C71     1.387   .     A
C47    C48     1.486   .     S
C47    O24     1.262   1_455 S
C47    O36     1.262   1_545 S
C48    C63     1.387   .     A
C48    C72     1.387   .     A
O1     C1      1.262   1_455 S
O2     C3      1.262   1_545 S
O3     C5      1.262   1_554 S
O5     C9      1.262   1_455 S
O7     C13     1.262   1_545 S
O8     C15     1.262   1_554 S
O9     C17     1.262   1_455 S
O10    C19     1.262   1_554 S
O12    C23     1.262   1_545 S
O13    C25     1.262   1_565 S
O14    C27     1.262   1_655 S
O15    C29     1.262   1_556 S
O17    C33     1.262   1_565 S
O19    C37     1.262   1_655 S
O20    C39     1.262   1_556 S
O21    C41     1.262   1_565 S
O22    C43     1.262   1_556 S
O24    C47     1.262   1_655 S
O25    C35     1.262   1_655 S
O26    C39     1.262   1_565 S
O27    C33     1.262   1_556 S
O29    C29     1.262   1_655 S
O31    C31     1.262   1_565 S
O32    C27     1.262   1_556 S
O33    C41     1.262   1_655 S
O34    C45     1.262   1_556 S
O36    C47     1.262   1_565 S
O37    C11     1.262   1_545 S
O38    C15     1.262   1_455 S
O39    C9      1.262   1_554 S
O41    C5      1.262   1_545 S
O43    C7      1.262   1_455 S
O44    C3      1.262   1_554 S
O45    C17     1.262   1_545 S
O46    C21     1.262   1_554 S
O48    C23     1.262   1_455 S
