data_XADFEP_clean
_audit_creation_date              2014-07-02
_audit_creation_method            'Materials Studio'
_symmetry_space_group_name_H-M    'P1'
_symmetry_Int_Tables_number       1
_symmetry_cell_setting            triclinic
loop_
_symmetry_equiv_pos_as_xyz
  x,y,z
_cell_length_a                    9.9498
_cell_length_b                    9.9498
_cell_length_c                    14.3760
_cell_angle_alpha                 98.3515
_cell_angle_beta                  98.3515
_cell_angle_gamma                 107.6770
loop_
_atom_site_label
_atom_site_type_symbol
_atom_site_fract_x
_atom_site_fract_y
_atom_site_fract_z
_atom_site_U_iso_or_equiv
_atom_site_adp_type
_atom_site_occupancy
Ni1    Ni    0.00236   0.50008   0.25466   0.01267  Uiso   1.00
Ni2    Ni    0.49992   0.99764   0.24534   0.01267  Uiso   1.00
Ni3    Ni    0.99764   0.49992   0.74534   0.01267  Uiso   1.00
Ni4    Ni    0.50008   0.00236   0.75466   0.01267  Uiso   1.00
H1     H     0.27220   0.39960   0.26460   0.01267  Uiso   1.00
H2     H     0.73620   0.60500   0.25570   0.01267  Uiso   1.00
H3     H     0.84440   0.82740   0.37480   0.01267  Uiso   1.00
H4     H     0.60040   0.72780   0.23540   0.01267  Uiso   1.00
H5     H     0.39500   0.26380   0.24430   0.01267  Uiso   1.00
H6     H     0.17260   0.15560   0.12520   0.01267  Uiso   1.00
H7     H     0.72780   0.60040   0.73540   0.01267  Uiso   1.00
H8     H     0.26380   0.39500   0.74430   0.01267  Uiso   1.00
H9     H     0.15560   0.17260   0.62520   0.01267  Uiso   1.00
H10    H     0.39960   0.27220   0.76460   0.01267  Uiso   1.00
H11    H     0.60500   0.73620   0.75570   0.01267  Uiso   1.00
H12    H     0.82740   0.84440   0.87480   0.01267  Uiso   1.00
H13    H     0.23100   0.76900   0.25000   0.01267  Uiso   1.00
H14    H     0.77220   0.22780   0.25000   0.01267  Uiso   1.00
H15    H     0.76900   0.23100   0.75000   0.01267  Uiso   1.00
H16    H     0.22780   0.77220   0.75000   0.01267  Uiso   1.00
C1     C     0.31060   0.49440   0.25770   0.01267  Uiso   1.00
C2     C     0.69390   0.50710   0.25320   0.01267  Uiso   1.00
C3     C     0.03470   0.87670   0.46540   0.01267  Uiso   1.00
C4     C     0.13050   0.98510   0.54160   0.01267  Uiso   1.00
C5     C     0.90710   0.89710   0.42580   0.01267  Uiso   1.00
C6     C     0.05900   0.74020   0.42780   0.01267  Uiso   1.00
C7     C     0.27740   0.98100   0.58230   0.01267  Uiso   1.00
C8     C     0.50560   0.68940   0.24230   0.01267  Uiso   1.00
C9     C     0.49290   0.30610   0.24680   0.01267  Uiso   1.00
C10    C     0.12330   0.96530   0.03460   0.01267  Uiso   1.00
C11    C     0.01490   0.86950   0.95840   0.01267  Uiso   1.00
C12    C     0.10290   0.09290   0.07420   0.01267  Uiso   1.00
C13    C     0.25980   0.94100   0.07220   0.01267  Uiso   1.00
C14    C     0.01900   0.72260   0.91770   0.01267  Uiso   1.00
C15    C     0.68940   0.50560   0.74230   0.01267  Uiso   1.00
C16    C     0.30610   0.49290   0.74680   0.01267  Uiso   1.00
C17    C     0.96530   0.12330   0.53460   0.01267  Uiso   1.00
C18    C     0.86950   0.01490   0.45840   0.01267  Uiso   1.00
C19    C     0.09290   0.10290   0.57420   0.01267  Uiso   1.00
C20    C     0.94100   0.25980   0.57220   0.01267  Uiso   1.00
C21    C     0.72260   0.01900   0.41770   0.01267  Uiso   1.00
C22    C     0.49440   0.31060   0.75770   0.01267  Uiso   1.00
C23    C     0.50710   0.69390   0.75320   0.01267  Uiso   1.00
C24    C     0.87670   0.03470   0.96540   0.01267  Uiso   1.00
C25    C     0.98510   0.13050   0.04160   0.01267  Uiso   1.00
C26    C     0.89710   0.90710   0.92580   0.01267  Uiso   1.00
C27    C     0.74020   0.05900   0.92780   0.01267  Uiso   1.00
C28    C     0.98100   0.27740   0.08230   0.01267  Uiso   1.00
C29    C     0.45400   0.54600   0.25000   0.01267  Uiso   1.00
C30    C     0.28890   0.71110   0.25000   0.01267  Uiso   1.00
C31    C     0.54580   0.45420   0.25000   0.01267  Uiso   1.00
C32    C     0.71430   0.28570   0.25000   0.01267  Uiso   1.00
C33    C     0.54600   0.45400   0.75000   0.01267  Uiso   1.00
C34    C     0.71110   0.28890   0.75000   0.01267  Uiso   1.00
C35    C     0.45420   0.54580   0.75000   0.01267  Uiso   1.00
C36    C     0.28570   0.71430   0.75000   0.01267  Uiso   1.00
N1     N     0.22630   0.57530   0.25540   0.01267  Uiso   1.00
N2     N     0.77800   0.42520   0.25280   0.01267  Uiso   1.00
N3     N     0.42470   0.77370   0.24460   0.01267  Uiso   1.00
N4     N     0.57480   0.22200   0.24720   0.01267  Uiso   1.00
N5     N     0.77370   0.42470   0.74460   0.01267  Uiso   1.00
N6     N     0.22200   0.57480   0.74720   0.01267  Uiso   1.00
N7     N     0.57530   0.22630   0.75540   0.01267  Uiso   1.00
N8     N     0.42520   0.77800   0.75280   0.01267  Uiso   1.00
O1     O     0.01390   0.68850   0.33940   0.01267  Uiso   1.00
O2     O     0.11860   0.68360   0.48640   0.01267  Uiso   1.00
O3     O     0.30510   0.98430   0.67190   0.01267  Uiso   1.00
O4     O     0.36340   0.98060   0.52960   0.01267  Uiso   1.00
O5     O     0.31150   0.98610   0.16060   0.01267  Uiso   1.00
O6     O     0.31640   0.88140   0.01360   0.01267  Uiso   1.00
O7     O     0.01570   0.69490   0.82810   0.01267  Uiso   1.00
O8     O     0.01940   0.63660   0.97040   0.01267  Uiso   1.00
O9     O     0.98610   0.31150   0.66060   0.01267  Uiso   1.00
O10    O     0.88140   0.31640   0.51360   0.01267  Uiso   1.00
O11    O     0.69490   0.01570   0.32810   0.01267  Uiso   1.00
O12    O     0.63660   0.01940   0.47040   0.01267  Uiso   1.00
O13    O     0.68850   0.01390   0.83940   0.01267  Uiso   1.00
O14    O     0.68360   0.11860   0.98640   0.01267  Uiso   1.00
O15    O     0.98430   0.30510   0.17190   0.01267  Uiso   1.00
O16    O     0.98060   0.36340   0.02960   0.01267  Uiso   1.00
