data_image0
_cell_length_a       11.75
_cell_length_b       9.832
_cell_length_c       14.63
_cell_angle_alpha    90
_cell_angle_beta     97.73
_cell_angle_gamma    90

_symmetry_space_group_name_H-M    "P 1"
_symmetry_int_tables_number       1

loop_
  _symmetry_equiv_pos_as_xyz
  'x, y, z'

loop_
  _atom_site_label
  _atom_site_occupancy
  _atom_site_fract_x
  _atom_site_fract_y
  _atom_site_fract_z
  _atom_site_thermal_displace_type
  _atom_site_B_iso_or_equiv
  _atom_site_type_symbol
  C1       1.0000 0.27500  0.14060  0.21870  Biso   1.000  C
  C2       1.0000 0.15000  0.12290  0.22170  Biso   1.000  C
  C3       1.0000 0.09290  0.20860  0.27600  Biso   1.000  C
  H1       1.0000 0.13340  0.27450  0.31260  Biso   1.000  H
  C4       1.0000 0.97580  0.19540  0.27530  Biso   1.000  C
  H2       1.0000 0.93780  0.25230  0.31200  Biso   1.000  H
  C5       1.0000 0.91430  0.09850  0.22050  Biso   1.000  C
  C6       1.0000 0.97200  0.00740  0.16860  Biso   1.000  C
  C7       1.0000 0.08890  0.01960  0.16930  Biso   1.000  C
  H3       1.0000 0.12750  0.95960  0.13510  Biso   1.000  H
  C8       1.0000 0.91470  0.89250  0.10890  Biso   1.000  C
  C9       1.0000 0.78570  0.09270  0.21820  Biso   1.000  C
  O1       1.0000 0.48850  0.96730  0.91120  Biso   1.000  O
  O2       1.0000 0.33970  0.20080  0.28110  Biso   1.000  O
  O3       1.0000 0.31930  0.08870  0.15130  Biso   1.000  O
  O4       1.0000 0.93180  0.76930  0.13410  Biso   1.000  O
  O5       1.0000 0.85910  0.92570  0.03100  Biso   1.000  O
  O6       1.0000 0.73020  0.00490  0.16840  Biso   1.000  O
  O7       1.0000 0.73630  0.17450  0.26370  Biso   1.000  O
  U1       1.0000 0.34567  0.03086  0.99113  Biso   1.000  U
  U2       1.0000 0.47242  0.85483  0.77893  Biso   1.000  U
  C10      1.0000 0.22500  0.64060  0.28130  Biso   1.000  C
  C11      1.0000 0.35000  0.62290  0.27830  Biso   1.000  C
  C12      1.0000 0.40710  0.70860  0.22400  Biso   1.000  C
  H4       1.0000 0.36660  0.77450  0.18740  Biso   1.000  H
  C13      1.0000 0.52420  0.69540  0.22470  Biso   1.000  C
  H5       1.0000 0.56220  0.75230  0.18800  Biso   1.000  H
  C14      1.0000 0.58570  0.59850  0.27950  Biso   1.000  C
  C15      1.0000 0.52800  0.50740  0.33140  Biso   1.000  C
  C16      1.0000 0.41110  0.51960  0.33070  Biso   1.000  C
  H6       1.0000 0.37250  0.45960  0.36490  Biso   1.000  H
  C17      1.0000 0.58530  0.39250  0.39110  Biso   1.000  C
  C18      1.0000 0.71430  0.59270  0.28180  Biso   1.000  C
  O8       1.0000 0.01150  0.46730  0.58880  Biso   1.000  O
  O9       1.0000 0.16030  0.70080  0.21890  Biso   1.000  O
  O10      1.0000 0.18070  0.58870  0.34870  Biso   1.000  O
  O11      1.0000 0.56820  0.26930  0.36590  Biso   1.000  O
  O12      1.0000 0.64090  0.42570  0.46900  Biso   1.000  O
  O13      1.0000 0.76980  0.50490  0.33160  Biso   1.000  O
  O14      1.0000 0.76370  0.67450  0.23630  Biso   1.000  O
  U3       1.0000 0.15433  0.53086  0.50887  Biso   1.000  U
  U4       1.0000 0.02758  0.35483  0.72107  Biso   1.000  U
  C19      1.0000 0.72500  0.85940  0.78130  Biso   1.000  C
  C20      1.0000 0.85000  0.87710  0.77830  Biso   1.000  C
  C21      1.0000 0.90710  0.79140  0.72400  Biso   1.000  C
  H7       1.0000 0.86660  0.72550  0.68740  Biso   1.000  H
  C22      1.0000 0.02420  0.80460  0.72470  Biso   1.000  C
  H8       1.0000 0.06220  0.74770  0.68800  Biso   1.000  H
  C23      1.0000 0.08570  0.90150  0.77950  Biso   1.000  C
  C24      1.0000 0.02800  0.99260  0.83140  Biso   1.000  C
  C25      1.0000 0.91110  0.98040  0.83070  Biso   1.000  C
  H9       1.0000 0.87250  0.04040  0.86490  Biso   1.000  H
  C26      1.0000 0.08530  0.10750  0.89110  Biso   1.000  C
  C27      1.0000 0.21430  0.90730  0.78180  Biso   1.000  C
  O15      1.0000 0.51150  0.03270  0.08880  Biso   1.000  O
  O16      1.0000 0.66030  0.79920  0.71890  Biso   1.000  O
  O17      1.0000 0.68070  0.91130  0.84870  Biso   1.000  O
  O18      1.0000 0.06820  0.23070  0.86590  Biso   1.000  O
  O19      1.0000 0.14090  0.07430  0.96900  Biso   1.000  O
  O20      1.0000 0.26980  0.99510  0.83160  Biso   1.000  O
  O21      1.0000 0.26370  0.82550  0.73630  Biso   1.000  O
  U5       1.0000 0.65433  0.96914  0.00887  Biso   1.000  U
  U6       1.0000 0.52758  0.14517  0.22107  Biso   1.000  U
  C28      1.0000 0.77500  0.35940  0.71870  Biso   1.000  C
  C29      1.0000 0.65000  0.37710  0.72170  Biso   1.000  C
  C30      1.0000 0.59290  0.29140  0.77600  Biso   1.000  C
  H10      1.0000 0.63340  0.22550  0.81260  Biso   1.000  H
  C31      1.0000 0.47580  0.30460  0.77530  Biso   1.000  C
  H11      1.0000 0.43780  0.24770  0.81200  Biso   1.000  H
  C32      1.0000 0.41430  0.40150  0.72050  Biso   1.000  C
  C33      1.0000 0.47200  0.49260  0.66860  Biso   1.000  C
  C34      1.0000 0.58890  0.48040  0.66930  Biso   1.000  C
  H12      1.0000 0.62750  0.54040  0.63510  Biso   1.000  H
  C35      1.0000 0.41470  0.60750  0.60890  Biso   1.000  C
  C36      1.0000 0.28570  0.40730  0.71820  Biso   1.000  C
  O22      1.0000 0.98850  0.53270  0.41120  Biso   1.000  O
  O23      1.0000 0.83970  0.29920  0.78110  Biso   1.000  O
  O24      1.0000 0.81930  0.41130  0.65130  Biso   1.000  O
  O25      1.0000 0.43180  0.73070  0.63410  Biso   1.000  O
  O26      1.0000 0.35910  0.57430  0.53100  Biso   1.000  O
  O27      1.0000 0.23020  0.49510  0.66840  Biso   1.000  O
  O28      1.0000 0.23630  0.32550  0.76370  Biso   1.000  O
  U7       1.0000 0.84567  0.46914  0.49113  Biso   1.000  U
  U8       1.0000 0.97242  0.64517  0.27893  Biso   1.000  U
