data_image0
_cell_length_a       10.7068
_cell_length_b       17.7294
_cell_length_c       13.2435
_cell_angle_alpha    90
_cell_angle_beta     104.446
_cell_angle_gamma    90

_symmetry_space_group_name_H-M    "P 1"
_symmetry_int_tables_number       1

loop_
  _symmetry_equiv_pos_as_xyz
  'x, y, z'

loop_
  _atom_site_label
  _atom_site_occupancy
  _atom_site_fract_x
  _atom_site_fract_y
  _atom_site_fract_z
  _atom_site_thermal_displace_type
  _atom_site_B_iso_or_equiv
  _atom_site_type_symbol
  C1       1.0000 0.74330  0.05130  0.39710  Biso   1.000  C
  C2       1.0000 0.87650  0.02610  0.45130  Biso   1.000  C
  C3       1.0000 0.98020  0.04230  0.41010  Biso   1.000  C
  H1       1.0000 0.96760  0.07120  0.34990  Biso   1.000  H
  C4       1.0000 0.89760  0.98410  0.54230  Biso   1.000  C
  H2       1.0000 0.82920  0.97360  0.57170  Biso   1.000  H
  C5       1.0000 0.60290  0.15170  0.09970  Biso   1.000  C
  C6       1.0000 0.67540  0.20380  0.04620  Biso   1.000  C
  C7       1.0000 0.70180  0.27690  0.08110  Biso   1.000  C
  H3       1.0000 0.66950  0.29480  0.13550  Biso   1.000  H
  C8       1.0000 0.72370  0.17630  0.96440  Biso   1.000  C
  H4       1.0000 0.70610  0.12710  0.94080  Biso   1.000  H
  O1       1.0000 0.72850  0.09410  0.32010  Biso   1.000  O
  O2       1.0000 0.65040  0.02810  0.42890  Biso   1.000  O
  O3       1.0000 0.54370  0.17990  0.16390  Biso   1.000  O
  O4       1.0000 0.60190  0.08230  0.08220  Biso   1.000  O
  C9       1.0000 0.24330  0.55130  0.39710  Biso   1.000  C
  C10      1.0000 0.37650  0.52610  0.45130  Biso   1.000  C
  C11      1.0000 0.48020  0.54230  0.41010  Biso   1.000  C
  H5       1.0000 0.46760  0.57120  0.34990  Biso   1.000  H
  C12      1.0000 0.39760  0.48410  0.54230  Biso   1.000  C
  H6       1.0000 0.32920  0.47360  0.57170  Biso   1.000  H
  C13      1.0000 0.10290  0.65170  0.09970  Biso   1.000  C
  C14      1.0000 0.17540  0.70380  0.04620  Biso   1.000  C
  C15      1.0000 0.20180  0.77690  0.08110  Biso   1.000  C
  H7       1.0000 0.16950  0.79480  0.13550  Biso   1.000  H
  C16      1.0000 0.22370  0.67630  0.96440  Biso   1.000  C
  H8       1.0000 0.20610  0.62710  0.94080  Biso   1.000  H
  O5       1.0000 0.22850  0.59410  0.32010  Biso   1.000  O
  O6       1.0000 0.15040  0.52810  0.42890  Biso   1.000  O
  O7       1.0000 0.04370  0.67990  0.16390  Biso   1.000  O
  O8       1.0000 0.10190  0.58230  0.08220  Biso   1.000  O
  C17      1.0000 0.25670  0.05130  0.10290  Biso   1.000  C
  C18      1.0000 0.12350  0.02610  0.04870  Biso   1.000  C
  C19      1.0000 0.01980  0.04230  0.08990  Biso   1.000  C
  H9       1.0000 0.03240  0.07120  0.15010  Biso   1.000  H
  C20      1.0000 0.10240  0.98410  0.95770  Biso   1.000  C
  H10      1.0000 0.17080  0.97360  0.92830  Biso   1.000  H
  C21      1.0000 0.39710  0.15170  0.40030  Biso   1.000  C
  C22      1.0000 0.32460  0.20380  0.45380  Biso   1.000  C
  C23      1.0000 0.29820  0.27690  0.41890  Biso   1.000  C
  H11      1.0000 0.33050  0.29480  0.36450  Biso   1.000  H
  C24      1.0000 0.27630  0.17630  0.53560  Biso   1.000  C
  H12      1.0000 0.29390  0.12710  0.55920  Biso   1.000  H
  O9       1.0000 0.27150  0.09410  0.17990  Biso   1.000  O
  O10      1.0000 0.34960  0.02810  0.07110  Biso   1.000  O
  O11      1.0000 0.45630  0.17990  0.33610  Biso   1.000  O
  O12      1.0000 0.39810  0.08230  0.41780  Biso   1.000  O
  C25      1.0000 0.75670  0.55130  0.10290  Biso   1.000  C
  C26      1.0000 0.62350  0.52610  0.04870  Biso   1.000  C
  C27      1.0000 0.51980  0.54230  0.08990  Biso   1.000  C
  H13      1.0000 0.53240  0.57120  0.15010  Biso   1.000  H
  C28      1.0000 0.60240  0.48410  0.95770  Biso   1.000  C
  H14      1.0000 0.67080  0.47360  0.92830  Biso   1.000  H
  C29      1.0000 0.89710  0.65170  0.40030  Biso   1.000  C
  C30      1.0000 0.82460  0.70380  0.45380  Biso   1.000  C
  C31      1.0000 0.79820  0.77690  0.41890  Biso   1.000  C
  H15      1.0000 0.83050  0.79480  0.36450  Biso   1.000  H
  C32      1.0000 0.77630  0.67630  0.53560  Biso   1.000  C
  H16      1.0000 0.79390  0.62710  0.55920  Biso   1.000  H
  O13      1.0000 0.77150  0.59410  0.17990  Biso   1.000  O
  O14      1.0000 0.84960  0.52810  0.07110  Biso   1.000  O
  O15      1.0000 0.95630  0.67990  0.33610  Biso   1.000  O
  O16      1.0000 0.89810  0.58230  0.41780  Biso   1.000  O
  C33      1.0000 0.25670  0.94870  0.60290  Biso   1.000  C
  C34      1.0000 0.12350  0.97390  0.54870  Biso   1.000  C
  C35      1.0000 0.01980  0.95770  0.58990  Biso   1.000  C
  H17      1.0000 0.03240  0.92880  0.65010  Biso   1.000  H
  C36      1.0000 0.10240  0.01590  0.45770  Biso   1.000  C
  H18      1.0000 0.17080  0.02640  0.42830  Biso   1.000  H
  C37      1.0000 0.39710  0.84830  0.90030  Biso   1.000  C
  C38      1.0000 0.32460  0.79620  0.95380  Biso   1.000  C
  C39      1.0000 0.29820  0.72310  0.91890  Biso   1.000  C
  H19      1.0000 0.33050  0.70520  0.86450  Biso   1.000  H
  C40      1.0000 0.27630  0.82370  0.03560  Biso   1.000  C
  H20      1.0000 0.29390  0.87290  0.05920  Biso   1.000  H
  O17      1.0000 0.27150  0.90590  0.67990  Biso   1.000  O
  O18      1.0000 0.34960  0.97190  0.57110  Biso   1.000  O
  O19      1.0000 0.45630  0.82010  0.83610  Biso   1.000  O
  O20      1.0000 0.39810  0.91770  0.91780  Biso   1.000  O
  C41      1.0000 0.75670  0.44870  0.60290  Biso   1.000  C
  C42      1.0000 0.62350  0.47390  0.54870  Biso   1.000  C
  C43      1.0000 0.51980  0.45770  0.58990  Biso   1.000  C
  H21      1.0000 0.53240  0.42880  0.65010  Biso   1.000  H
  C44      1.0000 0.60240  0.51590  0.45770  Biso   1.000  C
  H22      1.0000 0.67080  0.52640  0.42830  Biso   1.000  H
  C45      1.0000 0.89710  0.34830  0.90030  Biso   1.000  C
  C46      1.0000 0.82460  0.29620  0.95380  Biso   1.000  C
  C47      1.0000 0.79820  0.22310  0.91890  Biso   1.000  C
  H23      1.0000 0.83050  0.20520  0.86450  Biso   1.000  H
  C48      1.0000 0.77630  0.32370  0.03560  Biso   1.000  C
  H24      1.0000 0.79390  0.37290  0.05920  Biso   1.000  H
  O21      1.0000 0.77150  0.40590  0.67990  Biso   1.000  O
  O22      1.0000 0.84960  0.47190  0.57110  Biso   1.000  O
  O23      1.0000 0.95630  0.32010  0.83610  Biso   1.000  O
  O24      1.0000 0.89810  0.41770  0.91780  Biso   1.000  O
  C49      1.0000 0.74330  0.94870  0.89710  Biso   1.000  C
  C50      1.0000 0.87650  0.97390  0.95130  Biso   1.000  C
  C51      1.0000 0.98020  0.95770  0.91010  Biso   1.000  C
  H25      1.0000 0.96760  0.92880  0.84990  Biso   1.000  H
  C52      1.0000 0.89760  0.01590  0.04230  Biso   1.000  C
  H26      1.0000 0.82920  0.02640  0.07170  Biso   1.000  H
  C53      1.0000 0.60290  0.84830  0.59970  Biso   1.000  C
  C54      1.0000 0.67540  0.79620  0.54620  Biso   1.000  C
  C55      1.0000 0.70180  0.72310  0.58110  Biso   1.000  C
  H27      1.0000 0.66950  0.70520  0.63550  Biso   1.000  H
  C56      1.0000 0.72370  0.82370  0.46440  Biso   1.000  C
  H28      1.0000 0.70610  0.87290  0.44080  Biso   1.000  H
  O25      1.0000 0.72850  0.90590  0.82010  Biso   1.000  O
  O26      1.0000 0.65040  0.97190  0.92890  Biso   1.000  O
  O27      1.0000 0.54370  0.82010  0.66390  Biso   1.000  O
  O28      1.0000 0.60190  0.91770  0.58220  Biso   1.000  O
  C57      1.0000 0.24330  0.44870  0.89710  Biso   1.000  C
  C58      1.0000 0.37650  0.47390  0.95130  Biso   1.000  C
  C59      1.0000 0.48020  0.45770  0.91010  Biso   1.000  C
  H29      1.0000 0.46760  0.42880  0.84990  Biso   1.000  H
  C60      1.0000 0.39760  0.51590  0.04230  Biso   1.000  C
  H30      1.0000 0.32920  0.52640  0.07170  Biso   1.000  H
  C61      1.0000 0.10290  0.34830  0.59970  Biso   1.000  C
  C62      1.0000 0.17540  0.29620  0.54620  Biso   1.000  C
  C63      1.0000 0.20180  0.22310  0.58110  Biso   1.000  C
  H31      1.0000 0.16950  0.20520  0.63550  Biso   1.000  H
  C64      1.0000 0.22370  0.32370  0.46440  Biso   1.000  C
  H32      1.0000 0.20610  0.37290  0.44080  Biso   1.000  H
  O29      1.0000 0.22850  0.40590  0.82010  Biso   1.000  O
  O30      1.0000 0.15040  0.47190  0.92890  Biso   1.000  O
  O31      1.0000 0.04370  0.32010  0.66390  Biso   1.000  O
  O32      1.0000 0.10190  0.41770  0.58220  Biso   1.000  O
  Bi1      1.0000 0.50000  0.07556  0.25000  Biso   1.000  Bi
  Bi2      1.0000 0.00000  0.57556  0.25000  Biso   1.000  Bi
  Bi3      1.0000 0.50000  0.92444  0.75000  Biso   1.000  Bi
  Bi4      1.0000 0.00000  0.42444  0.75000  Biso   1.000  Bi
