data_XAFFER_clean
_audit_creation_date              2014-07-02
_audit_creation_method            'Materials Studio'
_symmetry_space_group_name_H-M    'P1'
_symmetry_Int_Tables_number       1
_symmetry_cell_setting            triclinic
loop_
_symmetry_equiv_pos_as_xyz
  x,y,z
_cell_length_a                    17.9530
_cell_length_b                    19.8193
_cell_length_c                    23.0230
_cell_angle_alpha                 90.0000
_cell_angle_beta                  90.0000
_cell_angle_gamma                 116.9310
loop_
_atom_site_label
_atom_site_type_symbol
_atom_site_fract_x
_atom_site_fract_y
_atom_site_fract_z
_atom_site_U_iso_or_equiv
_atom_site_adp_type
_atom_site_occupancy
Zn1    Zn    0.08535   0.56344   0.00000   0.01267  Uiso   1.00
Zn2    Zn    0.91465   0.43656   0.00000   0.01267  Uiso   1.00
Zn3    Zn    0.47809   0.56344   0.50000   0.01267  Uiso   1.00
Zn4    Zn    0.52191   0.43656   0.50000   0.01267  Uiso   1.00
H1     H     0.19180   0.46920   0.87230   0.01267  Uiso   1.00
H2     H     0.99720   0.24640   0.79450   0.01267  Uiso   1.00
H3     H     0.95780   0.30540   0.86600   0.01267  Uiso   1.00
H4     H     0.23210   0.40820   0.80510   0.01267  Uiso   1.00
H5     H     0.11660   0.18620   0.83430   0.01267  Uiso   1.00
H6     H     0.05130   0.05720   0.83430   0.01267  Uiso   1.00
H7     H     0.80820   0.53080   0.87230   0.01267  Uiso   1.00
H8     H     0.00280   0.75360   0.79450   0.01267  Uiso   1.00
H9     H     0.04220   0.69460   0.86600   0.01267  Uiso   1.00
H10    H     0.76790   0.59180   0.80510   0.01267  Uiso   1.00
H11    H     0.88340   0.81380   0.83430   0.01267  Uiso   1.00
H12    H     0.94870   0.94280   0.83430   0.01267  Uiso   1.00
H13    H     0.27740   0.46920   0.62770   0.01267  Uiso   1.00
H14    H     0.24920   0.24640   0.70550   0.01267  Uiso   1.00
H15    H     0.34760   0.30540   0.63400   0.01267  Uiso   1.00
H16    H     0.17610   0.40820   0.69490   0.01267  Uiso   1.00
H17    H     0.06960   0.18620   0.66570   0.01267  Uiso   1.00
H18    H     0.00590   0.05720   0.66570   0.01267  Uiso   1.00
H19    H     0.72260   0.53080   0.62770   0.01267  Uiso   1.00
H20    H     0.75080   0.75360   0.70550   0.01267  Uiso   1.00
H21    H     0.65240   0.69460   0.63400   0.01267  Uiso   1.00
H22    H     0.82390   0.59180   0.69490   0.01267  Uiso   1.00
H23    H     0.93040   0.81380   0.66570   0.01267  Uiso   1.00
H24    H     0.99410   0.94280   0.66570   0.01267  Uiso   1.00
H25    H     0.80820   0.53080   0.12770   0.01267  Uiso   1.00
H26    H     0.00280   0.75360   0.20550   0.01267  Uiso   1.00
H27    H     0.04220   0.69460   0.13400   0.01267  Uiso   1.00
H28    H     0.76790   0.59180   0.19490   0.01267  Uiso   1.00
H29    H     0.88340   0.81380   0.16570   0.01267  Uiso   1.00
H30    H     0.94870   0.94280   0.16570   0.01267  Uiso   1.00
H31    H     0.19180   0.46920   0.12770   0.01267  Uiso   1.00
H32    H     0.99720   0.24640   0.20550   0.01267  Uiso   1.00
H33    H     0.95780   0.30540   0.13400   0.01267  Uiso   1.00
H34    H     0.23210   0.40820   0.19490   0.01267  Uiso   1.00
H35    H     0.11660   0.18620   0.16570   0.01267  Uiso   1.00
H36    H     0.05130   0.05720   0.16570   0.01267  Uiso   1.00
H37    H     0.72260   0.53080   0.37230   0.01267  Uiso   1.00
H38    H     0.75080   0.75360   0.29450   0.01267  Uiso   1.00
H39    H     0.65240   0.69460   0.36600   0.01267  Uiso   1.00
H40    H     0.82390   0.59180   0.30510   0.01267  Uiso   1.00
H41    H     0.93040   0.81380   0.33430   0.01267  Uiso   1.00
H42    H     0.99410   0.94280   0.33430   0.01267  Uiso   1.00
H43    H     0.27740   0.46920   0.37230   0.01267  Uiso   1.00
H44    H     0.24920   0.24640   0.29450   0.01267  Uiso   1.00
H45    H     0.34760   0.30540   0.36600   0.01267  Uiso   1.00
H46    H     0.17610   0.40820   0.30510   0.01267  Uiso   1.00
H47    H     0.06960   0.18620   0.33430   0.01267  Uiso   1.00
H48    H     0.00590   0.05720   0.33430   0.01267  Uiso   1.00
C1     C     0.04628   0.43466   0.92152   0.01267  Uiso   1.00
C2     C     0.07074   0.39522   0.87697   0.01267  Uiso   1.00
C3     C     0.15204   0.42362   0.85721   0.01267  Uiso   1.00
C4     C     0.11731   0.31960   0.79193   0.01267  Uiso   1.00
C5     C     0.03725   0.29130   0.81066   0.01267  Uiso   1.00
C6     C     0.01297   0.32716   0.85333   0.01267  Uiso   1.00
C7     C     0.17641   0.38762   0.81652   0.01267  Uiso   1.00
C8     C     0.09396   0.16026   0.79995   0.01267  Uiso   1.00
C9     C     0.05500   0.08296   0.79986   0.01267  Uiso   1.00
C10    C     0.95372   0.56534   0.92152   0.01267  Uiso   1.00
C11    C     0.92926   0.60478   0.87697   0.01267  Uiso   1.00
C12    C     0.84796   0.57638   0.85721   0.01267  Uiso   1.00
C13    C     0.88269   0.68040   0.79193   0.01267  Uiso   1.00
C14    C     0.96275   0.70870   0.81066   0.01267  Uiso   1.00
C15    C     0.98703   0.67284   0.85333   0.01267  Uiso   1.00
C16    C     0.82359   0.61238   0.81652   0.01267  Uiso   1.00
C17    C     0.90604   0.83974   0.79995   0.01267  Uiso   1.00
C18    C     0.94500   0.91704   0.79986   0.01267  Uiso   1.00
C19    C     0.38838   0.43466   0.57848   0.01267  Uiso   1.00
C20    C     0.32448   0.39522   0.62303   0.01267  Uiso   1.00
C21    C     0.27158   0.42362   0.64279   0.01267  Uiso   1.00
C22    C     0.20229   0.31960   0.70807   0.01267  Uiso   1.00
C23    C     0.25405   0.29130   0.68934   0.01267  Uiso   1.00
C24    C     0.31419   0.32716   0.64667   0.01267  Uiso   1.00
C25    C     0.21121   0.38762   0.68348   0.01267  Uiso   1.00
C26    C     0.06630   0.16026   0.70005   0.01267  Uiso   1.00
C27    C     0.02796   0.08296   0.70014   0.01267  Uiso   1.00
C28    C     0.61162   0.56534   0.57848   0.01267  Uiso   1.00
C29    C     0.67552   0.60478   0.62303   0.01267  Uiso   1.00
C30    C     0.72842   0.57638   0.64279   0.01267  Uiso   1.00
C31    C     0.79771   0.68040   0.70807   0.01267  Uiso   1.00
C32    C     0.74595   0.70870   0.68934   0.01267  Uiso   1.00
C33    C     0.68581   0.67284   0.64667   0.01267  Uiso   1.00
C34    C     0.78879   0.61238   0.68348   0.01267  Uiso   1.00
C35    C     0.93370   0.83974   0.70005   0.01267  Uiso   1.00
C36    C     0.97204   0.91704   0.70014   0.01267  Uiso   1.00
C37    C     0.95372   0.56534   0.07848   0.01267  Uiso   1.00
C38    C     0.92926   0.60478   0.12303   0.01267  Uiso   1.00
C39    C     0.84796   0.57638   0.14279   0.01267  Uiso   1.00
C40    C     0.88269   0.68040   0.20807   0.01267  Uiso   1.00
C41    C     0.96275   0.70870   0.18934   0.01267  Uiso   1.00
C42    C     0.98703   0.67284   0.14667   0.01267  Uiso   1.00
C43    C     0.82359   0.61238   0.18348   0.01267  Uiso   1.00
C44    C     0.90604   0.83974   0.20005   0.01267  Uiso   1.00
C45    C     0.94500   0.91704   0.20014   0.01267  Uiso   1.00
C46    C     0.04628   0.43466   0.07848   0.01267  Uiso   1.00
C47    C     0.07074   0.39522   0.12303   0.01267  Uiso   1.00
C48    C     0.15204   0.42362   0.14279   0.01267  Uiso   1.00
C49    C     0.11731   0.31960   0.20807   0.01267  Uiso   1.00
C50    C     0.03725   0.29130   0.18934   0.01267  Uiso   1.00
C51    C     0.01297   0.32716   0.14667   0.01267  Uiso   1.00
C52    C     0.17641   0.38762   0.18348   0.01267  Uiso   1.00
C53    C     0.09396   0.16026   0.20005   0.01267  Uiso   1.00
C54    C     0.05500   0.08296   0.20014   0.01267  Uiso   1.00
C55    C     0.61162   0.56534   0.42152   0.01267  Uiso   1.00
C56    C     0.67552   0.60478   0.37697   0.01267  Uiso   1.00
C57    C     0.72842   0.57638   0.35721   0.01267  Uiso   1.00
C58    C     0.79771   0.68040   0.29193   0.01267  Uiso   1.00
C59    C     0.74595   0.70870   0.31066   0.01267  Uiso   1.00
C60    C     0.68581   0.67284   0.35333   0.01267  Uiso   1.00
C61    C     0.78879   0.61238   0.31652   0.01267  Uiso   1.00
C62    C     0.93370   0.83974   0.29995   0.01267  Uiso   1.00
C63    C     0.97204   0.91704   0.29986   0.01267  Uiso   1.00
C64    C     0.38838   0.43466   0.42152   0.01267  Uiso   1.00
C65    C     0.32448   0.39522   0.37697   0.01267  Uiso   1.00
C66    C     0.27158   0.42362   0.35721   0.01267  Uiso   1.00
C67    C     0.20229   0.31960   0.29193   0.01267  Uiso   1.00
C68    C     0.25405   0.29130   0.31066   0.01267  Uiso   1.00
C69    C     0.31419   0.32716   0.35333   0.01267  Uiso   1.00
C70    C     0.21121   0.38762   0.31652   0.01267  Uiso   1.00
C71    C     0.06630   0.16026   0.29995   0.01267  Uiso   1.00
C72    C     0.02796   0.08296   0.29986   0.01267  Uiso   1.00
C73    C     0.09989   0.19978   0.75000   0.01267  Uiso   1.00
C74    C     0.02118   0.04236   0.75000   0.01267  Uiso   1.00
C75    C     0.90011   0.80022   0.75000   0.01267  Uiso   1.00
C76    C     0.97882   0.95764   0.75000   0.01267  Uiso   1.00
C77    C     0.90011   0.80022   0.25000   0.01267  Uiso   1.00
C78    C     0.97882   0.95764   0.25000   0.01267  Uiso   1.00
C79    C     0.09989   0.19978   0.25000   0.01267  Uiso   1.00
C80    C     0.02118   0.04236   0.25000   0.01267  Uiso   1.00
N1     N     0.14054   0.28108   0.75000   0.01267  Uiso   1.00
N2     N     0.85946   0.71892   0.75000   0.01267  Uiso   1.00
N3     N     0.85946   0.71892   0.25000   0.01267  Uiso   1.00
N4     N     0.14054   0.28108   0.25000   0.01267  Uiso   1.00
O1     O     0.10140   0.49794   0.93857   0.01267  Uiso   1.00
O2     O     0.97131   0.40224   0.93885   0.01267  Uiso   1.00
O3     O     0.89860   0.50206   0.93857   0.01267  Uiso   1.00
O4     O     0.02869   0.59776   0.93885   0.01267  Uiso   1.00
O5     O     0.39654   0.49794   0.56143   0.01267  Uiso   1.00
O6     O     0.43093   0.40224   0.56115   0.01267  Uiso   1.00
O7     O     0.60346   0.50206   0.56143   0.01267  Uiso   1.00
O8     O     0.56907   0.59776   0.56115   0.01267  Uiso   1.00
O9     O     0.89860   0.50206   0.06143   0.01267  Uiso   1.00
O10    O     0.02869   0.59776   0.06115   0.01267  Uiso   1.00
O11    O     0.10140   0.49794   0.06143   0.01267  Uiso   1.00
O12    O     0.97131   0.40224   0.06115   0.01267  Uiso   1.00
O13    O     0.60346   0.50206   0.43857   0.01267  Uiso   1.00
O14    O     0.56907   0.59776   0.43885   0.01267  Uiso   1.00
O15    O     0.39654   0.49794   0.43857   0.01267  Uiso   1.00
O16    O     0.43093   0.40224   0.43885   0.01267  Uiso   1.00
