data_XAFFOB_clean
_audit_creation_date              2014-07-02
_audit_creation_method            'Materials Studio'
_symmetry_space_group_name_H-M    'P1'
_symmetry_Int_Tables_number       1
_symmetry_cell_setting            triclinic
loop_
_symmetry_equiv_pos_as_xyz
  x,y,z
_cell_length_a                    17.2170
_cell_length_b                    22.9382
_cell_length_c                    22.9382
_cell_angle_alpha                 60.9420
_cell_angle_beta                  67.9577
_cell_angle_gamma                 67.9576
loop_
_atom_site_label
_atom_site_type_symbol
_atom_site_fract_x
_atom_site_fract_y
_atom_site_fract_z
_atom_site_U_iso_or_equiv
_atom_site_adp_type
_atom_site_occupancy
Cu1    Cu    0.47607   0.97264   0.97264   0.01267  Uiso   1.00
Cu2    Cu    0.92135   0.52736   0.52736   0.01267  Uiso   1.00
Cu3    Cu    0.07865   0.47264   0.47264   0.01267  Uiso   1.00
Cu4    Cu    0.52393   0.02736   0.02736   0.01267  Uiso   1.00
H1     H     0.72810   0.85590   0.11090   0.01267  Uiso   1.00
H2     H     0.82790   0.75600   0.14960   0.01267  Uiso   1.00
H3     H     0.74410   0.66860   0.07740   0.01267  Uiso   1.00
H4     H     0.64840   0.77090   0.03310   0.01267  Uiso   1.00
H5     H     0.93650   0.67450   0.01130   0.01267  Uiso   1.00
H6     H     0.99840   0.61130   0.94610   0.01267  Uiso   1.00
H7     H     0.19490   0.64410   0.38910   0.01267  Uiso   1.00
H8     H     0.23350   0.74400   0.35040   0.01267  Uiso   1.00
H9     H     0.99010   0.83140   0.42260   0.01267  Uiso   1.00
H10    H     0.95240   0.72910   0.46690   0.01267  Uiso   1.00
H11    H     0.12230   0.82550   0.48870   0.01267  Uiso   1.00
H12    H     0.05580   0.88870   0.55390   0.01267  Uiso   1.00
H13    H     0.80510   0.61090   0.35590   0.01267  Uiso   1.00
H14    H     0.76650   0.64960   0.25600   0.01267  Uiso   1.00
H15    H     0.00990   0.57740   0.16860   0.01267  Uiso   1.00
H16    H     0.04760   0.53310   0.27090   0.01267  Uiso   1.00
H17    H     0.87770   0.51130   0.17450   0.01267  Uiso   1.00
H18    H     0.94420   0.44610   0.11130   0.01267  Uiso   1.00
H19    H     0.27190   0.88910   0.14410   0.01267  Uiso   1.00
H20    H     0.17210   0.85040   0.24400   0.01267  Uiso   1.00
H21    H     0.25590   0.92260   0.33140   0.01267  Uiso   1.00
H22    H     0.35160   0.96690   0.22910   0.01267  Uiso   1.00
H23    H     0.06350   0.98870   0.32550   0.01267  Uiso   1.00
H24    H     0.00160   0.05390   0.38870   0.01267  Uiso   1.00
H25    H     0.27190   0.14410   0.88910   0.01267  Uiso   1.00
H26    H     0.17210   0.24400   0.85040   0.01267  Uiso   1.00
H27    H     0.25590   0.33140   0.92260   0.01267  Uiso   1.00
H28    H     0.35160   0.22910   0.96690   0.01267  Uiso   1.00
H29    H     0.06350   0.32550   0.98870   0.01267  Uiso   1.00
H30    H     0.00160   0.38870   0.05390   0.01267  Uiso   1.00
H31    H     0.80510   0.35590   0.61090   0.01267  Uiso   1.00
H32    H     0.76650   0.25600   0.64960   0.01267  Uiso   1.00
H33    H     0.00990   0.16860   0.57740   0.01267  Uiso   1.00
H34    H     0.04760   0.27090   0.53310   0.01267  Uiso   1.00
H35    H     0.87770   0.17450   0.51130   0.01267  Uiso   1.00
H36    H     0.94420   0.11130   0.44610   0.01267  Uiso   1.00
H37    H     0.19490   0.38910   0.64410   0.01267  Uiso   1.00
H38    H     0.23350   0.35040   0.74400   0.01267  Uiso   1.00
H39    H     0.99010   0.42260   0.83140   0.01267  Uiso   1.00
H40    H     0.95240   0.46690   0.72910   0.01267  Uiso   1.00
H41    H     0.12230   0.48870   0.82550   0.01267  Uiso   1.00
H42    H     0.05580   0.55390   0.88870   0.01267  Uiso   1.00
H43    H     0.72810   0.11090   0.85590   0.01267  Uiso   1.00
H44    H     0.82790   0.14960   0.75600   0.01267  Uiso   1.00
H45    H     0.74410   0.07740   0.66860   0.01267  Uiso   1.00
H46    H     0.64840   0.03310   0.77090   0.01267  Uiso   1.00
H47    H     0.93650   0.01130   0.67450   0.01267  Uiso   1.00
H48    H     0.99840   0.94610   0.61130   0.01267  Uiso   1.00
C1     C     0.73158   0.81843   0.10357   0.01267  Uiso   1.00
C2     C     0.79094   0.75875   0.12695   0.01267  Uiso   1.00
C3     C     0.79683   0.70175   0.11719   0.01267  Uiso   1.00
C4     C     0.74169   0.70667   0.08315   0.01267  Uiso   1.00
C5     C     0.68322   0.76764   0.05780   0.01267  Uiso   1.00
C6     C     0.67573   0.82415   0.06879   0.01267  Uiso   1.00
C7     C     0.61117   0.88904   0.04274   0.01267  Uiso   1.00
C8     C     0.93694   0.62810   0.03202   0.01267  Uiso   1.00
C9     C     0.97501   0.58976   0.99282   0.01267  Uiso   1.00
C10    C     0.15358   0.68157   0.39643   0.01267  Uiso   1.00
C11    C     0.17664   0.74125   0.37305   0.01267  Uiso   1.00
C12    C     0.11577   0.79825   0.38281   0.01267  Uiso   1.00
C13    C     0.03151   0.79333   0.41685   0.01267  Uiso   1.00
C14    C     0.00866   0.73236   0.44220   0.01267  Uiso   1.00
C15    C     0.06867   0.67585   0.43121   0.01267  Uiso   1.00
C16    C     0.04295   0.61096   0.45726   0.01267  Uiso   1.00
C17    C     0.09706   0.87190   0.46798   0.01267  Uiso   1.00
C18    C     0.05759   0.91024   0.50718   0.01267  Uiso   1.00
C19    C     0.84642   0.60357   0.31843   0.01267  Uiso   1.00
C20    C     0.82336   0.62695   0.25875   0.01267  Uiso   1.00
C21    C     0.88423   0.61719   0.20175   0.01267  Uiso   1.00
C22    C     0.96849   0.58315   0.20667   0.01267  Uiso   1.00
C23    C     0.99134   0.55780   0.26764   0.01267  Uiso   1.00
C24    C     0.93133   0.56879   0.32415   0.01267  Uiso   1.00
C25    C     0.95705   0.54274   0.38904   0.01267  Uiso   1.00
C26    C     0.90294   0.53202   0.12810   0.01267  Uiso   1.00
C27    C     0.94241   0.49282   0.08976   0.01267  Uiso   1.00
C28    C     0.26842   0.89643   0.18157   0.01267  Uiso   1.00
C29    C     0.20906   0.87305   0.24125   0.01267  Uiso   1.00
C30    C     0.20317   0.88281   0.29825   0.01267  Uiso   1.00
C31    C     0.25831   0.91685   0.29333   0.01267  Uiso   1.00
C32    C     0.31678   0.94220   0.23236   0.01267  Uiso   1.00
C33    C     0.32427   0.93121   0.17585   0.01267  Uiso   1.00
C34    C     0.38883   0.95726   0.11096   0.01267  Uiso   1.00
C35    C     0.06306   0.96798   0.37190   0.01267  Uiso   1.00
C36    C     0.02499   0.00718   0.41024   0.01267  Uiso   1.00
C37    C     0.26842   0.18157   0.89643   0.01267  Uiso   1.00
C38    C     0.20906   0.24125   0.87305   0.01267  Uiso   1.00
C39    C     0.20317   0.29825   0.88281   0.01267  Uiso   1.00
C40    C     0.25831   0.29333   0.91685   0.01267  Uiso   1.00
C41    C     0.31678   0.23236   0.94220   0.01267  Uiso   1.00
C42    C     0.32427   0.17585   0.93121   0.01267  Uiso   1.00
C43    C     0.38883   0.11096   0.95726   0.01267  Uiso   1.00
C44    C     0.06306   0.37190   0.96798   0.01267  Uiso   1.00
C45    C     0.02499   0.41024   0.00718   0.01267  Uiso   1.00
C46    C     0.84642   0.31843   0.60357   0.01267  Uiso   1.00
C47    C     0.82336   0.25875   0.62695   0.01267  Uiso   1.00
C48    C     0.88423   0.20175   0.61719   0.01267  Uiso   1.00
C49    C     0.96849   0.20667   0.58315   0.01267  Uiso   1.00
C50    C     0.99134   0.26764   0.55780   0.01267  Uiso   1.00
C51    C     0.93133   0.32415   0.56879   0.01267  Uiso   1.00
C52    C     0.95705   0.38904   0.54274   0.01267  Uiso   1.00
C53    C     0.90294   0.12810   0.53202   0.01267  Uiso   1.00
C54    C     0.94241   0.08976   0.49282   0.01267  Uiso   1.00
C55    C     0.15358   0.39643   0.68157   0.01267  Uiso   1.00
C56    C     0.17664   0.37305   0.74125   0.01267  Uiso   1.00
C57    C     0.11577   0.38281   0.79825   0.01267  Uiso   1.00
C58    C     0.03151   0.41685   0.79333   0.01267  Uiso   1.00
C59    C     0.00866   0.44220   0.73236   0.01267  Uiso   1.00
C60    C     0.06867   0.43121   0.67585   0.01267  Uiso   1.00
C61    C     0.04295   0.45726   0.61096   0.01267  Uiso   1.00
C62    C     0.09706   0.46798   0.87190   0.01267  Uiso   1.00
C63    C     0.05759   0.50718   0.91024   0.01267  Uiso   1.00
C64    C     0.73158   0.10357   0.81843   0.01267  Uiso   1.00
C65    C     0.79094   0.12695   0.75875   0.01267  Uiso   1.00
C66    C     0.79683   0.11719   0.70175   0.01267  Uiso   1.00
C67    C     0.74169   0.08315   0.70667   0.01267  Uiso   1.00
C68    C     0.68322   0.05780   0.76764   0.01267  Uiso   1.00
C69    C     0.67573   0.06879   0.82415   0.01267  Uiso   1.00
C70    C     0.61117   0.04274   0.88904   0.01267  Uiso   1.00
C71    C     0.93694   0.03202   0.62810   0.01267  Uiso   1.00
C72    C     0.97501   0.99282   0.58976   0.01267  Uiso   1.00
C73    C     0.90013   0.59987   0.09987   0.01267  Uiso   1.00
C74    C     0.97913   0.52087   0.02087   0.01267  Uiso   1.00
C75    C     0.09987   0.90013   0.40013   0.01267  Uiso   1.00
C76    C     0.02087   0.97913   0.47913   0.01267  Uiso   1.00
C77    C     0.09987   0.40013   0.90013   0.01267  Uiso   1.00
C78    C     0.02087   0.47913   0.97913   0.01267  Uiso   1.00
C79    C     0.90013   0.09987   0.59987   0.01267  Uiso   1.00
C80    C     0.97913   0.02087   0.52087   0.01267  Uiso   1.00
N1     N     0.85998   0.64002   0.14002   0.01267  Uiso   1.00
N2     N     0.14002   0.85998   0.35998   0.01267  Uiso   1.00
N3     N     0.14002   0.35998   0.85998   0.01267  Uiso   1.00
N4     N     0.85998   0.14002   0.64002   0.01267  Uiso   1.00
O1     O     0.56575   0.89120   0.01032   0.01267  Uiso   1.00
O2     O     0.60645   0.93797   0.05653   0.01267  Uiso   1.00
O3     O     0.96727   0.60880   0.48968   0.01267  Uiso   1.00
O4     O     0.10095   0.56203   0.44347   0.01267  Uiso   1.00
O5     O     0.03273   0.51032   0.39120   0.01267  Uiso   1.00
O6     O     0.89905   0.55653   0.43797   0.01267  Uiso   1.00
O7     O     0.43425   0.98968   0.10880   0.01267  Uiso   1.00
O8     O     0.39355   0.94347   0.06203   0.01267  Uiso   1.00
O9     O     0.43425   0.10880   0.98968   0.01267  Uiso   1.00
O10    O     0.39355   0.06203   0.94347   0.01267  Uiso   1.00
O11    O     0.03273   0.39120   0.51032   0.01267  Uiso   1.00
O12    O     0.89905   0.43797   0.55653   0.01267  Uiso   1.00
O13    O     0.96727   0.48968   0.60880   0.01267  Uiso   1.00
O14    O     0.10095   0.44347   0.56203   0.01267  Uiso   1.00
O15    O     0.56575   0.01032   0.89120   0.01267  Uiso   1.00
O16    O     0.60645   0.05653   0.93797   0.01267  Uiso   1.00
