data_XAFFIV_clean
_audit_creation_date              2014-07-02
_audit_creation_method            'Materials Studio'
_symmetry_space_group_name_H-M    'P1'
_symmetry_Int_Tables_number       1
_symmetry_cell_setting            triclinic
loop_
_symmetry_equiv_pos_as_xyz
  x,y,z
_cell_length_a                    17.1410
_cell_length_b                    23.0994
_cell_length_c                    23.0994
_cell_angle_alpha                 60.9059
_cell_angle_beta                  68.2211
_cell_angle_gamma                 68.2210
loop_
_atom_site_label
_atom_site_type_symbol
_atom_site_fract_x
_atom_site_fract_y
_atom_site_fract_z
_atom_site_U_iso_or_equiv
_atom_site_adp_type
_atom_site_occupancy
Co1    Co    0.97252   0.97142   0.97142   0.01267  Uiso   1.00
Co2    Co    0.41536   0.52858   0.52858   0.01267  Uiso   1.00
Co3    Co    0.58464   0.47142   0.47142   0.01267  Uiso   1.00
Co4    Co    0.02748   0.02858   0.02858   0.01267  Uiso   1.00
H1     H     0.76890   0.89110   0.14670   0.01267  Uiso   1.00
H2     H     0.75760   0.92330   0.33170   0.01267  Uiso   1.00
H3     H     0.66580   0.85370   0.24650   0.01267  Uiso   1.00
H4     H     0.85450   0.96520   0.23000   0.01267  Uiso   1.00
H5     H     0.56660   0.98960   0.32540   0.01267  Uiso   1.00
H6     H     0.50770   0.05450   0.38950   0.01267  Uiso   1.00
H7     H     0.30670   0.60890   0.35330   0.01267  Uiso   1.00
H8     H     0.51260   0.57670   0.16830   0.01267  Uiso   1.00
H9     H     0.26600   0.64630   0.25350   0.01267  Uiso   1.00
H10    H     0.54970   0.53480   0.27000   0.01267  Uiso   1.00
H11    H     0.38160   0.51040   0.17460   0.01267  Uiso   1.00
H12    H     0.45170   0.44550   0.11050   0.01267  Uiso   1.00
H13    H     0.69330   0.64670   0.39110   0.01267  Uiso   1.00
H14    H     0.48740   0.83170   0.42330   0.01267  Uiso   1.00
H15    H     0.73400   0.74650   0.35370   0.01267  Uiso   1.00
H16    H     0.45030   0.73000   0.46520   0.01267  Uiso   1.00
H17    H     0.61840   0.82540   0.48960   0.01267  Uiso   1.00
H18    H     0.54830   0.88950   0.55450   0.01267  Uiso   1.00
H19    H     0.23110   0.85330   0.10890   0.01267  Uiso   1.00
H20    H     0.24240   0.66830   0.07670   0.01267  Uiso   1.00
H21    H     0.33420   0.75350   0.14630   0.01267  Uiso   1.00
H22    H     0.14550   0.77000   0.03480   0.01267  Uiso   1.00
H23    H     0.43340   0.67460   0.01040   0.01267  Uiso   1.00
H24    H     0.49230   0.61050   0.94550   0.01267  Uiso   1.00
H25    H     0.23110   0.10890   0.85330   0.01267  Uiso   1.00
H26    H     0.24240   0.07670   0.66830   0.01267  Uiso   1.00
H27    H     0.33420   0.14630   0.75350   0.01267  Uiso   1.00
H28    H     0.14550   0.03480   0.77000   0.01267  Uiso   1.00
H29    H     0.43340   0.01040   0.67460   0.01267  Uiso   1.00
H30    H     0.49230   0.94550   0.61050   0.01267  Uiso   1.00
H31    H     0.69330   0.39110   0.64670   0.01267  Uiso   1.00
H32    H     0.48740   0.42330   0.83170   0.01267  Uiso   1.00
H33    H     0.73400   0.35370   0.74650   0.01267  Uiso   1.00
H34    H     0.45030   0.46520   0.73000   0.01267  Uiso   1.00
H35    H     0.61840   0.48960   0.82540   0.01267  Uiso   1.00
H36    H     0.54830   0.55450   0.88950   0.01267  Uiso   1.00
H37    H     0.30670   0.35330   0.60890   0.01267  Uiso   1.00
H38    H     0.51260   0.16830   0.57670   0.01267  Uiso   1.00
H39    H     0.26600   0.25350   0.64630   0.01267  Uiso   1.00
H40    H     0.54970   0.27000   0.53480   0.01267  Uiso   1.00
H41    H     0.38160   0.17460   0.51040   0.01267  Uiso   1.00
H42    H     0.45170   0.11050   0.44550   0.01267  Uiso   1.00
H43    H     0.76890   0.14670   0.89110   0.01267  Uiso   1.00
H44    H     0.75760   0.33170   0.92330   0.01267  Uiso   1.00
H45    H     0.66580   0.24650   0.85370   0.01267  Uiso   1.00
H46    H     0.85450   0.23000   0.96520   0.01267  Uiso   1.00
H47    H     0.56660   0.32540   0.98960   0.01267  Uiso   1.00
H48    H     0.50770   0.38950   0.05450   0.01267  Uiso   1.00
C1     C     0.88809   0.95603   0.11079   0.01267  Uiso   1.00
C2     C     0.76540   0.89837   0.18383   0.01267  Uiso   1.00
C3     C     0.75874   0.91793   0.29399   0.01267  Uiso   1.00
C4     C     0.82172   0.93199   0.17857   0.01267  Uiso   1.00
C5     C     0.70399   0.87541   0.24377   0.01267  Uiso   1.00
C6     C     0.81750   0.94202   0.23356   0.01267  Uiso   1.00
C7     C     0.70011   0.88507   0.29911   0.01267  Uiso   1.00
C8     C     0.56523   0.96870   0.37164   0.01267  Uiso   1.00
C9     C     0.52799   0.00775   0.41107   0.01267  Uiso   1.00
C10    C     0.45491   0.54397   0.38921   0.01267  Uiso   1.00
C11    C     0.34760   0.60163   0.31617   0.01267  Uiso   1.00
C12    C     0.47066   0.58207   0.20601   0.01267  Uiso   1.00
C13    C     0.43228   0.56801   0.32143   0.01267  Uiso   1.00
C14    C     0.32317   0.62459   0.25623   0.01267  Uiso   1.00
C15    C     0.49308   0.55798   0.26644   0.01267  Uiso   1.00
C16    C     0.38429   0.61493   0.20089   0.01267  Uiso   1.00
C17    C     0.40557   0.53130   0.12836   0.01267  Uiso   1.00
C18    C     0.44681   0.49225   0.08893   0.01267  Uiso   1.00
C19    C     0.54509   0.61079   0.45603   0.01267  Uiso   1.00
C20    C     0.65240   0.68383   0.39837   0.01267  Uiso   1.00
C21    C     0.52934   0.79399   0.41793   0.01267  Uiso   1.00
C22    C     0.56772   0.67857   0.43199   0.01267  Uiso   1.00
C23    C     0.67683   0.74377   0.37541   0.01267  Uiso   1.00
C24    C     0.50692   0.73356   0.44202   0.01267  Uiso   1.00
C25    C     0.61571   0.79911   0.38507   0.01267  Uiso   1.00
C26    C     0.59443   0.87164   0.46870   0.01267  Uiso   1.00
C27    C     0.55319   0.91107   0.50775   0.01267  Uiso   1.00
C28    C     0.11191   0.88921   0.04397   0.01267  Uiso   1.00
C29    C     0.23460   0.81617   0.10163   0.01267  Uiso   1.00
C30    C     0.24126   0.70601   0.08207   0.01267  Uiso   1.00
C31    C     0.17828   0.82143   0.06801   0.01267  Uiso   1.00
C32    C     0.29601   0.75623   0.12459   0.01267  Uiso   1.00
C33    C     0.18250   0.76644   0.05798   0.01267  Uiso   1.00
C34    C     0.29989   0.70089   0.11493   0.01267  Uiso   1.00
C35    C     0.43477   0.62836   0.03130   0.01267  Uiso   1.00
C36    C     0.47201   0.58893   0.99225   0.01267  Uiso   1.00
C37    C     0.11191   0.04397   0.88921   0.01267  Uiso   1.00
C38    C     0.23460   0.10163   0.81617   0.01267  Uiso   1.00
C39    C     0.24126   0.08207   0.70601   0.01267  Uiso   1.00
C40    C     0.17828   0.06801   0.82143   0.01267  Uiso   1.00
C41    C     0.29601   0.12459   0.75623   0.01267  Uiso   1.00
C42    C     0.18250   0.05798   0.76644   0.01267  Uiso   1.00
C43    C     0.29989   0.11493   0.70089   0.01267  Uiso   1.00
C44    C     0.43477   0.03130   0.62836   0.01267  Uiso   1.00
C45    C     0.47201   0.99225   0.58893   0.01267  Uiso   1.00
C46    C     0.54509   0.45603   0.61079   0.01267  Uiso   1.00
C47    C     0.65240   0.39837   0.68383   0.01267  Uiso   1.00
C48    C     0.52934   0.41793   0.79399   0.01267  Uiso   1.00
C49    C     0.56772   0.43199   0.67857   0.01267  Uiso   1.00
C50    C     0.67683   0.37541   0.74377   0.01267  Uiso   1.00
C51    C     0.50692   0.44202   0.73356   0.01267  Uiso   1.00
C52    C     0.61571   0.38507   0.79911   0.01267  Uiso   1.00
C53    C     0.59443   0.46870   0.87164   0.01267  Uiso   1.00
C54    C     0.55319   0.50775   0.91107   0.01267  Uiso   1.00
C55    C     0.45491   0.38921   0.54397   0.01267  Uiso   1.00
C56    C     0.34760   0.31617   0.60163   0.01267  Uiso   1.00
C57    C     0.47066   0.20601   0.58207   0.01267  Uiso   1.00
C58    C     0.43228   0.32143   0.56801   0.01267  Uiso   1.00
C59    C     0.32317   0.25623   0.62459   0.01267  Uiso   1.00
C60    C     0.49308   0.26644   0.55798   0.01267  Uiso   1.00
C61    C     0.38429   0.20089   0.61493   0.01267  Uiso   1.00
C62    C     0.40557   0.12836   0.53130   0.01267  Uiso   1.00
C63    C     0.44681   0.08893   0.49225   0.01267  Uiso   1.00
C64    C     0.88809   0.11079   0.95603   0.01267  Uiso   1.00
C65    C     0.76540   0.18383   0.89837   0.01267  Uiso   1.00
C66    C     0.75874   0.29399   0.91793   0.01267  Uiso   1.00
C67    C     0.82172   0.17857   0.93199   0.01267  Uiso   1.00
C68    C     0.70399   0.24377   0.87541   0.01267  Uiso   1.00
C69    C     0.81750   0.23356   0.94202   0.01267  Uiso   1.00
C70    C     0.70011   0.29911   0.88507   0.01267  Uiso   1.00
C71    C     0.56523   0.37164   0.96870   0.01267  Uiso   1.00
C72    C     0.52799   0.41107   0.00775   0.01267  Uiso   1.00
C73    C     0.59907   0.90093   0.40093   0.01267  Uiso   1.00
C74    C     0.52063   0.97937   0.47937   0.01267  Uiso   1.00
C75    C     0.40093   0.59907   0.09907   0.01267  Uiso   1.00
C76    C     0.47937   0.52063   0.02063   0.01267  Uiso   1.00
C77    C     0.40093   0.09907   0.59907   0.01267  Uiso   1.00
C78    C     0.47937   0.02063   0.52063   0.01267  Uiso   1.00
C79    C     0.59907   0.40093   0.90093   0.01267  Uiso   1.00
C80    C     0.52063   0.47937   0.97937   0.01267  Uiso   1.00
N1     N     0.63840   0.86160   0.36160   0.01267  Uiso   1.00
N2     N     0.36160   0.63840   0.13840   0.01267  Uiso   1.00
N3     N     0.36160   0.13840   0.63840   0.01267  Uiso   1.00
N4     N     0.63840   0.36160   0.86160   0.01267  Uiso   1.00
O1     O     0.89016   0.94292   0.06398   0.01267  Uiso   1.00
O2     O     0.93483   0.98862   0.10998   0.01267  Uiso   1.00
O3     O     0.39706   0.55708   0.43602   0.01267  Uiso   1.00
O4     O     0.53343   0.51138   0.39002   0.01267  Uiso   1.00
O5     O     0.60294   0.56398   0.44292   0.01267  Uiso   1.00
O6     O     0.46657   0.60998   0.48862   0.01267  Uiso   1.00
O7     O     0.10984   0.93602   0.05708   0.01267  Uiso   1.00
O8     O     0.06517   0.89002   0.01138   0.01267  Uiso   1.00
O9     O     0.10984   0.05708   0.93602   0.01267  Uiso   1.00
O10    O     0.06517   0.01138   0.89002   0.01267  Uiso   1.00
O11    O     0.60294   0.44292   0.56398   0.01267  Uiso   1.00
O12    O     0.46657   0.48862   0.60998   0.01267  Uiso   1.00
O13    O     0.39706   0.43602   0.55708   0.01267  Uiso   1.00
O14    O     0.53343   0.39002   0.51138   0.01267  Uiso   1.00
O15    O     0.89016   0.06398   0.94292   0.01267  Uiso   1.00
O16    O     0.93483   0.10998   0.98862   0.01267  Uiso   1.00
