data_XAFFAN_clean
_audit_creation_date              2014-07-02
_audit_creation_method            'Materials Studio'
_symmetry_space_group_name_H-M    'P1'
_symmetry_Int_Tables_number       1
_symmetry_cell_setting            triclinic
loop_
_symmetry_equiv_pos_as_xyz
  x,y,z
_cell_length_a                    17.1780
_cell_length_b                    23.0653
_cell_length_c                    23.0653
_cell_angle_alpha                 60.8269
_cell_angle_beta                  68.1377
_cell_angle_gamma                 68.1377
loop_
_atom_site_label
_atom_site_type_symbol
_atom_site_fract_x
_atom_site_fract_y
_atom_site_fract_z
_atom_site_U_iso_or_equiv
_atom_site_adp_type
_atom_site_occupancy
Zn1    Zn    0.02823   0.53003   0.53003   0.01267  Uiso   1.00
Zn2    Zn    0.58829   0.96997   0.96996   0.01267  Uiso   1.00
Zn3    Zn    0.41171   0.03003   0.03004   0.01267  Uiso   1.00
Zn4    Zn    0.97177   0.46997   0.46997   0.01267  Uiso   1.00
H1     H     0.77000   0.38970   0.64650   0.01267  Uiso   1.00
H2     H     0.66720   0.35350   0.74610   0.01267  Uiso   1.00
H3     H     0.75560   0.42370   0.83130   0.01267  Uiso   1.00
H4     H     0.85270   0.46550   0.72990   0.01267  Uiso   1.00
H5     H     0.61660   0.32500   0.99060   0.01267  Uiso   1.00
H6     H     0.54650   0.38900   0.05500   0.01267  Uiso   1.00
H7     H     0.30620   0.11030   0.85350   0.01267  Uiso   1.00
H8     H     0.26680   0.14650   0.75390   0.01267  Uiso   1.00
H9     H     0.51060   0.07630   0.66870   0.01267  Uiso   1.00
H10    H     0.54810   0.03450   0.77010   0.01267  Uiso   1.00
H11    H     0.43220   0.17500   0.50940   0.01267  Uiso   1.00
H12    H     0.49050   0.11100   0.44500   0.01267  Uiso   1.00
H13    H     0.69380   0.14650   0.88970   0.01267  Uiso   1.00
H14    H     0.73320   0.24610   0.85350   0.01267  Uiso   1.00
H15    H     0.48940   0.33130   0.92370   0.01267  Uiso   1.00
H16    H     0.45190   0.22990   0.96550   0.01267  Uiso   1.00
H17    H     0.56780   0.49060   0.82500   0.01267  Uiso   1.00
H18    H     0.50950   0.55500   0.88900   0.01267  Uiso   1.00
H19    H     0.23000   0.35350   0.61030   0.01267  Uiso   1.00
H20    H     0.33280   0.25390   0.64650   0.01267  Uiso   1.00
H21    H     0.24440   0.16870   0.57630   0.01267  Uiso   1.00
H22    H     0.14730   0.27010   0.53450   0.01267  Uiso   1.00
H23    H     0.38340   0.00940   0.67500   0.01267  Uiso   1.00
H24    H     0.45350   0.94500   0.61100   0.01267  Uiso   1.00
H25    H     0.23000   0.61030   0.35350   0.01267  Uiso   1.00
H26    H     0.33280   0.64650   0.25390   0.01267  Uiso   1.00
H27    H     0.24440   0.57630   0.16870   0.01267  Uiso   1.00
H28    H     0.14730   0.53450   0.27010   0.01267  Uiso   1.00
H29    H     0.38340   0.67500   0.00940   0.01267  Uiso   1.00
H30    H     0.45350   0.61100   0.94500   0.01267  Uiso   1.00
H31    H     0.69380   0.88970   0.14650   0.01267  Uiso   1.00
H32    H     0.73320   0.85350   0.24610   0.01267  Uiso   1.00
H33    H     0.48940   0.92370   0.33130   0.01267  Uiso   1.00
H34    H     0.45190   0.96550   0.22990   0.01267  Uiso   1.00
H35    H     0.56780   0.82500   0.49060   0.01267  Uiso   1.00
H36    H     0.50950   0.88900   0.55500   0.01267  Uiso   1.00
H37    H     0.30620   0.85350   0.11030   0.01267  Uiso   1.00
H38    H     0.26680   0.75390   0.14650   0.01267  Uiso   1.00
H39    H     0.51060   0.66870   0.07630   0.01267  Uiso   1.00
H40    H     0.54810   0.77010   0.03450   0.01267  Uiso   1.00
H41    H     0.43220   0.50940   0.17500   0.01267  Uiso   1.00
H42    H     0.49050   0.44500   0.11100   0.01267  Uiso   1.00
H43    H     0.77000   0.64650   0.38970   0.01267  Uiso   1.00
H44    H     0.66720   0.74610   0.35350   0.01267  Uiso   1.00
H45    H     0.75560   0.83130   0.42370   0.01267  Uiso   1.00
H46    H     0.85270   0.72990   0.46550   0.01267  Uiso   1.00
H47    H     0.61660   0.99060   0.32500   0.01267  Uiso   1.00
H48    H     0.54650   0.05500   0.38900   0.01267  Uiso   1.00
C1     C     0.88770   0.45659   0.61221   0.01267  Uiso   1.00
C2     C     0.76669   0.39730   0.68352   0.01267  Uiso   1.00
C3     C     0.70559   0.37486   0.74344   0.01267  Uiso   1.00
C4     C     0.75746   0.41734   0.79388   0.01267  Uiso   1.00
C5     C     0.81675   0.44167   0.73321   0.01267  Uiso   1.00
C6     C     0.70123   0.38414   0.80004   0.01267  Uiso   1.00
C7     C     0.59318   0.37150   0.96954   0.01267  Uiso   1.00
C8     C     0.55232   0.41059   0.00797   0.01267  Uiso   1.00
C9     C     0.82328   0.43100   0.67758   0.01267  Uiso   1.00
C10    C     0.45650   0.04341   0.88779   0.01267  Uiso   1.00
C11    C     0.34751   0.10270   0.81648   0.01267  Uiso   1.00
C12    C     0.32389   0.12514   0.75656   0.01267  Uiso   1.00
C13    C     0.46868   0.08266   0.70612   0.01267  Uiso   1.00
C14    C     0.49163   0.05833   0.76679   0.01267  Uiso   1.00
C15    C     0.38541   0.11586   0.69996   0.01267  Uiso   1.00
C16    C     0.43422   0.12850   0.53046   0.01267  Uiso   1.00
C17    C     0.47088   0.08941   0.49203   0.01267  Uiso   1.00
C18    C     0.43186   0.06900   0.82242   0.01267  Uiso   1.00
C19    C     0.54350   0.11221   0.95659   0.01267  Uiso   1.00
C20    C     0.65249   0.18352   0.89730   0.01267  Uiso   1.00
C21    C     0.67611   0.24344   0.87486   0.01267  Uiso   1.00
C22    C     0.53132   0.29388   0.91734   0.01267  Uiso   1.00
C23    C     0.50837   0.23321   0.94167   0.01267  Uiso   1.00
C24    C     0.61459   0.30004   0.88414   0.01267  Uiso   1.00
C25    C     0.56578   0.46954   0.87150   0.01267  Uiso   1.00
C26    C     0.52912   0.50797   0.91059   0.01267  Uiso   1.00
C27    C     0.56814   0.17758   0.93100   0.01267  Uiso   1.00
C28    C     0.11230   0.38779   0.54341   0.01267  Uiso   1.00
C29    C     0.23331   0.31648   0.60270   0.01267  Uiso   1.00
C30    C     0.29441   0.25656   0.62514   0.01267  Uiso   1.00
C31    C     0.24254   0.20612   0.58266   0.01267  Uiso   1.00
C32    C     0.18325   0.26679   0.55833   0.01267  Uiso   1.00
C33    C     0.29877   0.19996   0.61586   0.01267  Uiso   1.00
C34    C     0.40682   0.03046   0.62850   0.01267  Uiso   1.00
C35    C     0.44768   0.99203   0.58941   0.01267  Uiso   1.00
C36    C     0.17672   0.32242   0.56900   0.01267  Uiso   1.00
C37    C     0.11230   0.54341   0.38779   0.01267  Uiso   1.00
C38    C     0.23331   0.60270   0.31648   0.01267  Uiso   1.00
C39    C     0.29441   0.62514   0.25656   0.01267  Uiso   1.00
C40    C     0.24254   0.58266   0.20612   0.01267  Uiso   1.00
C41    C     0.18325   0.55833   0.26679   0.01267  Uiso   1.00
C42    C     0.29877   0.61586   0.19996   0.01267  Uiso   1.00
C43    C     0.40682   0.62850   0.03046   0.01267  Uiso   1.00
C44    C     0.44768   0.58941   0.99203   0.01267  Uiso   1.00
C45    C     0.17672   0.56900   0.32242   0.01267  Uiso   1.00
C46    C     0.54350   0.95659   0.11221   0.01267  Uiso   1.00
C47    C     0.65249   0.89730   0.18352   0.01267  Uiso   1.00
C48    C     0.67611   0.87486   0.24344   0.01267  Uiso   1.00
C49    C     0.53132   0.91734   0.29388   0.01267  Uiso   1.00
C50    C     0.50837   0.94167   0.23321   0.01267  Uiso   1.00
C51    C     0.61459   0.88414   0.30004   0.01267  Uiso   1.00
C52    C     0.56578   0.87150   0.46954   0.01267  Uiso   1.00
C53    C     0.52912   0.91059   0.50797   0.01267  Uiso   1.00
C54    C     0.56814   0.93100   0.17758   0.01267  Uiso   1.00
C55    C     0.45650   0.88779   0.04341   0.01267  Uiso   1.00
C56    C     0.34751   0.81648   0.10270   0.01267  Uiso   1.00
C57    C     0.32389   0.75656   0.12514   0.01267  Uiso   1.00
C58    C     0.46868   0.70612   0.08266   0.01267  Uiso   1.00
C59    C     0.49163   0.76679   0.05833   0.01267  Uiso   1.00
C60    C     0.38541   0.69996   0.11586   0.01267  Uiso   1.00
C61    C     0.43422   0.53046   0.12850   0.01267  Uiso   1.00
C62    C     0.47088   0.49203   0.08941   0.01267  Uiso   1.00
C63    C     0.43186   0.82242   0.06900   0.01267  Uiso   1.00
C64    C     0.88770   0.61221   0.45659   0.01267  Uiso   1.00
C65    C     0.76669   0.68352   0.39730   0.01267  Uiso   1.00
C66    C     0.70559   0.74344   0.37486   0.01267  Uiso   1.00
C67    C     0.75746   0.79388   0.41734   0.01267  Uiso   1.00
C68    C     0.81675   0.73321   0.44167   0.01267  Uiso   1.00
C69    C     0.70123   0.80004   0.38414   0.01267  Uiso   1.00
C70    C     0.59318   0.96954   0.37150   0.01267  Uiso   1.00
C71    C     0.55232   0.00797   0.41059   0.01267  Uiso   1.00
C72    C     0.82328   0.67758   0.43100   0.01267  Uiso   1.00
C73    C     0.59872   0.40128   0.90128   0.01267  Uiso   1.00
C74    C     0.52077   0.47923   0.97923   0.01267  Uiso   1.00
C75    C     0.40128   0.09872   0.59872   0.01267  Uiso   1.00
C76    C     0.47923   0.02077   0.52077   0.01267  Uiso   1.00
C77    C     0.40128   0.59872   0.09872   0.01267  Uiso   1.00
C78    C     0.47923   0.52077   0.02077   0.01267  Uiso   1.00
C79    C     0.59872   0.90128   0.40128   0.01267  Uiso   1.00
C80    C     0.52077   0.97923   0.47923   0.01267  Uiso   1.00
N1     N     0.63886   0.36114   0.86114   0.01267  Uiso   1.00
N2     N     0.36114   0.13886   0.63886   0.01267  Uiso   1.00
N3     N     0.36114   0.63886   0.13886   0.01267  Uiso   1.00
N4     N     0.63886   0.86114   0.36114   0.01267  Uiso   1.00
O1     O     0.93430   0.48890   0.61002   0.01267  Uiso   1.00
O2     O     0.89114   0.44293   0.56423   0.01267  Uiso   1.00
O3     O     0.53322   0.01110   0.88998   0.01267  Uiso   1.00
O4     O     0.39830   0.05707   0.93577   0.01267  Uiso   1.00
O5     O     0.46678   0.11002   0.98890   0.01267  Uiso   1.00
O6     O     0.60170   0.06423   0.94293   0.01267  Uiso   1.00
O7     O     0.06570   0.38998   0.51110   0.01267  Uiso   1.00
O8     O     0.10886   0.43577   0.55707   0.01267  Uiso   1.00
O9     O     0.06570   0.51110   0.38998   0.01267  Uiso   1.00
O10    O     0.10886   0.55707   0.43577   0.01267  Uiso   1.00
O11    O     0.46678   0.98890   0.11002   0.01267  Uiso   1.00
O12    O     0.60170   0.94293   0.06423   0.01267  Uiso   1.00
O13    O     0.53322   0.88998   0.01110   0.01267  Uiso   1.00
O14    O     0.39830   0.93577   0.05707   0.01267  Uiso   1.00
O15    O     0.93430   0.61002   0.48890   0.01267  Uiso   1.00
O16    O     0.89114   0.56423   0.44293   0.01267  Uiso   1.00
