data_XAFNOH_clean
_audit_creation_date              2014-07-02
_audit_creation_method            'Materials Studio'
_symmetry_space_group_name_H-M    'P1'
_symmetry_Int_Tables_number       1
_symmetry_cell_setting            triclinic
loop_
_symmetry_equiv_pos_as_xyz
  x,y,z
_cell_length_a                    7.7815
_cell_length_b                    9.2600
_cell_length_c                    25.5430
_cell_angle_alpha                 90.0000
_cell_angle_beta                  90.0000
_cell_angle_gamma                 97.3600
loop_
_atom_site_label
_atom_site_type_symbol
_atom_site_fract_x
_atom_site_fract_y
_atom_site_fract_z
_atom_site_U_iso_or_equiv
_atom_site_adp_type
_atom_site_occupancy
Gd1    Gd    0.41277   0.48775   0.34940   0.01267  Uiso   1.00
Gd2    Gd    0.08723   0.51225   0.84940   0.01267  Uiso   1.00
Gd3    Gd    0.58723   0.51225   0.65060   0.01267  Uiso   1.00
Gd4    Gd    0.91277   0.48775   0.15060   0.01267  Uiso   1.00
Cu1    Cu    0.50000   0.00000   0.50000   0.01267  Uiso   1.00
Cu2    Cu    0.00000   0.00000   0.00000   0.01267  Uiso   1.00
C1     C     0.72040   0.40350   0.27200   0.01267  Uiso   1.00
C2     C     0.66280   0.25410   0.29510   0.01267  Uiso   1.00
C3     C     0.72910   0.13020   0.27720   0.01267  Uiso   1.00
C4     C     0.67310   0.99760   0.30090   0.01267  Uiso   1.00
C5     C     0.55260   0.99320   0.34100   0.01267  Uiso   1.00
C6     C     0.49310   0.12210   0.35630   0.01267  Uiso   1.00
C7     C     0.48390   0.85220   0.36800   0.01267  Uiso   1.00
C8     C     0.69760   0.77730   0.49270   0.01267  Uiso   1.00
C9     C     0.80020   0.90440   0.46330   0.01267  Uiso   1.00
C10    C     0.94830   0.89350   0.43500   0.01267  Uiso   1.00
C11    C     0.03090   0.01900   0.41140   0.01267  Uiso   1.00
C12    C     0.96010   0.14970   0.41520   0.01267  Uiso   1.00
C13    C     0.80810   0.15020   0.44300   0.01267  Uiso   1.00
C14    C     0.04250   0.28810   0.38940   0.01267  Uiso   1.00
C15    C     0.77960   0.59650   0.77200   0.01267  Uiso   1.00
C16    C     0.83720   0.74590   0.79510   0.01267  Uiso   1.00
C17    C     0.77090   0.86980   0.77720   0.01267  Uiso   1.00
C18    C     0.82690   0.00240   0.80090   0.01267  Uiso   1.00
C19    C     0.94740   0.00680   0.84100   0.01267  Uiso   1.00
C20    C     0.00690   0.87790   0.85630   0.01267  Uiso   1.00
C21    C     0.01610   0.14780   0.86800   0.01267  Uiso   1.00
C22    C     0.80240   0.22270   0.99270   0.01267  Uiso   1.00
C23    C     0.69980   0.09560   0.96330   0.01267  Uiso   1.00
C24    C     0.55170   0.10650   0.93500   0.01267  Uiso   1.00
C25    C     0.46910   0.98100   0.91140   0.01267  Uiso   1.00
C26    C     0.53990   0.85030   0.91520   0.01267  Uiso   1.00
C27    C     0.69190   0.84980   0.94300   0.01267  Uiso   1.00
C28    C     0.45750   0.71190   0.88940   0.01267  Uiso   1.00
C29    C     0.27960   0.59650   0.72800   0.01267  Uiso   1.00
C30    C     0.33720   0.74590   0.70490   0.01267  Uiso   1.00
C31    C     0.27090   0.86980   0.72280   0.01267  Uiso   1.00
C32    C     0.32690   0.00240   0.69910   0.01267  Uiso   1.00
C33    C     0.44740   0.00680   0.65900   0.01267  Uiso   1.00
C34    C     0.50690   0.87790   0.64370   0.01267  Uiso   1.00
C35    C     0.51610   0.14780   0.63200   0.01267  Uiso   1.00
C36    C     0.30240   0.22270   0.50730   0.01267  Uiso   1.00
C37    C     0.19980   0.09560   0.53670   0.01267  Uiso   1.00
C38    C     0.05170   0.10650   0.56500   0.01267  Uiso   1.00
C39    C     0.96910   0.98100   0.58860   0.01267  Uiso   1.00
C40    C     0.03990   0.85030   0.58480   0.01267  Uiso   1.00
C41    C     0.19190   0.84980   0.55700   0.01267  Uiso   1.00
C42    C     0.95750   0.71190   0.61060   0.01267  Uiso   1.00
C43    C     0.22040   0.40350   0.22800   0.01267  Uiso   1.00
C44    C     0.16280   0.25410   0.20490   0.01267  Uiso   1.00
C45    C     0.22910   0.13020   0.22280   0.01267  Uiso   1.00
C46    C     0.17310   0.99760   0.19910   0.01267  Uiso   1.00
C47    C     0.05260   0.99320   0.15900   0.01267  Uiso   1.00
C48    C     0.99310   0.12210   0.14370   0.01267  Uiso   1.00
C49    C     0.98390   0.85220   0.13200   0.01267  Uiso   1.00
C50    C     0.19760   0.77730   0.00730   0.01267  Uiso   1.00
C51    C     0.30020   0.90440   0.03670   0.01267  Uiso   1.00
C52    C     0.44830   0.89350   0.06500   0.01267  Uiso   1.00
C53    C     0.53090   0.01900   0.08860   0.01267  Uiso   1.00
C54    C     0.46010   0.14970   0.08480   0.01267  Uiso   1.00
C55    C     0.30810   0.15020   0.05700   0.01267  Uiso   1.00
C56    C     0.54250   0.28810   0.11060   0.01267  Uiso   1.00
N1     N     0.54520   0.25060   0.33350   0.01267  Uiso   1.00
N2     N     0.73010   0.03020   0.46660   0.01267  Uiso   1.00
N3     N     0.95480   0.74940   0.83350   0.01267  Uiso   1.00
N4     N     0.76990   0.96980   0.96660   0.01267  Uiso   1.00
N5     N     0.45480   0.74940   0.66650   0.01267  Uiso   1.00
N6     N     0.26990   0.96980   0.53340   0.01267  Uiso   1.00
N7     N     0.04520   0.25060   0.16650   0.01267  Uiso   1.00
N8     N     0.23010   0.03020   0.03340   0.01267  Uiso   1.00
O1     O     0.66520   0.50980   0.29354   0.01267  Uiso   1.00
O2     O     0.82210   0.40970   0.23434   0.01267  Uiso   1.00
O3     O     0.50760   0.73680   0.34340   0.01267  Uiso   1.00
O4     O     0.41120   0.85840   0.41117   0.01267  Uiso   1.00
O5     O     0.56330   0.80860   0.51660   0.01267  Uiso   1.00
O6     O     0.75220   0.65770   0.49162   0.01267  Uiso   1.00
O7     O     0.20060   0.29560   0.37670   0.01267  Uiso   1.00
O8     O     0.94820   0.38580   0.38290   0.01267  Uiso   1.00
O9     O     0.83480   0.49020   0.79354   0.01267  Uiso   1.00
O10    O     0.67790   0.59030   0.73434   0.01267  Uiso   1.00
O11    O     0.99240   0.26320   0.84340   0.01267  Uiso   1.00
O12    O     0.08880   0.14160   0.91117   0.01267  Uiso   1.00
O13    O     0.93670   0.19140   0.01660   0.01267  Uiso   1.00
O14    O     0.74780   0.34230   0.99162   0.01267  Uiso   1.00
O15    O     0.29940   0.70440   0.87670   0.01267  Uiso   1.00
O16    O     0.55180   0.61420   0.88290   0.01267  Uiso   1.00
O17    O     0.33480   0.49020   0.70646   0.01267  Uiso   1.00
O18    O     0.17790   0.59030   0.76566   0.01267  Uiso   1.00
O19    O     0.49240   0.26320   0.65660   0.01267  Uiso   1.00
O20    O     0.58880   0.14160   0.58883   0.01267  Uiso   1.00
O21    O     0.43670   0.19140   0.48340   0.01267  Uiso   1.00
O22    O     0.24780   0.34230   0.50838   0.01267  Uiso   1.00
O23    O     0.79940   0.70440   0.62330   0.01267  Uiso   1.00
O24    O     0.05180   0.61420   0.61710   0.01267  Uiso   1.00
O25    O     0.16520   0.50980   0.20646   0.01267  Uiso   1.00
O26    O     0.32210   0.40970   0.26566   0.01267  Uiso   1.00
O27    O     0.00760   0.73680   0.15660   0.01267  Uiso   1.00
O28    O     0.91120   0.85840   0.08883   0.01267  Uiso   1.00
O29    O     0.06330   0.80860   0.98340   0.01267  Uiso   1.00
O30    O     0.25220   0.65770   0.00838   0.01267  Uiso   1.00
O31    O     0.70060   0.29560   0.12330   0.01267  Uiso   1.00
O32    O     0.44820   0.38580   0.11710   0.01267  Uiso   1.00
