data_XAFXOT_clean
_audit_creation_date              2014-07-02
_audit_creation_method            'Materials Studio'
_symmetry_space_group_name_H-M    'P1'
_symmetry_Int_Tables_number       1
_symmetry_cell_setting            triclinic
loop_
_symmetry_equiv_pos_as_xyz
  x,y,z
_cell_length_a                    4.5588
_cell_length_b                    11.9018
_cell_length_c                    15.8005
_cell_angle_alpha                 85.9120
_cell_angle_beta                  84.8110
_cell_angle_gamma                 83.2490
loop_
_atom_site_label
_atom_site_type_symbol
_atom_site_fract_x
_atom_site_fract_y
_atom_site_fract_z
_atom_site_U_iso_or_equiv
_atom_site_adp_type
_atom_site_occupancy
La1    La    0.80833   0.77574   0.67367   0.01267  Uiso   1.00
La2    La    0.19167   0.22426   0.32633   0.01267  Uiso   1.00
H1     H     0.44270   0.10710   0.56130   0.01267  Uiso   1.00
H2     H     0.46320   0.10100   0.66200   0.01267  Uiso   1.00
H3     H     0.89220   0.14930   0.73910   0.01267  Uiso   1.00
H4     H     0.13330   0.23540   0.74250   0.01267  Uiso   1.00
H5     H     0.56030   0.30840   0.53020   0.01267  Uiso   1.00
H6     H     0.79130   0.39940   0.52920   0.01267  Uiso   1.00
H7     H     0.23600   0.45020   0.60790   0.01267  Uiso   1.00
H8     H     0.26750   0.45170   0.70780   0.01267  Uiso   1.00
H9     H     0.03060   0.85160   0.92280   0.01267  Uiso   1.00
H10    H     0.96960   0.97230   0.87240   0.01267  Uiso   1.00
H11    H     0.57280   0.82180   0.97270   0.01267  Uiso   1.00
H12    H     0.30680   0.84550   0.04420   0.01267  Uiso   1.00
H13    H     0.55730   0.89290   0.43870   0.01267  Uiso   1.00
H14    H     0.53680   0.89900   0.33800   0.01267  Uiso   1.00
H15    H     0.10780   0.85070   0.26090   0.01267  Uiso   1.00
H16    H     0.86670   0.76460   0.25750   0.01267  Uiso   1.00
H17    H     0.43970   0.69160   0.46980   0.01267  Uiso   1.00
H18    H     0.20870   0.60060   0.47080   0.01267  Uiso   1.00
H19    H     0.76400   0.54980   0.39210   0.01267  Uiso   1.00
H20    H     0.73250   0.54830   0.29220   0.01267  Uiso   1.00
H21    H     0.96940   0.14840   0.07720   0.01267  Uiso   1.00
H22    H     0.03040   0.02770   0.12760   0.01267  Uiso   1.00
H23    H     0.42720   0.17820   0.02730   0.01267  Uiso   1.00
H24    H     0.69320   0.15450   0.95580   0.01267  Uiso   1.00
C1     C     0.21430   0.98160   0.62450   0.01267  Uiso   1.00
C2     C     0.32750   0.09760   0.61700   0.01267  Uiso   1.00
C3     C     0.96910   0.21790   0.71050   0.01267  Uiso   1.00
C4     C     0.72560   0.31480   0.71690   0.01267  Uiso   1.00
C5     C     0.97540   0.23750   0.55437   0.01267  Uiso   1.00
C6     C     0.72430   0.33050   0.56020   0.01267  Uiso   1.00
C7     C     0.37780   0.45580   0.65090   0.01267  Uiso   1.00
C8     C     0.49940   0.56950   0.63659   0.01267  Uiso   1.00
C9     C     0.30960   0.86770   0.81280   0.01267  Uiso   1.00
C10    C     0.12750   0.91380   0.89100   0.01267  Uiso   1.00
C11    C     0.33600   0.07250   0.93950   0.01267  Uiso   1.00
C12    C     0.45770   0.88180   0.00620   0.01267  Uiso   1.00
C13    C     0.78570   0.01840   0.37550   0.01267  Uiso   1.00
C14    C     0.67250   0.90240   0.38300   0.01267  Uiso   1.00
C15    C     0.03090   0.78210   0.28950   0.01267  Uiso   1.00
C16    C     0.27440   0.68520   0.28310   0.01267  Uiso   1.00
C17    C     0.02460   0.76250   0.44563   0.01267  Uiso   1.00
C18    C     0.27570   0.66950   0.43980   0.01267  Uiso   1.00
C19    C     0.62220   0.54420   0.34910   0.01267  Uiso   1.00
C20    C     0.50060   0.43050   0.36341   0.01267  Uiso   1.00
C21    C     0.69040   0.13230   0.18720   0.01267  Uiso   1.00
C22    C     0.87250   0.08620   0.10900   0.01267  Uiso   1.00
C23    C     0.66400   0.92750   0.06050   0.01267  Uiso   1.00
C24    C     0.54230   0.11820   0.99380   0.01267  Uiso   1.00
N1     N     0.09070   0.19090   0.62454   0.01267  Uiso   1.00
N2     N     0.60750   0.35960   0.64560   0.01267  Uiso   1.00
N3     N     0.30460   0.96300   0.94744   0.01267  Uiso   1.00
N4     N     0.90930   0.80910   0.37546   0.01267  Uiso   1.00
N5     N     0.39250   0.64040   0.35440   0.01267  Uiso   1.00
N6     N     0.69540   0.03700   0.05256   0.01267  Uiso   1.00
O1     O     0.39870   0.89788   0.60700   0.01267  Uiso   1.00
O2     O     0.94840   0.97597   0.64874   0.01267  Uiso   1.00
O3     O     0.07480   0.20812   0.48274   0.01267  Uiso   1.00
O4     O     0.63660   0.34740   0.78774   0.01267  Uiso   1.00
O5     O     0.76540   0.57447   0.61213   0.01267  Uiso   1.00
O6     O     0.32220   0.65697   0.65137   0.01267  Uiso   1.00
O7     O     0.19610   0.79867   0.77374   0.01267  Uiso   1.00
O8     O     0.55910   0.90020   0.79347   0.01267  Uiso   1.00
O9     O     0.20020   0.13960   0.88961   0.01267  Uiso   1.00
O10    O     0.60130   0.10212   0.39300   0.01267  Uiso   1.00
O11    O     0.05160   0.02403   0.35126   0.01267  Uiso   1.00
O12    O     0.92520   0.79188   0.51726   0.01267  Uiso   1.00
O13    O     0.36340   0.65260   0.21226   0.01267  Uiso   1.00
O14    O     0.23460   0.42553   0.38787   0.01267  Uiso   1.00
O15    O     0.67780   0.34303   0.34863   0.01267  Uiso   1.00
O16    O     0.80390   0.20133   0.22626   0.01267  Uiso   1.00
O17    O     0.44090   0.09980   0.20653   0.01267  Uiso   1.00
O18    O     0.79980   0.86040   0.11039   0.01267  Uiso   1.00
