data_image0
_cell_length_a       9.8879
_cell_length_b       15.9826
_cell_length_c       11.2887
_cell_angle_alpha    90
_cell_angle_beta     111.178
_cell_angle_gamma    90

_symmetry_space_group_name_H-M    "P 1"
_symmetry_int_tables_number       1

loop_
  _symmetry_equiv_pos_as_xyz
  'x, y, z'

loop_
  _atom_site_label
  _atom_site_occupancy
  _atom_site_fract_x
  _atom_site_fract_y
  _atom_site_fract_z
  _atom_site_thermal_displace_type
  _atom_site_B_iso_or_equiv
  _atom_site_type_symbol
  C1       1.0000 0.30230  0.44990  0.43620  Biso   1.000  C
  N1       1.0000 0.18800  0.42200  0.40010  Biso   1.000  N
  K1       1.0000 0.97086  0.45298  0.15784  Biso   1.000  K
  Au1      1.0000 0.14908  0.77734  0.36136  Biso   1.000  Au
  C2       1.0000 0.24300  0.88910  0.41100  Biso   1.000  C
  N2       1.0000 0.29900  0.95230  0.44380  Biso   1.000  N
  C3       1.0000 0.05120  0.66600  0.31920  Biso   1.000  C
  N3       1.0000 0.99270  0.60340  0.29590  Biso   1.000  N
  Au2      1.0000 0.91427  0.81727  0.08847  Biso   1.000  Au
  C4       1.0000 0.02860  0.74970  0.00730  Biso   1.000  C
  N4       1.0000 0.08750  0.70900  0.95880  Biso   1.000  N
  C5       1.0000 0.79400  0.87980  0.16650  Biso   1.000  C
  N5       1.0000 0.72170  0.91520  0.21110  Biso   1.000  N
  C6       1.0000 0.19770  0.94990  0.06380  Biso   1.000  C
  N6       1.0000 0.31200  0.92200  0.09990  Biso   1.000  N
  K2       1.0000 0.52914  0.95298  0.34216  Biso   1.000  K
  Au3      1.0000 0.35092  0.27734  0.13864  Biso   1.000  Au
  C7       1.0000 0.25700  0.38910  0.08900  Biso   1.000  C
  N7       1.0000 0.20100  0.45230  0.05620  Biso   1.000  N
  C8       1.0000 0.44880  0.16600  0.18080  Biso   1.000  C
  N8       1.0000 0.50730  0.10340  0.20410  Biso   1.000  N
  Au4      1.0000 0.58573  0.31727  0.41153  Biso   1.000  Au
  C9       1.0000 0.47140  0.24970  0.49270  Biso   1.000  C
  N9       1.0000 0.41250  0.20900  0.54120  Biso   1.000  N
  C10      1.0000 0.70600  0.37980  0.33350  Biso   1.000  C
  N10      1.0000 0.77830  0.41520  0.28890  Biso   1.000  N
  C11      1.0000 0.69770  0.55010  0.56380  Biso   1.000  C
  N11      1.0000 0.81200  0.57800  0.59990  Biso   1.000  N
  K3       1.0000 0.02914  0.54702  0.84216  Biso   1.000  K
  Au5      1.0000 0.85092  0.22266  0.63864  Biso   1.000  Au
  C12      1.0000 0.75700  0.11090  0.58900  Biso   1.000  C
  N12      1.0000 0.70100  0.04770  0.55620  Biso   1.000  N
  C13      1.0000 0.94880  0.33400  0.68080  Biso   1.000  C
  N13      1.0000 0.00730  0.39660  0.70410  Biso   1.000  N
  Au6      1.0000 0.08573  0.18273  0.91153  Biso   1.000  Au
  C14      1.0000 0.97140  0.25030  0.99270  Biso   1.000  C
  N14      1.0000 0.91250  0.29100  0.04120  Biso   1.000  N
  C15      1.0000 0.20600  0.12020  0.83350  Biso   1.000  C
  N15      1.0000 0.27830  0.08480  0.78890  Biso   1.000  N
  C16      1.0000 0.80230  0.05010  0.93620  Biso   1.000  C
  N16      1.0000 0.68800  0.07800  0.90010  Biso   1.000  N
  K4       1.0000 0.47086  0.04702  0.65784  Biso   1.000  K
  Au7      1.0000 0.64908  0.72266  0.86136  Biso   1.000  Au
  C17      1.0000 0.74300  0.61090  0.91100  Biso   1.000  C
  N17      1.0000 0.79900  0.54770  0.94380  Biso   1.000  N
  C18      1.0000 0.55120  0.83400  0.81920  Biso   1.000  C
  N18      1.0000 0.49270  0.89660  0.79590  Biso   1.000  N
  Au8      1.0000 0.41427  0.68273  0.58847  Biso   1.000  Au
  C19      1.0000 0.52860  0.75030  0.50730  Biso   1.000  C
  N19      1.0000 0.58750  0.79100  0.45880  Biso   1.000  N
  C20      1.0000 0.29400  0.62020  0.66650  Biso   1.000  C
  N20      1.0000 0.22170  0.58480  0.71110  Biso   1.000  N
  Au9      1.0000 0.50000  0.50000  0.50000  Biso   1.000  Au
  Au10     1.0000 0.00000  0.00000  0.00000  Biso   1.000  Au
  K5       1.0000 0.00000  0.50000  0.50000  Biso   1.000  K
  K6       1.0000 0.50000  0.00000  0.00000  Biso   1.000  K
