data_XAHPIH_clean
_audit_creation_date              2014-07-02
_audit_creation_method            'Materials Studio'
_symmetry_space_group_name_H-M    'P1'
_symmetry_Int_Tables_number       1
_symmetry_cell_setting            triclinic
loop_
_symmetry_equiv_pos_as_xyz
  x,y,z
_cell_length_a                    21.0490
_cell_length_b                    21.0490
_cell_length_c                    32.5422
_cell_angle_alpha                 108.8690
_cell_angle_beta                  108.8690
_cell_angle_gamma                 90.0001
loop_
_atom_site_label
_atom_site_type_symbol
_atom_site_fract_x
_atom_site_fract_y
_atom_site_fract_z
_atom_site_U_iso_or_equiv
_atom_site_adp_type
_atom_site_occupancy
Cu1    Cu    0.90965   0.89535   0.71932   0.01267  Uiso   1.00
Cu2    Cu    0.80967   0.82397   0.71932   0.01267  Uiso   1.00
Cu3    Cu    0.14535   0.55967   0.21932   0.01267  Uiso   1.00
Cu4    Cu    0.07397   0.65965   0.21932   0.01267  Uiso   1.00
Cu5    Cu    0.44033   0.85465   0.78068   0.01267  Uiso   1.00
Cu6    Cu    0.34035   0.92603   0.78068   0.01267  Uiso   1.00
Cu7    Cu    0.17603   0.19033   0.28068   0.01267  Uiso   1.00
Cu8    Cu    0.10465   0.09035   0.28068   0.01267  Uiso   1.00
H1     H     0.67220   0.94390   0.54080   0.01267  Uiso   1.00
H2     H     0.74340   0.95300   0.61100   0.01267  Uiso   1.00
H3     H     0.49500   0.90940   0.68120   0.01267  Uiso   1.00
H4     H     0.56920   0.92270   0.64240   0.01267  Uiso   1.00
H5     H     0.40650   0.98900   0.53640   0.01267  Uiso   1.00
H6     H     0.38470   0.97740   0.59920   0.01267  Uiso   1.00
H7     H     0.38270   0.97050   0.66660   0.01267  Uiso   1.00
H8     H     0.64630   0.88330   0.62200   0.01267  Uiso   1.00
H9     H     0.86860   0.59690   0.54080   0.01267  Uiso   1.00
H10    H     0.86760   0.65800   0.61100   0.01267  Uiso   1.00
H11    H     0.18620   0.77180   0.68120   0.01267  Uiso   1.00
H12    H     0.07320   0.71970   0.64240   0.01267  Uiso   1.00
H13    H     0.12990   0.54740   0.53640   0.01267  Uiso   1.00
H14    H     0.21450   0.62180   0.59920   0.01267  Uiso   1.00
H15    H     0.28390   0.69610   0.66660   0.01267  Uiso   1.00
H16    H     0.97570   0.73870   0.62200   0.01267  Uiso   1.00
H17    H     0.19390   0.61860   0.04080   0.01267  Uiso   1.00
H18    H     0.20300   0.61760   0.11100   0.01267  Uiso   1.00
H19    H     0.15940   0.93620   0.18120   0.01267  Uiso   1.00
H20    H     0.17270   0.82320   0.14240   0.01267  Uiso   1.00
H21    H     0.23900   0.87990   0.03640   0.01267  Uiso   1.00
H22    H     0.22740   0.96450   0.09920   0.01267  Uiso   1.00
H23    H     0.22050   0.03390   0.16660   0.01267  Uiso   1.00
H24    H     0.13330   0.72570   0.12200   0.01267  Uiso   1.00
H25    H     0.84690   0.42220   0.04080   0.01267  Uiso   1.00
H26    H     0.90800   0.49340   0.11100   0.01267  Uiso   1.00
H27    H     0.02180   0.24500   0.18120   0.01267  Uiso   1.00
H28    H     0.96970   0.31920   0.14240   0.01267  Uiso   1.00
H29    H     0.79740   0.15650   0.03640   0.01267  Uiso   1.00
H30    H     0.87180   0.13470   0.09920   0.01267  Uiso   1.00
H31    H     0.94610   0.13270   0.16660   0.01267  Uiso   1.00
H32    H     0.98870   0.39630   0.12200   0.01267  Uiso   1.00
H33    H     0.38140   0.80610   0.95920   0.01267  Uiso   1.00
H34    H     0.38240   0.79700   0.88900   0.01267  Uiso   1.00
H35    H     0.06380   0.84060   0.81880   0.01267  Uiso   1.00
H36    H     0.17680   0.82730   0.85760   0.01267  Uiso   1.00
H37    H     0.12010   0.76100   0.96360   0.01267  Uiso   1.00
H38    H     0.03550   0.77260   0.90080   0.01267  Uiso   1.00
H39    H     0.96610   0.77950   0.83340   0.01267  Uiso   1.00
H40    H     0.27430   0.86670   0.87800   0.01267  Uiso   1.00
H41    H     0.57780   0.15310   0.95920   0.01267  Uiso   1.00
H42    H     0.50660   0.09200   0.88900   0.01267  Uiso   1.00
H43    H     0.75500   0.97820   0.81880   0.01267  Uiso   1.00
H44    H     0.68080   0.03030   0.85760   0.01267  Uiso   1.00
H45    H     0.84350   0.20260   0.96360   0.01267  Uiso   1.00
H46    H     0.86530   0.12820   0.90080   0.01267  Uiso   1.00
H47    H     0.86730   0.05390   0.83340   0.01267  Uiso   1.00
H48    H     0.60370   0.01130   0.87800   0.01267  Uiso   1.00
H49    H     0.40310   0.13140   0.45920   0.01267  Uiso   1.00
H50    H     0.34200   0.13240   0.38900   0.01267  Uiso   1.00
H51    H     0.22820   0.81380   0.31880   0.01267  Uiso   1.00
H52    H     0.28030   0.92680   0.35760   0.01267  Uiso   1.00
H53    H     0.45260   0.87010   0.46360   0.01267  Uiso   1.00
H54    H     0.37820   0.78550   0.40080   0.01267  Uiso   1.00
H55    H     0.30390   0.71610   0.33340   0.01267  Uiso   1.00
H56    H     0.26130   0.02430   0.37800   0.01267  Uiso   1.00
H57    H     0.05610   0.32780   0.45920   0.01267  Uiso   1.00
H58    H     0.04700   0.25660   0.38900   0.01267  Uiso   1.00
H59    H     0.09060   0.50500   0.31880   0.01267  Uiso   1.00
H60    H     0.07730   0.43080   0.35760   0.01267  Uiso   1.00
H61    H     0.01100   0.59350   0.46360   0.01267  Uiso   1.00
H62    H     0.02260   0.61530   0.40080   0.01267  Uiso   1.00
H63    H     0.02950   0.61730   0.33340   0.01267  Uiso   1.00
H64    H     0.11670   0.35370   0.37800   0.01267  Uiso   1.00
C1     C     0.40850   0.92660   0.71560   0.01267  Uiso   1.00
C2     C     0.61643   0.93853   0.58046   0.01267  Uiso   1.00
C3     C     0.62965   0.95005   0.54410   0.01267  Uiso   1.00
C4     C     0.57979   0.97069   0.51258   0.01267  Uiso   1.00
C5     C     0.51691   0.97981   0.51742   0.01267  Uiso   1.00
C6     C     0.50378   0.96828   0.55376   0.01267  Uiso   1.00
C7     C     0.55354   0.94764   0.58528   0.01267  Uiso   1.00
C8     C     0.77510   0.89720   0.65860   0.01267  Uiso   1.00
C9     C     0.72552   0.92542   0.62324   0.01267  Uiso   1.00
C10    C     0.46280   0.93280   0.66600   0.01267  Uiso   1.00
C11    C     0.53674   0.93794   0.62128   0.01267  Uiso   1.00
C12    C     0.47640   0.94910   0.62740   0.01267  Uiso   1.00
C13    C     0.44056   0.97726   0.55872   0.01267  Uiso   1.00
C14    C     0.42681   0.96931   0.59562   0.01267  Uiso   1.00
C15    C     0.41548   0.94608   0.68016   0.01267  Uiso   1.00
C16    C     0.66327   0.91267   0.61054   0.01267  Uiso   1.00
C17    C     0.30710   0.78900   0.71560   0.01267  Uiso   1.00
C18    C     0.96403   0.64193   0.58046   0.01267  Uiso   1.00
C19    C     0.91445   0.59405   0.54410   0.01267  Uiso   1.00
C20    C     0.93279   0.54189   0.51258   0.01267  Uiso   1.00
C21    C     0.00051   0.53761   0.51742   0.01267  Uiso   1.00
C22    C     0.04998   0.58548   0.55376   0.01267  Uiso   1.00
C23    C     0.03174   0.63764   0.58528   0.01267  Uiso   1.00
C24    C     0.88350   0.76140   0.65860   0.01267  Uiso   1.00
C25    C     0.89772   0.69782   0.62324   0.01267  Uiso   1.00
C26    C     0.20320   0.73320   0.66600   0.01267  Uiso   1.00
C27    C     0.08454   0.68334   0.62128   0.01267  Uiso   1.00
C28    C     0.15100   0.67830   0.62740   0.01267  Uiso   1.00
C29    C     0.11816   0.58146   0.55872   0.01267  Uiso   1.00
C30    C     0.16881   0.62631   0.59562   0.01267  Uiso   1.00
C31    C     0.26468   0.73408   0.68016   0.01267  Uiso   1.00
C32    C     0.94727   0.69787   0.61054   0.01267  Uiso   1.00
C33    C     0.17660   0.05710   0.21560   0.01267  Uiso   1.00
C34    C     0.18853   0.71403   0.08046   0.01267  Uiso   1.00
C35    C     0.20005   0.66445   0.04410   0.01267  Uiso   1.00
C36    C     0.22069   0.68279   0.01258   0.01267  Uiso   1.00
C37    C     0.22981   0.75051   0.01742   0.01267  Uiso   1.00
C38    C     0.21828   0.79998   0.05376   0.01267  Uiso   1.00
C39    C     0.19764   0.78174   0.08528   0.01267  Uiso   1.00
C40    C     0.14720   0.63350   0.15860   0.01267  Uiso   1.00
C41    C     0.17542   0.64772   0.12324   0.01267  Uiso   1.00
C42    C     0.18280   0.95320   0.16600   0.01267  Uiso   1.00
C43    C     0.18794   0.83454   0.12128   0.01267  Uiso   1.00
C44    C     0.19910   0.90100   0.12740   0.01267  Uiso   1.00
C45    C     0.22726   0.86816   0.05872   0.01267  Uiso   1.00
C46    C     0.21931   0.91881   0.09562   0.01267  Uiso   1.00
C47    C     0.19608   0.01468   0.18016   0.01267  Uiso   1.00
C48    C     0.16267   0.69727   0.11054   0.01267  Uiso   1.00
C49    C     0.03900   0.15850   0.21560   0.01267  Uiso   1.00
C50    C     0.89193   0.36643   0.08046   0.01267  Uiso   1.00
C51    C     0.84405   0.37965   0.04410   0.01267  Uiso   1.00
C52    C     0.79189   0.32979   0.01258   0.01267  Uiso   1.00
C53    C     0.78761   0.26691   0.01742   0.01267  Uiso   1.00
C54    C     0.83548   0.25378   0.05376   0.01267  Uiso   1.00
C55    C     0.88764   0.30354   0.08528   0.01267  Uiso   1.00
C56    C     0.01140   0.52510   0.15860   0.01267  Uiso   1.00
C57    C     0.94782   0.47552   0.12324   0.01267  Uiso   1.00
C58    C     0.98320   0.21280   0.16600   0.01267  Uiso   1.00
C59    C     0.93334   0.28674   0.12128   0.01267  Uiso   1.00
C60    C     0.92830   0.22640   0.12740   0.01267  Uiso   1.00
C61    C     0.83146   0.19056   0.05872   0.01267  Uiso   1.00
C62    C     0.87631   0.17681   0.09562   0.01267  Uiso   1.00
C63    C     0.98408   0.16548   0.18016   0.01267  Uiso   1.00
C64    C     0.94787   0.41327   0.11054   0.01267  Uiso   1.00
C65    C     0.94290   0.82340   0.78440   0.01267  Uiso   1.00
C66    C     0.28597   0.81147   0.91954   0.01267  Uiso   1.00
C67    C     0.33555   0.79995   0.95590   0.01267  Uiso   1.00
C68    C     0.31721   0.77931   0.98742   0.01267  Uiso   1.00
C69    C     0.24949   0.77019   0.98258   0.01267  Uiso   1.00
C70    C     0.20002   0.78172   0.94624   0.01267  Uiso   1.00
C71    C     0.21826   0.80236   0.91472   0.01267  Uiso   1.00
C72    C     0.36650   0.85280   0.84140   0.01267  Uiso   1.00
C73    C     0.35228   0.82458   0.87676   0.01267  Uiso   1.00
C74    C     0.04680   0.81720   0.83400   0.01267  Uiso   1.00
C75    C     0.16546   0.81206   0.87872   0.01267  Uiso   1.00
C76    C     0.09900   0.80090   0.87260   0.01267  Uiso   1.00
C77    C     0.13184   0.77274   0.94128   0.01267  Uiso   1.00
C78    C     0.08119   0.78069   0.90438   0.01267  Uiso   1.00
C79    C     0.98532   0.80392   0.81984   0.01267  Uiso   1.00
C80    C     0.30273   0.83733   0.88946   0.01267  Uiso   1.00
C81    C     0.84150   0.96100   0.78440   0.01267  Uiso   1.00
C82    C     0.63357   0.10807   0.91954   0.01267  Uiso   1.00
C83    C     0.62035   0.15595   0.95590   0.01267  Uiso   1.00
C84    C     0.67021   0.20811   0.98742   0.01267  Uiso   1.00
C85    C     0.73309   0.21239   0.98258   0.01267  Uiso   1.00
C86    C     0.74622   0.16452   0.94624   0.01267  Uiso   1.00
C87    C     0.69646   0.11236   0.91472   0.01267  Uiso   1.00
C88    C     0.47490   0.98860   0.84140   0.01267  Uiso   1.00
C89    C     0.52448   0.05218   0.87676   0.01267  Uiso   1.00
C90    C     0.78720   0.01680   0.83400   0.01267  Uiso   1.00
C91    C     0.71326   0.06666   0.87872   0.01267  Uiso   1.00
C92    C     0.77360   0.07170   0.87260   0.01267  Uiso   1.00
C93    C     0.80944   0.16854   0.94128   0.01267  Uiso   1.00
C94    C     0.82319   0.12369   0.90438   0.01267  Uiso   1.00
C95    C     0.83452   0.01592   0.81984   0.01267  Uiso   1.00
C96    C     0.58673   0.05213   0.88946   0.01267  Uiso   1.00
C97    C     0.21100   0.69290   0.28440   0.01267  Uiso   1.00
C98    C     0.35807   0.03597   0.41954   0.01267  Uiso   1.00
C99    C     0.40595   0.08555   0.45590   0.01267  Uiso   1.00
C100   C     0.45811   0.06721   0.48742   0.01267  Uiso   1.00
C101   C     0.46239   0.99949   0.48258   0.01267  Uiso   1.00
C102   C     0.41452   0.95002   0.44624   0.01267  Uiso   1.00
C103   C     0.36236   0.96826   0.41472   0.01267  Uiso   1.00
C104   C     0.23860   0.11650   0.34140   0.01267  Uiso   1.00
C105   C     0.30218   0.10228   0.37676   0.01267  Uiso   1.00
C106   C     0.26680   0.79680   0.33400   0.01267  Uiso   1.00
C107   C     0.31666   0.91546   0.37872   0.01267  Uiso   1.00
C108   C     0.32170   0.84900   0.37260   0.01267  Uiso   1.00
C109   C     0.41854   0.88184   0.44128   0.01267  Uiso   1.00
C110   C     0.37369   0.83119   0.40438   0.01267  Uiso   1.00
C111   C     0.26592   0.73532   0.31984   0.01267  Uiso   1.00
C112   C     0.30213   0.05273   0.38946   0.01267  Uiso   1.00
C113   C     0.07340   0.59150   0.28440   0.01267  Uiso   1.00
C114   C     0.06147   0.38357   0.41954   0.01267  Uiso   1.00
C115   C     0.04995   0.37035   0.45590   0.01267  Uiso   1.00
C116   C     0.02931   0.42021   0.48742   0.01267  Uiso   1.00
C117   C     0.02019   0.48309   0.48258   0.01267  Uiso   1.00
C118   C     0.03172   0.49622   0.44624   0.01267  Uiso   1.00
C119   C     0.05236   0.44646   0.41472   0.01267  Uiso   1.00
C120   C     0.10280   0.22490   0.34140   0.01267  Uiso   1.00
C121   C     0.07458   0.27448   0.37676   0.01267  Uiso   1.00
C122   C     0.06720   0.53720   0.33400   0.01267  Uiso   1.00
C123   C     0.06206   0.46326   0.37872   0.01267  Uiso   1.00
C124   C     0.05090   0.52360   0.37260   0.01267  Uiso   1.00
C125   C     0.02274   0.55944   0.44128   0.01267  Uiso   1.00
C126   C     0.03069   0.57319   0.40438   0.01267  Uiso   1.00
C127   C     0.05392   0.58452   0.31984   0.01267  Uiso   1.00
C128   C     0.08733   0.33673   0.38946   0.01267  Uiso   1.00
O1     O     0.84014   0.92514   0.67408   0.01267  Uiso   1.00
O2     O     0.44973   0.89113   0.73586   0.01267  Uiso   1.00
O3     O     0.36064   0.94304   0.73068   0.01267  Uiso   1.00
O4     O     0.75724   0.85464   0.67028   0.01267  Uiso   1.00
O5     O     0.59602   0.98342   0.47924   0.01267  Uiso   1.00
O6     O     0.83394   0.74894   0.67408   0.01267  Uiso   1.00
O7     O     0.28613   0.84473   0.73586   0.01267  Uiso   1.00
O8     O     0.37004   0.78764   0.73068   0.01267  Uiso   1.00
O9     O     0.91304   0.81564   0.67028   0.01267  Uiso   1.00
O10    O     0.88322   0.49582   0.47924   0.01267  Uiso   1.00
O11    O     0.17514   0.58394   0.17408   0.01267  Uiso   1.00
O12    O     0.14113   0.03613   0.23586   0.01267  Uiso   1.00
O13    O     0.19304   0.12004   0.23068   0.01267  Uiso   1.00
O14    O     0.10464   0.66304   0.17028   0.01267  Uiso   1.00
O15    O     0.23342   0.63322   0.97924   0.01267  Uiso   1.00
O16    O     0.99894   0.59014   0.17408   0.01267  Uiso   1.00
O17    O     0.09473   0.19973   0.23586   0.01267  Uiso   1.00
O18    O     0.03764   0.11064   0.23068   0.01267  Uiso   1.00
O19    O     0.06564   0.50724   0.17028   0.01267  Uiso   1.00
O20    O     0.74582   0.34602   0.97924   0.01267  Uiso   1.00
O21    O     0.41606   0.82486   0.82592   0.01267  Uiso   1.00
O22    O     0.96387   0.85887   0.76414   0.01267  Uiso   1.00
O23    O     0.87996   0.80696   0.76932   0.01267  Uiso   1.00
O24    O     0.33696   0.89536   0.82972   0.01267  Uiso   1.00
O25    O     0.36678   0.76658   0.02076   0.01267  Uiso   1.00
O26    O     0.40986   0.00106   0.82592   0.01267  Uiso   1.00
O27    O     0.80027   0.90527   0.76414   0.01267  Uiso   1.00
O28    O     0.88936   0.96236   0.76932   0.01267  Uiso   1.00
O29    O     0.49276   0.93436   0.82972   0.01267  Uiso   1.00
O30    O     0.65398   0.25418   0.02076   0.01267  Uiso   1.00
O31    O     0.25106   0.16606   0.32592   0.01267  Uiso   1.00
O32    O     0.15527   0.71387   0.26414   0.01267  Uiso   1.00
O33    O     0.21236   0.62996   0.26932   0.01267  Uiso   1.00
O34    O     0.18436   0.08696   0.32972   0.01267  Uiso   1.00
O35    O     0.50418   0.11678   0.52076   0.01267  Uiso   1.00
O36    O     0.07486   0.15986   0.32592   0.01267  Uiso   1.00
O37    O     0.10887   0.55027   0.26414   0.01267  Uiso   1.00
O38    O     0.05696   0.63936   0.26932   0.01267  Uiso   1.00
O39    O     0.14536   0.24276   0.32972   0.01267  Uiso   1.00
O40    O     0.01658   0.40398   0.52076   0.01267  Uiso   1.00
