data_XAHPON_clean
_audit_creation_date              2014-07-02
_audit_creation_method            'Materials Studio'
_symmetry_space_group_name_H-M    'P1'
_symmetry_Int_Tables_number       1
_symmetry_cell_setting            triclinic
loop_
_symmetry_equiv_pos_as_xyz
  x,y,z
_cell_length_a                    23.8490
_cell_length_b                    23.8490
_cell_length_c                    40.2574
_cell_angle_alpha                 107.2300
_cell_angle_beta                  107.2300
_cell_angle_gamma                 90.0002
loop_
_atom_site_label
_atom_site_type_symbol
_atom_site_fract_x
_atom_site_fract_y
_atom_site_fract_z
_atom_site_U_iso_or_equiv
_atom_site_adp_type
_atom_site_occupancy
Cu1    Cu    0.90192   0.90431   0.72870   0.01267  Uiso   1.00
Cu2    Cu    0.82678   0.82439   0.72870   0.01267  Uiso   1.00
Cu3    Cu    0.15431   0.57678   0.22870   0.01267  Uiso   1.00
Cu4    Cu    0.07439   0.65192   0.22870   0.01267  Uiso   1.00
Cu5    Cu    0.42322   0.84569   0.77130   0.01267  Uiso   1.00
Cu6    Cu    0.34808   0.92561   0.77130   0.01267  Uiso   1.00
Cu7    Cu    0.17561   0.17322   0.27130   0.01267  Uiso   1.00
Cu8    Cu    0.09569   0.09808   0.27130   0.01267  Uiso   1.00
H1     H     0.23640   0.62690   0.63600   0.01267  Uiso   1.00
H2     H     0.31000   0.69000   0.68520   0.01267  Uiso   1.00
H3     H     0.20070   0.81920   0.69040   0.01267  Uiso   1.00
H4     H     0.12710   0.75610   0.64120   0.01267  Uiso   1.00
H5     H     0.89550   0.60040   0.60840   0.01267  Uiso   1.00
H6     H     0.86800   0.67040   0.65360   0.01267  Uiso   1.00
H7     H     0.95990   0.79900   0.63960   0.01267  Uiso   1.00
H8     H     0.98750   0.72910   0.59460   0.01267  Uiso   1.00
H9     H     0.88230   0.57880   0.54080   0.01267  Uiso   1.00
H10    H     0.18510   0.60100   0.57760   0.01267  Uiso   1.00
H11    H     0.11160   0.53700   0.52960   0.01267  Uiso   1.00
H12    H     0.05920   0.67810   0.61920   0.01267  Uiso   1.00
H13    H     0.91200   0.47080   0.47420   0.01267  Uiso   1.00
H14    H     0.39960   0.00910   0.63600   0.01267  Uiso   1.00
H15    H     0.37520   0.99520   0.68520   0.01267  Uiso   1.00
H16    H     0.48970   0.87120   0.69040   0.01267  Uiso   1.00
H17    H     0.51410   0.88510   0.64120   0.01267  Uiso   1.00
H18    H     0.71290   0.00800   0.60840   0.01267  Uiso   1.00
H19    H     0.78560   0.98320   0.65360   0.01267  Uiso   1.00
H20    H     0.67970   0.84060   0.63960   0.01267  Uiso   1.00
H21    H     0.60710   0.86550   0.59460   0.01267  Uiso   1.00
H22    H     0.65850   0.96200   0.54080   0.01267  Uiso   1.00
H23    H     0.39250   0.97660   0.57760   0.01267  Uiso   1.00
H24    H     0.41800   0.99260   0.52960   0.01267  Uiso   1.00
H25    H     0.56000   0.94110   0.61920   0.01267  Uiso   1.00
H26    H     0.56220   0.00340   0.47420   0.01267  Uiso   1.00
H27    H     0.87690   0.14960   0.13600   0.01267  Uiso   1.00
H28    H     0.94000   0.12520   0.18520   0.01267  Uiso   1.00
H29    H     0.06920   0.23970   0.19040   0.01267  Uiso   1.00
H30    H     0.00610   0.26410   0.14120   0.01267  Uiso   1.00
H31    H     0.85040   0.46290   0.10840   0.01267  Uiso   1.00
H32    H     0.92040   0.53560   0.15360   0.01267  Uiso   1.00
H33    H     0.04900   0.42970   0.13960   0.01267  Uiso   1.00
H34    H     0.97910   0.35710   0.09460   0.01267  Uiso   1.00
H35    H     0.82880   0.40850   0.04080   0.01267  Uiso   1.00
H36    H     0.85100   0.14250   0.07760   0.01267  Uiso   1.00
H37    H     0.78700   0.16800   0.02960   0.01267  Uiso   1.00
H38    H     0.92810   0.31000   0.11920   0.01267  Uiso   1.00
H39    H     0.72080   0.31220   0.97420   0.01267  Uiso   1.00
H40    H     0.25910   0.98640   0.13600   0.01267  Uiso   1.00
H41    H     0.24520   0.06000   0.18520   0.01267  Uiso   1.00
H42    H     0.12120   0.95070   0.19040   0.01267  Uiso   1.00
H43    H     0.13510   0.87710   0.14120   0.01267  Uiso   1.00
H44    H     0.25800   0.64550   0.10840   0.01267  Uiso   1.00
H45    H     0.23320   0.61800   0.15360   0.01267  Uiso   1.00
H46    H     0.09060   0.70990   0.13960   0.01267  Uiso   1.00
H47    H     0.11550   0.73750   0.09460   0.01267  Uiso   1.00
H48    H     0.21200   0.63230   0.04080   0.01267  Uiso   1.00
H49    H     0.22660   0.93510   0.07760   0.01267  Uiso   1.00
H50    H     0.24260   0.86160   0.02960   0.01267  Uiso   1.00
H51    H     0.19110   0.80920   0.11920   0.01267  Uiso   1.00
H52    H     0.25340   0.66200   0.97420   0.01267  Uiso   1.00
H53    H     0.85040   0.12310   0.86400   0.01267  Uiso   1.00
H54    H     0.87480   0.06000   0.81480   0.01267  Uiso   1.00
H55    H     0.76030   0.93080   0.80960   0.01267  Uiso   1.00
H56    H     0.73590   0.99390   0.85880   0.01267  Uiso   1.00
H57    H     0.53710   0.14960   0.89160   0.01267  Uiso   1.00
H58    H     0.46440   0.07960   0.84640   0.01267  Uiso   1.00
H59    H     0.57030   0.95100   0.86040   0.01267  Uiso   1.00
H60    H     0.64290   0.02090   0.90540   0.01267  Uiso   1.00
H61    H     0.59150   0.17120   0.95920   0.01267  Uiso   1.00
H62    H     0.85750   0.14900   0.92240   0.01267  Uiso   1.00
H63    H     0.83200   0.21300   0.97040   0.01267  Uiso   1.00
H64    H     0.69000   0.07190   0.88080   0.01267  Uiso   1.00
H65    H     0.68780   0.27920   0.02580   0.01267  Uiso   1.00
H66    H     0.01360   0.74090   0.86400   0.01267  Uiso   1.00
H67    H     0.94000   0.75480   0.81480   0.01267  Uiso   1.00
H68    H     0.04930   0.87880   0.80960   0.01267  Uiso   1.00
H69    H     0.12290   0.86490   0.85880   0.01267  Uiso   1.00
H70    H     0.35450   0.74200   0.89160   0.01267  Uiso   1.00
H71    H     0.38200   0.76680   0.84640   0.01267  Uiso   1.00
H72    H     0.29010   0.90940   0.86040   0.01267  Uiso   1.00
H73    H     0.26250   0.88450   0.90540   0.01267  Uiso   1.00
H74    H     0.36770   0.78800   0.95920   0.01267  Uiso   1.00
H75    H     0.06490   0.77340   0.92240   0.01267  Uiso   1.00
H76    H     0.13840   0.75740   0.97040   0.01267  Uiso   1.00
H77    H     0.19080   0.80890   0.88080   0.01267  Uiso   1.00
H78    H     0.33800   0.74660   0.02580   0.01267  Uiso   1.00
H79    H     0.99090   0.60040   0.36400   0.01267  Uiso   1.00
H80    H     0.00480   0.62480   0.31480   0.01267  Uiso   1.00
H81    H     0.12880   0.51030   0.30960   0.01267  Uiso   1.00
H82    H     0.11490   0.48590   0.35880   0.01267  Uiso   1.00
H83    H     0.99200   0.28710   0.39160   0.01267  Uiso   1.00
H84    H     0.01680   0.21440   0.34640   0.01267  Uiso   1.00
H85    H     0.15940   0.32030   0.36040   0.01267  Uiso   1.00
H86    H     0.13450   0.39290   0.40540   0.01267  Uiso   1.00
H87    H     0.03800   0.34150   0.45920   0.01267  Uiso   1.00
H88    H     0.02340   0.60750   0.42240   0.01267  Uiso   1.00
H89    H     0.00740   0.58200   0.47040   0.01267  Uiso   1.00
H90    H     0.05890   0.44000   0.38080   0.01267  Uiso   1.00
H91    H     0.99660   0.43780   0.52580   0.01267  Uiso   1.00
H92    H     0.37310   0.76360   0.36400   0.01267  Uiso   1.00
H93    H     0.31000   0.69000   0.31480   0.01267  Uiso   1.00
H94    H     0.18080   0.79930   0.30960   0.01267  Uiso   1.00
H95    H     0.24390   0.87290   0.35880   0.01267  Uiso   1.00
H96    H     0.39960   0.10450   0.39160   0.01267  Uiso   1.00
H97    H     0.32960   0.13200   0.34640   0.01267  Uiso   1.00
H98    H     0.20100   0.04010   0.36040   0.01267  Uiso   1.00
H99    H     0.27090   0.01250   0.40540   0.01267  Uiso   1.00
H100   H     0.42120   0.11770   0.45920   0.01267  Uiso   1.00
H101   H     0.39900   0.81490   0.42240   0.01267  Uiso   1.00
H102   H     0.46300   0.88840   0.47040   0.01267  Uiso   1.00
H103   H     0.32190   0.94080   0.38080   0.01267  Uiso   1.00
H104   H     0.52920   0.08800   0.52580   0.01267  Uiso   1.00
C1     C     0.89860   0.78960   0.67900   0.01267  Uiso   1.00
C2     C     0.17464   0.68544   0.63388   0.01267  Uiso   1.00
C3     C     0.22918   0.66568   0.64696   0.01267  Uiso   1.00
C4     C     0.27303   0.70333   0.67626   0.01267  Uiso   1.00
C5     C     0.26233   0.76063   0.69246   0.01267  Uiso   1.00
C6     C     0.20789   0.78039   0.67938   0.01267  Uiso   1.00
C7     C     0.16404   0.74284   0.65008   0.01267  Uiso   1.00
C8     C     0.94418   0.65798   0.59716   0.01267  Uiso   1.00
C9     C     0.90848   0.64048   0.61476   0.01267  Uiso   1.00
C10    C     0.89204   0.68224   0.64168   0.01267  Uiso   1.00
C11    C     0.91129   0.74149   0.65098   0.01267  Uiso   1.00
C12    C     0.94689   0.75899   0.63338   0.01267  Uiso   1.00
C13    C     0.96333   0.71723   0.60646   0.01267  Uiso   1.00
C14    C     0.96595   0.61425   0.57070   0.01267  Uiso   1.00
C15    C     0.02474   0.61034   0.57208   0.01267  Uiso   1.00
C16    C     0.03957   0.56837   0.54454   0.01267  Uiso   1.00
C17    C     0.99560   0.53020   0.51560   0.01267  Uiso   1.00
C18    C     0.93681   0.53411   0.51422   0.01267  Uiso   1.00
C19    C     0.92198   0.57618   0.54176   0.01267  Uiso   1.00
C20    C     0.12846   0.64486   0.60292   0.01267  Uiso   1.00
C21    C     0.14530   0.60350   0.57640   0.01267  Uiso   1.00
C22    C     0.30760   0.80310   0.72140   0.01267  Uiso   1.00
C23    C     0.10089   0.56569   0.54778   0.01267  Uiso   1.00
C24    C     0.06934   0.64894   0.60088   0.01267  Uiso   1.00
C25    C     0.78040   0.88940   0.67900   0.01267  Uiso   1.00
C26    C     0.45924   0.94844   0.63388   0.01267  Uiso   1.00
C27    C     0.41778   0.98128   0.64696   0.01267  Uiso   1.00
C28    C     0.40323   0.97293   0.67626   0.01267  Uiso   1.00
C29    C     0.43013   0.93183   0.69246   0.01267  Uiso   1.00
C30    C     0.47149   0.89899   0.67938   0.01267  Uiso   1.00
C31    C     0.48604   0.90724   0.65008   0.01267  Uiso   1.00
C32    C     0.65298   0.93918   0.59716   0.01267  Uiso   1.00
C33    C     0.70628   0.97428   0.61476   0.01267  Uiso   1.00
C34    C     0.74964   0.95944   0.64168   0.01267  Uiso   1.00
C35    C     0.73969   0.90949   0.65098   0.01267  Uiso   1.00
C36    C     0.68649   0.87439   0.63338   0.01267  Uiso   1.00
C37    C     0.64313   0.88923   0.60646   0.01267  Uiso   1.00
C38    C     0.60475   0.95645   0.57070   0.01267  Uiso   1.00
C39    C     0.54734   0.96174   0.57208   0.01267  Uiso   1.00
C40    C     0.50497   0.97617   0.54454   0.01267  Uiso   1.00
C41    C     0.52000   0.98540   0.51560   0.01267  Uiso   1.00
C42    C     0.57741   0.98011   0.51422   0.01267  Uiso   1.00
C43    C     0.61978   0.96558   0.54176   0.01267  Uiso   1.00
C44    C     0.47446   0.95806   0.60292   0.01267  Uiso   1.00
C45    C     0.43110   0.97290   0.57640   0.01267  Uiso   1.00
C46    C     0.41380   0.91830   0.72140   0.01267  Uiso   1.00
C47    C     0.44689   0.98209   0.54778   0.01267  Uiso   1.00
C48    C     0.53154   0.95194   0.60088   0.01267  Uiso   1.00
C49    C     0.03960   0.53040   0.17900   0.01267  Uiso   1.00
C50    C     0.93544   0.20924   0.13388   0.01267  Uiso   1.00
C51    C     0.91568   0.16778   0.14696   0.01267  Uiso   1.00
C52    C     0.95333   0.15323   0.17626   0.01267  Uiso   1.00
C53    C     0.01063   0.18013   0.19246   0.01267  Uiso   1.00
C54    C     0.03039   0.22149   0.17938   0.01267  Uiso   1.00
C55    C     0.99284   0.23604   0.15008   0.01267  Uiso   1.00
C56    C     0.90798   0.40298   0.09716   0.01267  Uiso   1.00
C57    C     0.89048   0.45628   0.11476   0.01267  Uiso   1.00
C58    C     0.93224   0.49964   0.14168   0.01267  Uiso   1.00
C59    C     0.99149   0.48969   0.15098   0.01267  Uiso   1.00
C60    C     0.00899   0.43649   0.13338   0.01267  Uiso   1.00
C61    C     0.96723   0.39313   0.10646   0.01267  Uiso   1.00
C62    C     0.86425   0.35475   0.07070   0.01267  Uiso   1.00
C63    C     0.86034   0.29734   0.07208   0.01267  Uiso   1.00
C64    C     0.81837   0.25497   0.04454   0.01267  Uiso   1.00
C65    C     0.78020   0.27000   0.01560   0.01267  Uiso   1.00
C66    C     0.78411   0.32741   0.01422   0.01267  Uiso   1.00
C67    C     0.82618   0.36978   0.04176   0.01267  Uiso   1.00
C68    C     0.89486   0.22446   0.10292   0.01267  Uiso   1.00
C69    C     0.85350   0.18110   0.07640   0.01267  Uiso   1.00
C70    C     0.05310   0.16380   0.22140   0.01267  Uiso   1.00
C71    C     0.81569   0.19689   0.04778   0.01267  Uiso   1.00
C72    C     0.89894   0.28154   0.10088   0.01267  Uiso   1.00
C73    C     0.13940   0.64860   0.17900   0.01267  Uiso   1.00
C74    C     0.19844   0.92464   0.13388   0.01267  Uiso   1.00
C75    C     0.23128   0.97918   0.14696   0.01267  Uiso   1.00
C76    C     0.22293   0.02303   0.17626   0.01267  Uiso   1.00
C77    C     0.18183   0.01233   0.19246   0.01267  Uiso   1.00
C78    C     0.14899   0.95789   0.17938   0.01267  Uiso   1.00
C79    C     0.15724   0.91404   0.15008   0.01267  Uiso   1.00
C80    C     0.18918   0.69418   0.09716   0.01267  Uiso   1.00
C81    C     0.22428   0.65848   0.11476   0.01267  Uiso   1.00
C82    C     0.20944   0.64204   0.14168   0.01267  Uiso   1.00
C83    C     0.15949   0.66129   0.15098   0.01267  Uiso   1.00
C84    C     0.12439   0.69689   0.13338   0.01267  Uiso   1.00
C85    C     0.13923   0.71333   0.10646   0.01267  Uiso   1.00
C86    C     0.20645   0.71595   0.07070   0.01267  Uiso   1.00
C87    C     0.21174   0.77474   0.07208   0.01267  Uiso   1.00
C88    C     0.22617   0.78957   0.04454   0.01267  Uiso   1.00
C89    C     0.23540   0.74560   0.01560   0.01267  Uiso   1.00
C90    C     0.23011   0.68681   0.01422   0.01267  Uiso   1.00
C91    C     0.21558   0.67198   0.04176   0.01267  Uiso   1.00
C92    C     0.20806   0.87846   0.10292   0.01267  Uiso   1.00
C93    C     0.22290   0.89530   0.07640   0.01267  Uiso   1.00
C94    C     0.16830   0.05760   0.22140   0.01267  Uiso   1.00
C95    C     0.23209   0.85089   0.04778   0.01267  Uiso   1.00
C96    C     0.20194   0.81934   0.10088   0.01267  Uiso   1.00
C97    C     0.46960   0.96040   0.82100   0.01267  Uiso   1.00
C98    C     0.79076   0.06456   0.86612   0.01267  Uiso   1.00
C99    C     0.83222   0.08432   0.85304   0.01267  Uiso   1.00
C100   C     0.84677   0.04667   0.82374   0.01267  Uiso   1.00
C101   C     0.81987   0.98937   0.80754   0.01267  Uiso   1.00
C102   C     0.77851   0.96961   0.82062   0.01267  Uiso   1.00
C103   C     0.76396   0.00716   0.84992   0.01267  Uiso   1.00
C104   C     0.59702   0.09202   0.90284   0.01267  Uiso   1.00
C105   C     0.54372   0.10952   0.88524   0.01267  Uiso   1.00
C106   C     0.50036   0.06776   0.85832   0.01267  Uiso   1.00
C107   C     0.51031   0.00851   0.84902   0.01267  Uiso   1.00
C108   C     0.56351   0.99101   0.86662   0.01267  Uiso   1.00
C109   C     0.60687   0.03277   0.89354   0.01267  Uiso   1.00
C110   C     0.64525   0.13575   0.92930   0.01267  Uiso   1.00
C111   C     0.70266   0.13966   0.92792   0.01267  Uiso   1.00
C112   C     0.74503   0.18163   0.95546   0.01267  Uiso   1.00
C113   C     0.73000   0.21980   0.98440   0.01267  Uiso   1.00
C114   C     0.67259   0.21589   0.98578   0.01267  Uiso   1.00
C115   C     0.63022   0.17382   0.95824   0.01267  Uiso   1.00
C116   C     0.77554   0.10514   0.89708   0.01267  Uiso   1.00
C117   C     0.81890   0.14650   0.92360   0.01267  Uiso   1.00
C118   C     0.83620   0.94690   0.77860   0.01267  Uiso   1.00
C119   C     0.80311   0.18431   0.95222   0.01267  Uiso   1.00
C120   C     0.71846   0.10106   0.89912   0.01267  Uiso   1.00
C121   C     0.35140   0.86060   0.82100   0.01267  Uiso   1.00
C122   C     0.07536   0.80156   0.86612   0.01267  Uiso   1.00
C123   C     0.02082   0.76872   0.85304   0.01267  Uiso   1.00
C124   C     0.97697   0.77707   0.82374   0.01267  Uiso   1.00
C125   C     0.98767   0.81817   0.80754   0.01267  Uiso   1.00
C126   C     0.04211   0.85101   0.82062   0.01267  Uiso   1.00
C127   C     0.08596   0.84276   0.84992   0.01267  Uiso   1.00
C128   C     0.30582   0.81082   0.90284   0.01267  Uiso   1.00
C129   C     0.34152   0.77572   0.88524   0.01267  Uiso   1.00
C130   C     0.35796   0.79056   0.85832   0.01267  Uiso   1.00
C131   C     0.33871   0.84051   0.84902   0.01267  Uiso   1.00
C132   C     0.30311   0.87561   0.86662   0.01267  Uiso   1.00
C133   C     0.28667   0.86077   0.89354   0.01267  Uiso   1.00
C134   C     0.28405   0.79355   0.92930   0.01267  Uiso   1.00
C135   C     0.22526   0.78826   0.92792   0.01267  Uiso   1.00
C136   C     0.21043   0.77383   0.95546   0.01267  Uiso   1.00
C137   C     0.25440   0.76460   0.98440   0.01267  Uiso   1.00
C138   C     0.31319   0.76989   0.98578   0.01267  Uiso   1.00
C139   C     0.32802   0.78442   0.95824   0.01267  Uiso   1.00
C140   C     0.12154   0.79194   0.89708   0.01267  Uiso   1.00
C141   C     0.10470   0.77710   0.92360   0.01267  Uiso   1.00
C142   C     0.94240   0.83170   0.77860   0.01267  Uiso   1.00
C143   C     0.14911   0.76791   0.95222   0.01267  Uiso   1.00
C144   C     0.18066   0.79806   0.89912   0.01267  Uiso   1.00
C145   C     0.11060   0.21960   0.32100   0.01267  Uiso   1.00
C146   C     0.05156   0.54076   0.36612   0.01267  Uiso   1.00
C147   C     0.01872   0.58222   0.35304   0.01267  Uiso   1.00
C148   C     0.02707   0.59677   0.32374   0.01267  Uiso   1.00
C149   C     0.06817   0.56987   0.30754   0.01267  Uiso   1.00
C150   C     0.10101   0.52851   0.32062   0.01267  Uiso   1.00
C151   C     0.09276   0.51396   0.34992   0.01267  Uiso   1.00
C152   C     0.06082   0.34702   0.40284   0.01267  Uiso   1.00
C153   C     0.02572   0.29372   0.38524   0.01267  Uiso   1.00
C154   C     0.04056   0.25036   0.35832   0.01267  Uiso   1.00
C155   C     0.09051   0.26031   0.34902   0.01267  Uiso   1.00
C156   C     0.12561   0.31351   0.36662   0.01267  Uiso   1.00
C157   C     0.11077   0.35687   0.39354   0.01267  Uiso   1.00
C158   C     0.04355   0.39525   0.42930   0.01267  Uiso   1.00
C159   C     0.03826   0.45266   0.42792   0.01267  Uiso   1.00
C160   C     0.02383   0.49503   0.45546   0.01267  Uiso   1.00
C161   C     0.01460   0.48000   0.48440   0.01267  Uiso   1.00
C162   C     0.01989   0.42259   0.48578   0.01267  Uiso   1.00
C163   C     0.03442   0.38022   0.45824   0.01267  Uiso   1.00
C164   C     0.04194   0.52554   0.39708   0.01267  Uiso   1.00
C165   C     0.02710   0.56890   0.42360   0.01267  Uiso   1.00
C166   C     0.08170   0.58620   0.27860   0.01267  Uiso   1.00
C167   C     0.01791   0.55311   0.45222   0.01267  Uiso   1.00
C168   C     0.04806   0.46846   0.39912   0.01267  Uiso   1.00
C169   C     0.21040   0.10140   0.32100   0.01267  Uiso   1.00
C170   C     0.31456   0.82536   0.36612   0.01267  Uiso   1.00
C171   C     0.33432   0.77082   0.35304   0.01267  Uiso   1.00
C172   C     0.29667   0.72697   0.32374   0.01267  Uiso   1.00
C173   C     0.23937   0.73767   0.30754   0.01267  Uiso   1.00
C174   C     0.21961   0.79211   0.32062   0.01267  Uiso   1.00
C175   C     0.25716   0.83596   0.34992   0.01267  Uiso   1.00
C176   C     0.34202   0.05582   0.40284   0.01267  Uiso   1.00
C177   C     0.35952   0.09152   0.38524   0.01267  Uiso   1.00
C178   C     0.31776   0.10796   0.35832   0.01267  Uiso   1.00
C179   C     0.25851   0.08871   0.34902   0.01267  Uiso   1.00
C180   C     0.24101   0.05311   0.36662   0.01267  Uiso   1.00
C181   C     0.28277   0.03667   0.39354   0.01267  Uiso   1.00
C182   C     0.38575   0.03405   0.42930   0.01267  Uiso   1.00
C183   C     0.38966   0.97526   0.42792   0.01267  Uiso   1.00
C184   C     0.43163   0.96043   0.45546   0.01267  Uiso   1.00
C185   C     0.46980   0.00440   0.48440   0.01267  Uiso   1.00
C186   C     0.46589   0.06319   0.48578   0.01267  Uiso   1.00
C187   C     0.42382   0.07802   0.45824   0.01267  Uiso   1.00
C188   C     0.35514   0.87154   0.39708   0.01267  Uiso   1.00
C189   C     0.39650   0.85470   0.42360   0.01267  Uiso   1.00
C190   C     0.19690   0.69240   0.27860   0.01267  Uiso   1.00
C191   C     0.43431   0.89911   0.45222   0.01267  Uiso   1.00
C192   C     0.35106   0.93066   0.39912   0.01267  Uiso   1.00
O1     O     0.91794   0.84144   0.69048   0.01267  Uiso   1.00
O2     O     0.35952   0.79722   0.73264   0.01267  Uiso   1.00
O3     O     0.29334   0.86284   0.73468   0.01267  Uiso   1.00
O4     O     0.85861   0.77041   0.69362   0.01267  Uiso   1.00
O5     O     0.89570   0.49560   0.48660   0.01267  Uiso   1.00
O6     O     0.77254   0.84904   0.69048   0.01267  Uiso   1.00
O7     O     0.37312   0.93542   0.73264   0.01267  Uiso   1.00
O8     O     0.44134   0.87184   0.73468   0.01267  Uiso   1.00
O9     O     0.83501   0.92321   0.69362   0.01267  Uiso   1.00
O10    O     0.59090   0.99100   0.48660   0.01267  Uiso   1.00
O11    O     0.09144   0.52254   0.19048   0.01267  Uiso   1.00
O12    O     0.04722   0.12312   0.23264   0.01267  Uiso   1.00
O13    O     0.11284   0.19134   0.23468   0.01267  Uiso   1.00
O14    O     0.02041   0.58501   0.19362   0.01267  Uiso   1.00
O15    O     0.74560   0.34090   0.98660   0.01267  Uiso   1.00
O16    O     0.09904   0.66794   0.19048   0.01267  Uiso   1.00
O17    O     0.18542   0.10952   0.23264   0.01267  Uiso   1.00
O18    O     0.12184   0.04334   0.23468   0.01267  Uiso   1.00
O19    O     0.17321   0.60861   0.19362   0.01267  Uiso   1.00
O20    O     0.24100   0.64570   0.98660   0.01267  Uiso   1.00
O21    O     0.47746   0.90856   0.80952   0.01267  Uiso   1.00
O22    O     0.87688   0.95278   0.76736   0.01267  Uiso   1.00
O23    O     0.80866   0.88716   0.76532   0.01267  Uiso   1.00
O24    O     0.41499   0.97959   0.80638   0.01267  Uiso   1.00
O25    O     0.65910   0.25440   0.01340   0.01267  Uiso   1.00
O26    O     0.33206   0.90096   0.80952   0.01267  Uiso   1.00
O27    O     0.89048   0.81458   0.76736   0.01267  Uiso   1.00
O28    O     0.95666   0.87816   0.76532   0.01267  Uiso   1.00
O29    O     0.39139   0.82679   0.80638   0.01267  Uiso   1.00
O30    O     0.35430   0.75900   0.01340   0.01267  Uiso   1.00
O31    O     0.15096   0.22746   0.30952   0.01267  Uiso   1.00
O32    O     0.06458   0.62688   0.26736   0.01267  Uiso   1.00
O33    O     0.12816   0.55866   0.26532   0.01267  Uiso   1.00
O34    O     0.07679   0.16499   0.30638   0.01267  Uiso   1.00
O35    O     0.00900   0.40910   0.51340   0.01267  Uiso   1.00
O36    O     0.15856   0.08206   0.30952   0.01267  Uiso   1.00
O37    O     0.20278   0.64048   0.26736   0.01267  Uiso   1.00
O38    O     0.13716   0.70666   0.26532   0.01267  Uiso   1.00
O39    O     0.22959   0.14139   0.30638   0.01267  Uiso   1.00
O40    O     0.50440   0.10430   0.51340   0.01267  Uiso   1.00
