data_XAHPED_clean
_audit_creation_date              2014-07-02
_audit_creation_method            'Materials Studio'
_symmetry_space_group_name_H-M    'P1'
_symmetry_Int_Tables_number       1
_symmetry_cell_setting            triclinic
loop_
_symmetry_equiv_pos_as_xyz
  x,y,z
_cell_length_a                    21.4169
_cell_length_b                    21.4169
_cell_length_c                    32.5729
_cell_angle_alpha                 109.1930
_cell_angle_beta                  109.1930
_cell_angle_gamma                 90.0001
loop_
_atom_site_label
_atom_site_type_symbol
_atom_site_fract_x
_atom_site_fract_y
_atom_site_fract_z
_atom_site_U_iso_or_equiv
_atom_site_adp_type
_atom_site_occupancy
Cu1    Cu    0.84169   0.42698   0.78242   0.01267  Uiso   1.00
Cu2    Cu    0.94073   0.35544   0.78242   0.01267  Uiso   1.00
Cu3    Cu    0.67698   0.69073   0.28242   0.01267  Uiso   1.00
Cu4    Cu    0.60544   0.59169   0.28242   0.01267  Uiso   1.00
Cu5    Cu    0.30927   0.32302   0.71758   0.01267  Uiso   1.00
Cu6    Cu    0.40831   0.39456   0.71758   0.01267  Uiso   1.00
Cu7    Cu    0.64456   0.05927   0.21758   0.01267  Uiso   1.00
Cu8    Cu    0.57302   0.15831   0.21758   0.01267  Uiso   1.00
H1     H     0.08010   0.65410   0.95660   0.01267  Uiso   1.00
H2     H     0.34210   0.69670   0.96180   0.01267  Uiso   1.00
H3     H     0.36590   0.62050   0.90200   0.01267  Uiso   1.00
H4     H     0.17860   0.52520   0.85680   0.01267  Uiso   1.00
H5     H     0.09550   0.51010   0.87360   0.01267  Uiso   1.00
H6     H     0.00210   0.59270   0.88960   0.01267  Uiso   1.00
H7     H     0.25110   0.47710   0.81680   0.01267  Uiso   1.00
H8     H     0.36770   0.54810   0.83420   0.01267  Uiso   1.00
H9     H     0.06630   0.77040   0.99080   0.01267  Uiso   1.00
H10    H     0.07420   0.73030   0.02520   0.01267  Uiso   1.00
H11    H     0.14340   0.85080   0.07280   0.01267  Uiso   1.00
H12    H     0.08310   0.82000   0.08080   0.01267  Uiso   1.00
H13    H     0.06940   0.85900   0.04560   0.01267  Uiso   1.00
H14    H     0.87650   0.30250   0.95660   0.01267  Uiso   1.00
H15    H     0.61970   0.26510   0.96180   0.01267  Uiso   1.00
H16    H     0.53610   0.28150   0.90200   0.01267  Uiso   1.00
H17    H     0.67820   0.33160   0.85680   0.01267  Uiso   1.00
H18    H     0.77810   0.36350   0.87360   0.01267  Uiso   1.00
H19    H     0.88750   0.29690   0.88960   0.01267  Uiso   1.00
H20    H     0.56570   0.33970   0.81680   0.01267  Uiso   1.00
H21    H     0.46650   0.28610   0.83420   0.01267  Uiso   1.00
H22    H     0.92450   0.22040   0.99080   0.01267  Uiso   1.00
H23    H     0.95100   0.29490   0.02520   0.01267  Uiso   1.00
H24    H     0.92940   0.22200   0.07280   0.01267  Uiso   1.00
H25    H     0.99770   0.26080   0.08080   0.01267  Uiso   1.00
H26    H     0.97620   0.18660   0.04560   0.01267  Uiso   1.00
H27    H     0.90410   0.62650   0.45660   0.01267  Uiso   1.00
H28    H     0.94670   0.36970   0.46180   0.01267  Uiso   1.00
H29    H     0.87050   0.28610   0.40200   0.01267  Uiso   1.00
H30    H     0.77520   0.42820   0.35680   0.01267  Uiso   1.00
H31    H     0.76010   0.52810   0.37360   0.01267  Uiso   1.00
H32    H     0.84270   0.63750   0.38960   0.01267  Uiso   1.00
H33    H     0.72710   0.31570   0.31680   0.01267  Uiso   1.00
H34    H     0.79810   0.21650   0.33420   0.01267  Uiso   1.00
H35    H     0.02040   0.67450   0.49080   0.01267  Uiso   1.00
H36    H     0.98030   0.70100   0.52520   0.01267  Uiso   1.00
H37    H     0.10080   0.67940   0.57280   0.01267  Uiso   1.00
H38    H     0.07000   0.74770   0.58080   0.01267  Uiso   1.00
H39    H     0.10900   0.72620   0.54560   0.01267  Uiso   1.00
H40    H     0.55250   0.83010   0.45660   0.01267  Uiso   1.00
H41    H     0.51510   0.09210   0.46180   0.01267  Uiso   1.00
H42    H     0.53150   0.11590   0.40200   0.01267  Uiso   1.00
H43    H     0.58160   0.92860   0.35680   0.01267  Uiso   1.00
H44    H     0.61350   0.84550   0.37360   0.01267  Uiso   1.00
H45    H     0.54690   0.75210   0.38960   0.01267  Uiso   1.00
H46    H     0.58970   0.00110   0.31680   0.01267  Uiso   1.00
H47    H     0.53610   0.11770   0.33420   0.01267  Uiso   1.00
H48    H     0.47040   0.81630   0.49080   0.01267  Uiso   1.00
H49    H     0.54490   0.82420   0.52520   0.01267  Uiso   1.00
H50    H     0.47200   0.89340   0.57280   0.01267  Uiso   1.00
H51    H     0.51080   0.83310   0.58080   0.01267  Uiso   1.00
H52    H     0.43660   0.81940   0.54560   0.01267  Uiso   1.00
H53    H     0.37350   0.09590   0.54340   0.01267  Uiso   1.00
H54    H     0.63030   0.05330   0.53820   0.01267  Uiso   1.00
H55    H     0.71390   0.12950   0.59800   0.01267  Uiso   1.00
H56    H     0.57180   0.22480   0.64320   0.01267  Uiso   1.00
H57    H     0.47190   0.23990   0.62640   0.01267  Uiso   1.00
H58    H     0.36250   0.15730   0.61040   0.01267  Uiso   1.00
H59    H     0.68430   0.27290   0.68320   0.01267  Uiso   1.00
H60    H     0.78350   0.20190   0.66580   0.01267  Uiso   1.00
H61    H     0.32550   0.97960   0.50920   0.01267  Uiso   1.00
H62    H     0.29900   0.01970   0.47480   0.01267  Uiso   1.00
H63    H     0.32060   0.89920   0.42720   0.01267  Uiso   1.00
H64    H     0.25230   0.93000   0.41920   0.01267  Uiso   1.00
H65    H     0.27380   0.89100   0.45440   0.01267  Uiso   1.00
H66    H     0.16990   0.44750   0.54340   0.01267  Uiso   1.00
H67    H     0.90790   0.48490   0.53820   0.01267  Uiso   1.00
H68    H     0.88410   0.46850   0.59800   0.01267  Uiso   1.00
H69    H     0.07140   0.41840   0.64320   0.01267  Uiso   1.00
H70    H     0.15450   0.38650   0.62640   0.01267  Uiso   1.00
H71    H     0.24790   0.45310   0.61040   0.01267  Uiso   1.00
H72    H     0.99890   0.41030   0.68320   0.01267  Uiso   1.00
H73    H     0.88230   0.46390   0.66580   0.01267  Uiso   1.00
H74    H     0.18370   0.52960   0.50920   0.01267  Uiso   1.00
H75    H     0.17580   0.45510   0.47480   0.01267  Uiso   1.00
H76    H     0.10660   0.52800   0.42720   0.01267  Uiso   1.00
H77    H     0.16690   0.48920   0.41920   0.01267  Uiso   1.00
H78    H     0.18060   0.56340   0.45440   0.01267  Uiso   1.00
H79    H     0.69750   0.12350   0.04340   0.01267  Uiso   1.00
H80    H     0.73490   0.38030   0.03820   0.01267  Uiso   1.00
H81    H     0.71850   0.46390   0.09800   0.01267  Uiso   1.00
H82    H     0.66840   0.32180   0.14320   0.01267  Uiso   1.00
H83    H     0.63650   0.22190   0.12640   0.01267  Uiso   1.00
H84    H     0.70310   0.11250   0.11040   0.01267  Uiso   1.00
H85    H     0.66030   0.43430   0.18320   0.01267  Uiso   1.00
H86    H     0.71390   0.53350   0.16580   0.01267  Uiso   1.00
H87    H     0.77960   0.07550   0.00920   0.01267  Uiso   1.00
H88    H     0.70510   0.04900   0.97480   0.01267  Uiso   1.00
H89    H     0.77800   0.07060   0.92720   0.01267  Uiso   1.00
H90    H     0.73920   0.00230   0.91920   0.01267  Uiso   1.00
H91    H     0.81340   0.02380   0.95440   0.01267  Uiso   1.00
H92    H     0.34590   0.91990   0.04340   0.01267  Uiso   1.00
H93    H     0.30330   0.65790   0.03820   0.01267  Uiso   1.00
H94    H     0.37950   0.63410   0.09800   0.01267  Uiso   1.00
H95    H     0.47480   0.82140   0.14320   0.01267  Uiso   1.00
H96    H     0.48990   0.90450   0.12640   0.01267  Uiso   1.00
H97    H     0.40730   0.99790   0.11040   0.01267  Uiso   1.00
H98    H     0.52290   0.74890   0.18320   0.01267  Uiso   1.00
H99    H     0.45190   0.63230   0.16580   0.01267  Uiso   1.00
H100   H     0.22960   0.93370   0.00920   0.01267  Uiso   1.00
H101   H     0.26970   0.92580   0.97480   0.01267  Uiso   1.00
H102   H     0.14920   0.85660   0.92720   0.01267  Uiso   1.00
H103   H     0.18000   0.91690   0.91920   0.01267  Uiso   1.00
H104   H     0.14100   0.93060   0.95440   0.01267  Uiso   1.00
C1     C     0.23360   0.71121   0.98048   0.01267  Uiso   1.00
C2     C     0.17133   0.70817   0.98480   0.01267  Uiso   1.00
C3     C     0.12222   0.65615   0.95364   0.01267  Uiso   1.00
C4     C     0.13538   0.60718   0.91816   0.01267  Uiso   1.00
C5     C     0.19765   0.61022   0.91384   0.01267  Uiso   1.00
C6     C     0.24676   0.66224   0.94500   0.01267  Uiso   1.00
C7     C     0.30836   0.66276   0.93972   0.01267  Uiso   1.00
C8     C     0.32370   0.61740   0.90460   0.01267  Uiso   1.00
C9     C     0.27257   0.56557   0.87254   0.01267  Uiso   1.00
C10    C     0.21127   0.56107   0.87754   0.01267  Uiso   1.00
C11    C     0.08188   0.55128   0.88716   0.01267  Uiso   1.00
C12    C     0.01896   0.55336   0.87692   0.01267  Uiso   1.00
C13    C     0.97138   0.48968   0.84316   0.01267  Uiso   1.00
C14    C     0.28450   0.51370   0.83340   0.01267  Uiso   1.00
C15    C     0.33416   0.51166   0.81892   0.01267  Uiso   1.00
C16    C     0.34185   0.45775   0.78110   0.01267  Uiso   1.00
C17    C     0.09406   0.76766   0.02072   0.01267  Uiso   1.00
C18    C     0.09770   0.82950   0.05800   0.01267  Uiso   1.00
C19    C     0.74688   0.26927   0.98048   0.01267  Uiso   1.00
C20    C     0.81347   0.27663   0.98480   0.01267  Uiso   1.00
C21    C     0.83142   0.29749   0.95364   0.01267  Uiso   1.00
C22    C     0.78278   0.31098   0.91816   0.01267  Uiso   1.00
C23    C     0.71619   0.30362   0.91384   0.01267  Uiso   1.00
C24    C     0.69824   0.28276   0.94500   0.01267  Uiso   1.00
C25    C     0.63136   0.27696   0.93972   0.01267  Uiso   1.00
C26    C     0.58090   0.28720   0.90460   0.01267  Uiso   1.00
C27    C     0.59997   0.30697   0.87254   0.01267  Uiso   1.00
C28    C     0.66627   0.31647   0.87754   0.01267  Uiso   1.00
C29    C     0.80528   0.33588   0.88716   0.01267  Uiso   1.00
C30    C     0.85796   0.32356   0.87692   0.01267  Uiso   1.00
C31    C     0.87178   0.35348   0.84316   0.01267  Uiso   1.00
C32    C     0.54890   0.31970   0.83340   0.01267  Uiso   1.00
C33    C     0.48476   0.30726   0.81892   0.01267  Uiso   1.00
C34    C     0.43925   0.32335   0.78110   0.01267  Uiso   1.00
C35    C     0.92666   0.25306   0.02072   0.01267  Uiso   1.00
C36    C     0.96030   0.22850   0.05800   0.01267  Uiso   1.00
C37    C     0.96121   0.49688   0.48048   0.01267  Uiso   1.00
C38    C     0.95817   0.56347   0.48480   0.01267  Uiso   1.00
C39    C     0.90615   0.58142   0.45364   0.01267  Uiso   1.00
C40    C     0.85718   0.53278   0.41816   0.01267  Uiso   1.00
C41    C     0.86022   0.46619   0.41384   0.01267  Uiso   1.00
C42    C     0.91224   0.44824   0.44500   0.01267  Uiso   1.00
C43    C     0.91276   0.38136   0.43972   0.01267  Uiso   1.00
C44    C     0.86740   0.33090   0.40460   0.01267  Uiso   1.00
C45    C     0.81557   0.34997   0.37254   0.01267  Uiso   1.00
C46    C     0.81107   0.41627   0.37754   0.01267  Uiso   1.00
C47    C     0.80128   0.55528   0.38716   0.01267  Uiso   1.00
C48    C     0.80336   0.60796   0.37692   0.01267  Uiso   1.00
C49    C     0.73968   0.62178   0.34316   0.01267  Uiso   1.00
C50    C     0.76370   0.29890   0.33340   0.01267  Uiso   1.00
C51    C     0.76166   0.23476   0.31892   0.01267  Uiso   1.00
C52    C     0.70775   0.18925   0.28110   0.01267  Uiso   1.00
C53    C     0.01766   0.67666   0.52072   0.01267  Uiso   1.00
C54    C     0.07950   0.71030   0.55800   0.01267  Uiso   1.00
C55    C     0.51927   0.98360   0.48048   0.01267  Uiso   1.00
C56    C     0.52663   0.92133   0.48480   0.01267  Uiso   1.00
C57    C     0.54749   0.87222   0.45364   0.01267  Uiso   1.00
C58    C     0.56098   0.88538   0.41816   0.01267  Uiso   1.00
C59    C     0.55362   0.94765   0.41384   0.01267  Uiso   1.00
C60    C     0.53276   0.99676   0.44500   0.01267  Uiso   1.00
C61    C     0.52696   0.05836   0.43972   0.01267  Uiso   1.00
C62    C     0.53720   0.07370   0.40460   0.01267  Uiso   1.00
C63    C     0.55697   0.02257   0.37254   0.01267  Uiso   1.00
C64    C     0.56647   0.96127   0.37754   0.01267  Uiso   1.00
C65    C     0.58588   0.83188   0.38716   0.01267  Uiso   1.00
C66    C     0.57356   0.76896   0.37692   0.01267  Uiso   1.00
C67    C     0.60348   0.72138   0.34316   0.01267  Uiso   1.00
C68    C     0.56970   0.03450   0.33340   0.01267  Uiso   1.00
C69    C     0.55726   0.08416   0.31892   0.01267  Uiso   1.00
C70    C     0.57335   0.09185   0.28110   0.01267  Uiso   1.00
C71    C     0.50306   0.84406   0.52072   0.01267  Uiso   1.00
C72    C     0.47850   0.84770   0.55800   0.01267  Uiso   1.00
C73    C     0.50312   0.03879   0.51952   0.01267  Uiso   1.00
C74    C     0.43653   0.04183   0.51520   0.01267  Uiso   1.00
C75    C     0.41858   0.09385   0.54636   0.01267  Uiso   1.00
C76    C     0.46722   0.14282   0.58184   0.01267  Uiso   1.00
C77    C     0.53381   0.13978   0.58616   0.01267  Uiso   1.00
C78    C     0.55176   0.08776   0.55500   0.01267  Uiso   1.00
C79    C     0.61864   0.08724   0.56028   0.01267  Uiso   1.00
C80    C     0.66910   0.13260   0.59540   0.01267  Uiso   1.00
C81    C     0.65003   0.18443   0.62746   0.01267  Uiso   1.00
C82    C     0.58373   0.18893   0.62246   0.01267  Uiso   1.00
C83    C     0.44472   0.19872   0.61284   0.01267  Uiso   1.00
C84    C     0.39204   0.19664   0.62308   0.01267  Uiso   1.00
C85    C     0.37822   0.26032   0.65684   0.01267  Uiso   1.00
C86    C     0.70110   0.23630   0.66660   0.01267  Uiso   1.00
C87    C     0.76524   0.23834   0.68108   0.01267  Uiso   1.00
C88    C     0.81075   0.29225   0.71890   0.01267  Uiso   1.00
C89    C     0.32334   0.98234   0.47928   0.01267  Uiso   1.00
C90    C     0.28970   0.92050   0.44200   0.01267  Uiso   1.00
C91    C     0.01640   0.48073   0.51952   0.01267  Uiso   1.00
C92    C     0.07867   0.47337   0.51520   0.01267  Uiso   1.00
C93    C     0.12778   0.45251   0.54636   0.01267  Uiso   1.00
C94    C     0.11462   0.43902   0.58184   0.01267  Uiso   1.00
C95    C     0.05235   0.44638   0.58616   0.01267  Uiso   1.00
C96    C     0.00324   0.46724   0.55500   0.01267  Uiso   1.00
C97    C     0.94164   0.47304   0.56028   0.01267  Uiso   1.00
C98    C     0.92630   0.46280   0.59540   0.01267  Uiso   1.00
C99    C     0.97743   0.44303   0.62746   0.01267  Uiso   1.00
C100   C     0.03873   0.43353   0.62246   0.01267  Uiso   1.00
C101   C     0.16812   0.41412   0.61284   0.01267  Uiso   1.00
C102   C     0.23104   0.42644   0.62308   0.01267  Uiso   1.00
C103   C     0.27862   0.39652   0.65684   0.01267  Uiso   1.00
C104   C     0.96550   0.43030   0.66660   0.01267  Uiso   1.00
C105   C     0.91584   0.44274   0.68108   0.01267  Uiso   1.00
C106   C     0.90815   0.42665   0.71890   0.01267  Uiso   1.00
C107   C     0.15594   0.49694   0.47928   0.01267  Uiso   1.00
C108   C     0.15230   0.52150   0.44200   0.01267  Uiso   1.00
C109   C     0.73073   0.25312   0.01952   0.01267  Uiso   1.00
C110   C     0.72337   0.18653   0.01520   0.01267  Uiso   1.00
C111   C     0.70251   0.16858   0.04636   0.01267  Uiso   1.00
C112   C     0.68902   0.21722   0.08184   0.01267  Uiso   1.00
C113   C     0.69638   0.28381   0.08616   0.01267  Uiso   1.00
C114   C     0.71724   0.30176   0.05500   0.01267  Uiso   1.00
C115   C     0.72304   0.36864   0.06028   0.01267  Uiso   1.00
C116   C     0.71280   0.41910   0.09540   0.01267  Uiso   1.00
C117   C     0.69303   0.40003   0.12746   0.01267  Uiso   1.00
C118   C     0.68353   0.33373   0.12246   0.01267  Uiso   1.00
C119   C     0.66412   0.19472   0.11284   0.01267  Uiso   1.00
C120   C     0.67644   0.14204   0.12308   0.01267  Uiso   1.00
C121   C     0.64652   0.12822   0.15684   0.01267  Uiso   1.00
C122   C     0.68030   0.45110   0.16660   0.01267  Uiso   1.00
C123   C     0.69274   0.51524   0.18108   0.01267  Uiso   1.00
C124   C     0.67665   0.56075   0.21890   0.01267  Uiso   1.00
C125   C     0.74694   0.07334   0.97928   0.01267  Uiso   1.00
C126   C     0.77150   0.03970   0.94200   0.01267  Uiso   1.00
C127   C     0.28879   0.76640   0.01952   0.01267  Uiso   1.00
C128   C     0.29183   0.82867   0.01520   0.01267  Uiso   1.00
C129   C     0.34385   0.87778   0.04636   0.01267  Uiso   1.00
C130   C     0.39282   0.86462   0.08184   0.01267  Uiso   1.00
C131   C     0.38978   0.80235   0.08616   0.01267  Uiso   1.00
C132   C     0.33776   0.75324   0.05500   0.01267  Uiso   1.00
C133   C     0.33724   0.69164   0.06028   0.01267  Uiso   1.00
C134   C     0.38260   0.67630   0.09540   0.01267  Uiso   1.00
C135   C     0.43443   0.72743   0.12746   0.01267  Uiso   1.00
C136   C     0.43893   0.78873   0.12246   0.01267  Uiso   1.00
C137   C     0.44872   0.91812   0.11284   0.01267  Uiso   1.00
C138   C     0.44664   0.98104   0.12308   0.01267  Uiso   1.00
C139   C     0.51032   0.02862   0.15684   0.01267  Uiso   1.00
C140   C     0.48630   0.71550   0.16660   0.01267  Uiso   1.00
C141   C     0.48834   0.66584   0.18108   0.01267  Uiso   1.00
C142   C     0.54225   0.65815   0.21890   0.01267  Uiso   1.00
C143   C     0.23234   0.90594   0.97928   0.01267  Uiso   1.00
C144   C     0.17050   0.90230   0.94200   0.01267  Uiso   1.00
O1     O     0.91092   0.50003   0.82730   0.01267  Uiso   1.00
O2     O     0.99281   0.43541   0.83248   0.01267  Uiso   1.00
O3     O     0.39147   0.46290   0.76872   0.01267  Uiso   1.00
O4     O     0.29885   0.40602   0.76284   0.01267  Uiso   1.00
O5     O     0.16169   0.75780   0.02136   0.01267  Uiso   1.00
O6     O     0.91638   0.32727   0.82730   0.01267  Uiso   1.00
O7     O     0.83967   0.39707   0.83248   0.01267  Uiso   1.00
O8     O     0.37725   0.30582   0.76872   0.01267  Uiso   1.00
O9     O     0.46399   0.35682   0.76284   0.01267  Uiso   1.00
O10    O     0.85967   0.26356   0.02136   0.01267  Uiso   1.00
O11    O     0.75003   0.66638   0.32730   0.01267  Uiso   1.00
O12    O     0.68541   0.58967   0.33248   0.01267  Uiso   1.00
O13    O     0.71290   0.12725   0.26872   0.01267  Uiso   1.00
O14    O     0.65602   0.21399   0.26284   0.01267  Uiso   1.00
O15    O     0.00780   0.60967   0.52136   0.01267  Uiso   1.00
O16    O     0.57727   0.66092   0.32730   0.01267  Uiso   1.00
O17    O     0.64707   0.74281   0.33248   0.01267  Uiso   1.00
O18    O     0.55582   0.14147   0.26872   0.01267  Uiso   1.00
O19    O     0.60682   0.04885   0.26284   0.01267  Uiso   1.00
O20    O     0.51356   0.91169   0.52136   0.01267  Uiso   1.00
O21    O     0.33362   0.24997   0.67270   0.01267  Uiso   1.00
O22    O     0.41033   0.31459   0.66752   0.01267  Uiso   1.00
O23    O     0.87275   0.28710   0.73128   0.01267  Uiso   1.00
O24    O     0.78601   0.34398   0.73716   0.01267  Uiso   1.00
O25    O     0.39033   0.99220   0.47864   0.01267  Uiso   1.00
O26    O     0.33908   0.42273   0.67270   0.01267  Uiso   1.00
O27    O     0.25719   0.35293   0.66752   0.01267  Uiso   1.00
O28    O     0.85853   0.44418   0.73128   0.01267  Uiso   1.00
O29    O     0.95115   0.39318   0.73716   0.01267  Uiso   1.00
O30    O     0.08831   0.48644   0.47864   0.01267  Uiso   1.00
O31    O     0.67273   0.08362   0.17270   0.01267  Uiso   1.00
O32    O     0.60293   0.16033   0.16752   0.01267  Uiso   1.00
O33    O     0.69418   0.62275   0.23128   0.01267  Uiso   1.00
O34    O     0.64318   0.53601   0.23716   0.01267  Uiso   1.00
O35    O     0.73644   0.14033   0.97864   0.01267  Uiso   1.00
O36    O     0.49997   0.08908   0.17270   0.01267  Uiso   1.00
O37    O     0.56459   0.00719   0.16752   0.01267  Uiso   1.00
O38    O     0.53710   0.60853   0.23128   0.01267  Uiso   1.00
O39    O     0.59398   0.70115   0.23716   0.01267  Uiso   1.00
O40    O     0.24220   0.83831   0.97864   0.01267  Uiso   1.00
