data_image0
_cell_length_a       11.242
_cell_length_b       14.367
_cell_length_c       16.751
_cell_angle_alpha    90
_cell_angle_beta     109.518
_cell_angle_gamma    90

_symmetry_space_group_name_H-M    "P 1"
_symmetry_int_tables_number       1

loop_
  _symmetry_equiv_pos_as_xyz
  'x, y, z'

loop_
  _atom_site_label
  _atom_site_occupancy
  _atom_site_fract_x
  _atom_site_fract_y
  _atom_site_fract_z
  _atom_site_thermal_displace_type
  _atom_site_B_iso_or_equiv
  _atom_site_type_symbol
  O1       1.0000 0.78910  0.13930  0.04120  Biso   1.000  O
  O2       1.0000 0.79940  0.20820  0.18140  Biso   1.000  O
  O3       1.0000 0.49060  0.11660  0.04170  Biso   1.000  O
  O4       1.0000 0.41130  0.97210  0.09810  Biso   1.000  O
  O5       1.0000 0.61410  0.04430  0.18280  Biso   1.000  O
  O6       1.0000 0.68500  0.29640  0.82660  Biso   1.000  O
  O7       1.0000 0.55650  0.24320  0.91450  Biso   1.000  O
  O8       1.0000 0.70510  0.37910  0.96460  Biso   1.000  O
  O9       1.0000 0.09630  0.99460  0.40560  Biso   1.000  O
  O10      1.0000 0.87450  0.04590  0.32530  Biso   1.000  O
  O11      1.0000 0.99780  0.12130  0.46440  Biso   1.000  O
  O12      1.0000 0.93460  0.27280  0.10360  Biso   1.000  O
  P1       1.0000 0.86680  0.18830  0.11980  Biso   1.000  P
  P2       1.0000 0.48840  0.06120  0.11820  Biso   1.000  P
  P3       1.0000 0.62080  0.32410  0.88960  Biso   1.000  P
  P4       1.0000 0.00450  0.07390  0.38600  Biso   1.000  P
  Zn1      1.0000 0.60823  0.12918  0.98016  Biso   1.000  Zn
  Zn2      1.0000 0.74216  0.12539  0.25330  Biso   1.000  Zn
  Zn3      1.0000 0.88234  0.37933  0.02751  Biso   1.000  Zn
  O13      1.0000 0.21090  0.63930  0.45880  Biso   1.000  O
  O14      1.0000 0.20060  0.70820  0.31860  Biso   1.000  O
  O15      1.0000 0.50940  0.61660  0.45830  Biso   1.000  O
  O16      1.0000 0.58870  0.47210  0.40190  Biso   1.000  O
  O17      1.0000 0.38590  0.54430  0.31720  Biso   1.000  O
  O18      1.0000 0.31500  0.79640  0.67340  Biso   1.000  O
  O19      1.0000 0.44350  0.74320  0.58550  Biso   1.000  O
  O20      1.0000 0.29490  0.87910  0.53540  Biso   1.000  O
  O21      1.0000 0.90370  0.49460  0.09440  Biso   1.000  O
  O22      1.0000 0.12550  0.54590  0.17470  Biso   1.000  O
  O23      1.0000 0.00220  0.62130  0.03560  Biso   1.000  O
  O24      1.0000 0.06540  0.77280  0.39640  Biso   1.000  O
  P5       1.0000 0.13320  0.68830  0.38020  Biso   1.000  P
  P6       1.0000 0.51160  0.56120  0.38180  Biso   1.000  P
  P7       1.0000 0.37920  0.82410  0.61040  Biso   1.000  P
  P8       1.0000 0.99550  0.57390  0.11400  Biso   1.000  P
  Zn4      1.0000 0.39177  0.62918  0.51984  Biso   1.000  Zn
  Zn5      1.0000 0.25784  0.62539  0.24670  Biso   1.000  Zn
  Zn6      1.0000 0.11766  0.87933  0.47249  Biso   1.000  Zn
  O25      1.0000 0.21090  0.86070  0.95880  Biso   1.000  O
  O26      1.0000 0.20060  0.79180  0.81860  Biso   1.000  O
  O27      1.0000 0.50940  0.88340  0.95830  Biso   1.000  O
  O28      1.0000 0.58870  0.02790  0.90190  Biso   1.000  O
  O29      1.0000 0.38590  0.95570  0.81720  Biso   1.000  O
  O30      1.0000 0.31500  0.70360  0.17340  Biso   1.000  O
  O31      1.0000 0.44350  0.75680  0.08550  Biso   1.000  O
  O32      1.0000 0.29490  0.62090  0.03540  Biso   1.000  O
  O33      1.0000 0.90370  0.00540  0.59440  Biso   1.000  O
  O34      1.0000 0.12550  0.95410  0.67470  Biso   1.000  O
  O35      1.0000 0.00220  0.87870  0.53560  Biso   1.000  O
  O36      1.0000 0.06540  0.72720  0.89640  Biso   1.000  O
  P9       1.0000 0.13320  0.81170  0.88020  Biso   1.000  P
  P10      1.0000 0.51160  0.93880  0.88180  Biso   1.000  P
  P11      1.0000 0.37920  0.67590  0.11040  Biso   1.000  P
  P12      1.0000 0.99550  0.92610  0.61400  Biso   1.000  P
  Zn7      1.0000 0.39177  0.87082  0.01984  Biso   1.000  Zn
  Zn8      1.0000 0.25784  0.87461  0.74670  Biso   1.000  Zn
  Zn9      1.0000 0.11766  0.62067  0.97249  Biso   1.000  Zn
  O37      1.0000 0.78910  0.36070  0.54120  Biso   1.000  O
  O38      1.0000 0.79940  0.29180  0.68140  Biso   1.000  O
  O39      1.0000 0.49060  0.38340  0.54170  Biso   1.000  O
  O40      1.0000 0.41130  0.52790  0.59810  Biso   1.000  O
  O41      1.0000 0.61410  0.45570  0.68280  Biso   1.000  O
  O42      1.0000 0.68500  0.20360  0.32660  Biso   1.000  O
  O43      1.0000 0.55650  0.25680  0.41450  Biso   1.000  O
  O44      1.0000 0.70510  0.12090  0.46460  Biso   1.000  O
  O45      1.0000 0.09630  0.50540  0.90560  Biso   1.000  O
  O46      1.0000 0.87450  0.45410  0.82530  Biso   1.000  O
  O47      1.0000 0.99780  0.37870  0.96440  Biso   1.000  O
  O48      1.0000 0.93460  0.22720  0.60360  Biso   1.000  O
  P13      1.0000 0.86680  0.31170  0.61980  Biso   1.000  P
  P14      1.0000 0.48840  0.43880  0.61820  Biso   1.000  P
  P15      1.0000 0.62080  0.17590  0.38960  Biso   1.000  P
  P16      1.0000 0.00450  0.42610  0.88600  Biso   1.000  P
  Zn10     1.0000 0.60823  0.37082  0.48016  Biso   1.000  Zn
  Zn11     1.0000 0.74216  0.37461  0.75330  Biso   1.000  Zn
  Zn12     1.0000 0.88234  0.12067  0.52751  Biso   1.000  Zn
