data_XAJQAC_clean
_audit_creation_date              2015-05-14
_audit_creation_method            'Materials Studio'
_symmetry_space_group_name_H-M    'P1'
_symmetry_Int_Tables_number       1
_symmetry_cell_setting            triclinic
loop_
_symmetry_equiv_pos_as_xyz
  x,y,z
_cell_length_a                    15.6323
_cell_length_b                    16.1854
_cell_length_c                    14.3253
_cell_angle_alpha                 90.0000
_cell_angle_beta                  103.2370
_cell_angle_gamma                 90.0000
loop_
_atom_site_label
_atom_site_type_symbol
_atom_site_fract_x
_atom_site_fract_y
_atom_site_fract_z
_atom_site_U_iso_or_equiv
_atom_site_adp_type
_atom_site_occupancy
H1     H     0.69970   0.50350   0.65160   0.01267  Uiso   1.00
H2     H     0.91090   0.71940   0.71740   0.01267  Uiso   1.00
H3     H     0.91090   0.28780   0.71530   0.01267  Uiso   1.00
H4     H     0.67680   0.80180   0.82370   0.01267  Uiso   1.00
H5     H     0.72810   0.65620   0.82590   0.01267  Uiso   1.00
H6     H     0.80820   0.70650   0.57070   0.01267  Uiso   1.00
H7     H     0.71740   0.83370   0.55020   0.01267  Uiso   1.00
H8     H     0.67340   0.20750   0.82540   0.01267  Uiso   1.00
H9     H     0.73140   0.35080   0.82900   0.01267  Uiso   1.00
H10    H     0.80000   0.30140   0.56700   0.01267  Uiso   1.00
H11    H     0.70250   0.17850   0.54590   0.01267  Uiso   1.00
C12    C     0.61040   0.88130   0.65870   0.01267  Uiso   1.00
C13    C     0.61030   0.12250   0.66520   0.01267  Uiso   1.00
C14    C     0.68060   0.81950   0.68020   0.01267  Uiso   1.00
C15    C     0.67590   0.18890   0.68170   0.01267  Uiso   1.00
C16    C     0.69410   0.77570   0.76030   0.01267  Uiso   1.00
C17    C     0.69130   0.23270   0.76200   0.01267  Uiso   1.00
C18    C     0.73050   0.69550   0.76480   0.01267  Uiso   1.00
C19    C     0.73080   0.31180   0.76670   0.01267  Uiso   1.00
C20    C     0.76870   0.66560   0.69450   0.01267  Uiso   1.00
C21    C     0.76820   0.34110   0.69540   0.01267  Uiso   1.00
C22    C     0.76930   0.72060   0.62280   0.01267  Uiso   1.00
C23    C     0.76330   0.28760   0.62120   0.01267  Uiso   1.00
C24    C     0.72120   0.79530   0.61360   0.01267  Uiso   1.00
C25    C     0.71220   0.21440   0.61190   0.01267  Uiso   1.00
C26    C     0.81860   0.58130   0.70310   0.01267  Uiso   1.00
C27    C     0.81850   0.42560   0.70240   0.01267  Uiso   1.00
C28    C     0.91050   0.58240   0.72610   0.01267  Uiso   1.00
C29    C     0.91040   0.42450   0.72640   0.01267  Uiso   1.00
C30    C     0.95170   0.66410   0.73120   0.01267  Uiso   1.00
C31    C     0.95160   0.34300   0.73060   0.01267  Uiso   1.00
C32    C     0.77030   0.50350   0.68200   0.01267  Uiso   1.00
C33    C     0.95550   0.50340   0.73430   0.01267  Uiso   1.00
O34    O     0.55480   0.99860   0.38700   0.01267  Uiso   1.00
O35    O     0.57870   0.90040   0.57440   0.01267  Uiso   1.00
O36    O     0.58270   0.10520   0.73580   0.01267  Uiso   1.00
O37    O     0.57370   0.89950   0.73160   0.01267  Uiso   1.00
O38    O     0.57810   0.09870   0.57770   0.01267  Uiso   1.00
H39    H     0.38123   0.99860   0.11300   0.01267  Uiso   1.00
H40    H     0.30030   0.50350   0.84840   0.01267  Uiso   1.00
H41    H     0.08910   0.71940   0.78260   0.01267  Uiso   1.00
H42    H     0.08910   0.28780   0.78470   0.01267  Uiso   1.00
H43    H     0.32320   0.80180   0.67630   0.01267  Uiso   1.00
H44    H     0.27190   0.65620   0.67410   0.01267  Uiso   1.00
H45    H     0.19180   0.70650   0.92930   0.01267  Uiso   1.00
H46    H     0.28260   0.83370   0.94980   0.01267  Uiso   1.00
H47    H     0.32660   0.20750   0.67460   0.01267  Uiso   1.00
H48    H     0.26860   0.35080   0.67100   0.01267  Uiso   1.00
H49    H     0.20000   0.30140   0.93300   0.01267  Uiso   1.00
H50    H     0.29750   0.17850   0.95410   0.01267  Uiso   1.00
C51    C     0.38960   0.88130   0.84130   0.01267  Uiso   1.00
C52    C     0.38970   0.12250   0.83480   0.01267  Uiso   1.00
C53    C     0.31940   0.81950   0.81980   0.01267  Uiso   1.00
C54    C     0.32410   0.18890   0.81830   0.01267  Uiso   1.00
C55    C     0.30590   0.77570   0.73970   0.01267  Uiso   1.00
C56    C     0.30870   0.23270   0.73800   0.01267  Uiso   1.00
C57    C     0.26950   0.69550   0.73520   0.01267  Uiso   1.00
C58    C     0.26920   0.31180   0.73330   0.01267  Uiso   1.00
C59    C     0.23130   0.66560   0.80550   0.01267  Uiso   1.00
C60    C     0.23180   0.34110   0.80460   0.01267  Uiso   1.00
C61    C     0.23070   0.72060   0.87720   0.01267  Uiso   1.00
C62    C     0.23670   0.28760   0.87880   0.01267  Uiso   1.00
C63    C     0.27880   0.79530   0.88640   0.01267  Uiso   1.00
C64    C     0.28780   0.21440   0.88810   0.01267  Uiso   1.00
C65    C     0.18140   0.58130   0.79690   0.01267  Uiso   1.00
C66    C     0.18150   0.42560   0.79760   0.01267  Uiso   1.00
C67    C     0.08950   0.58240   0.77390   0.01267  Uiso   1.00
C68    C     0.08960   0.42450   0.77360   0.01267  Uiso   1.00
C69    C     0.04830   0.66410   0.76880   0.01267  Uiso   1.00
C70    C     0.04840   0.34300   0.76940   0.01267  Uiso   1.00
C71    C     0.22970   0.50350   0.81800   0.01267  Uiso   1.00
C72    C     0.04450   0.50340   0.76570   0.01267  Uiso   1.00
O73    O     0.44520   0.99860   0.11300   0.01267  Uiso   1.00
O74    O     0.42130   0.90040   0.92560   0.01267  Uiso   1.00
O75    O     0.41730   0.10520   0.76420   0.01267  Uiso   1.00
O76    O     0.42630   0.89950   0.76840   0.01267  Uiso   1.00
O77    O     0.42190   0.09870   0.92230   0.01267  Uiso   1.00
H78    H     0.61877   0.99860   0.38700   0.01267  Uiso   1.00
H79    H     0.30030   0.49650   0.34840   0.01267  Uiso   1.00
H80    H     0.08910   0.28060   0.28260   0.01267  Uiso   1.00
H81    H     0.08910   0.71220   0.28470   0.01267  Uiso   1.00
H82    H     0.32320   0.19820   0.17630   0.01267  Uiso   1.00
H83    H     0.27190   0.34380   0.17410   0.01267  Uiso   1.00
H84    H     0.19180   0.29350   0.42930   0.01267  Uiso   1.00
H85    H     0.28260   0.16630   0.44980   0.01267  Uiso   1.00
H86    H     0.32660   0.79250   0.17460   0.01267  Uiso   1.00
H87    H     0.26860   0.64920   0.17100   0.01267  Uiso   1.00
H88    H     0.20000   0.69860   0.43300   0.01267  Uiso   1.00
H89    H     0.29750   0.82150   0.45410   0.01267  Uiso   1.00
C90    C     0.38960   0.11870   0.34130   0.01267  Uiso   1.00
C91    C     0.38970   0.87750   0.33480   0.01267  Uiso   1.00
C92    C     0.31940   0.18050   0.31980   0.01267  Uiso   1.00
C93    C     0.32410   0.81110   0.31830   0.01267  Uiso   1.00
C94    C     0.30590   0.22430   0.23970   0.01267  Uiso   1.00
C95    C     0.30870   0.76730   0.23800   0.01267  Uiso   1.00
C96    C     0.26950   0.30450   0.23520   0.01267  Uiso   1.00
C97    C     0.26920   0.68820   0.23330   0.01267  Uiso   1.00
C98    C     0.23130   0.33440   0.30550   0.01267  Uiso   1.00
C99    C     0.23180   0.65890   0.30460   0.01267  Uiso   1.00
C100   C     0.23070   0.27940   0.37720   0.01267  Uiso   1.00
C101   C     0.23670   0.71240   0.37880   0.01267  Uiso   1.00
C102   C     0.27880   0.20470   0.38640   0.01267  Uiso   1.00
C103   C     0.28780   0.78560   0.38810   0.01267  Uiso   1.00
C104   C     0.18140   0.41870   0.29690   0.01267  Uiso   1.00
C105   C     0.18150   0.57440   0.29760   0.01267  Uiso   1.00
C106   C     0.08950   0.41760   0.27390   0.01267  Uiso   1.00
C107   C     0.08960   0.57550   0.27360   0.01267  Uiso   1.00
C108   C     0.04830   0.33590   0.26880   0.01267  Uiso   1.00
C109   C     0.04840   0.65700   0.26940   0.01267  Uiso   1.00
C110   C     0.22970   0.49650   0.31800   0.01267  Uiso   1.00
C111   C     0.04450   0.49660   0.26570   0.01267  Uiso   1.00
O112   O     0.44520   0.00140   0.61300   0.01267  Uiso   1.00
O113   O     0.42130   0.09960   0.42560   0.01267  Uiso   1.00
O114   O     0.41730   0.89480   0.26420   0.01267  Uiso   1.00
O115   O     0.42630   0.10050   0.26840   0.01267  Uiso   1.00
O116   O     0.42190   0.90130   0.42230   0.01267  Uiso   1.00
H117   H     0.61877   0.00140   0.88700   0.01267  Uiso   1.00
H118   H     0.69970   0.49650   0.15160   0.01267  Uiso   1.00
H119   H     0.91090   0.28060   0.21740   0.01267  Uiso   1.00
H120   H     0.91090   0.71220   0.21530   0.01267  Uiso   1.00
H121   H     0.67680   0.19820   0.32370   0.01267  Uiso   1.00
H122   H     0.72810   0.34380   0.32590   0.01267  Uiso   1.00
H123   H     0.80820   0.29350   0.07070   0.01267  Uiso   1.00
H124   H     0.71740   0.16630   0.05020   0.01267  Uiso   1.00
H125   H     0.67340   0.79250   0.32540   0.01267  Uiso   1.00
H126   H     0.73140   0.64920   0.32900   0.01267  Uiso   1.00
H127   H     0.80000   0.69860   0.06700   0.01267  Uiso   1.00
H128   H     0.70250   0.82150   0.04590   0.01267  Uiso   1.00
C129   C     0.61040   0.11870   0.15870   0.01267  Uiso   1.00
C130   C     0.61030   0.87750   0.16520   0.01267  Uiso   1.00
C131   C     0.68060   0.18050   0.18020   0.01267  Uiso   1.00
C132   C     0.67590   0.81110   0.18170   0.01267  Uiso   1.00
C133   C     0.69410   0.22430   0.26030   0.01267  Uiso   1.00
C134   C     0.69130   0.76730   0.26200   0.01267  Uiso   1.00
C135   C     0.73050   0.30450   0.26480   0.01267  Uiso   1.00
C136   C     0.73080   0.68820   0.26670   0.01267  Uiso   1.00
C137   C     0.76870   0.33440   0.19450   0.01267  Uiso   1.00
C138   C     0.76820   0.65890   0.19540   0.01267  Uiso   1.00
C139   C     0.76930   0.27940   0.12280   0.01267  Uiso   1.00
C140   C     0.76330   0.71240   0.12120   0.01267  Uiso   1.00
C141   C     0.72120   0.20470   0.11360   0.01267  Uiso   1.00
C142   C     0.71220   0.78560   0.11190   0.01267  Uiso   1.00
C143   C     0.81860   0.41870   0.20310   0.01267  Uiso   1.00
C144   C     0.81850   0.57440   0.20240   0.01267  Uiso   1.00
C145   C     0.91050   0.41760   0.22610   0.01267  Uiso   1.00
C146   C     0.91040   0.57550   0.22640   0.01267  Uiso   1.00
C147   C     0.95170   0.33590   0.23120   0.01267  Uiso   1.00
C148   C     0.95160   0.65700   0.23060   0.01267  Uiso   1.00
C149   C     0.77030   0.49650   0.18200   0.01267  Uiso   1.00
C150   C     0.95550   0.49660   0.23430   0.01267  Uiso   1.00
O151   O     0.55480   0.00140   0.88700   0.01267  Uiso   1.00
O152   O     0.57870   0.09960   0.07440   0.01267  Uiso   1.00
O153   O     0.58270   0.89480   0.23580   0.01267  Uiso   1.00
O154   O     0.57370   0.10050   0.23160   0.01267  Uiso   1.00
O155   O     0.57810   0.90130   0.07770   0.01267  Uiso   1.00
H156   H     0.38123   0.00140   0.61300   0.01267  Uiso   1.00
In157  In    0.50000  -0.00000   0.50000   0.01267  Uiso   1.00
In158  In    0.50000  -0.00000   0.00000   0.01267  Uiso   1.00
In159  In    0.50000   0.00820   0.75000   0.01267  Uiso   1.00
In160  In    0.50000   0.99180   0.25000   0.01267  Uiso   1.00
