data_image0
_cell_length_a       12.758
_cell_length_b       17.5203
_cell_length_c       21.8129
_cell_angle_alpha    90
_cell_angle_beta     90
_cell_angle_gamma    90

_symmetry_space_group_name_H-M    "P 1"
_symmetry_int_tables_number       1

loop_
  _symmetry_equiv_pos_as_xyz
  'x, y, z'

loop_
  _atom_site_label
  _atom_site_occupancy
  _atom_site_fract_x
  _atom_site_fract_y
  _atom_site_fract_z
  _atom_site_thermal_displace_type
  _atom_site_B_iso_or_equiv
  _atom_site_type_symbol
  In1      1.0000 0.91913  0.98958  0.82681  Biso   1.000  In
  C1       1.0000 0.84000  0.76480  0.79370  Biso   1.000  C
  C2       1.0000 0.90620  0.71920  0.75920  Biso   1.000  C
  H1       1.0000 0.96700  0.73900  0.74190  Biso   1.000  H
  C3       1.0000 0.87950  0.64320  0.75130  Biso   1.000  C
  C4       1.0000 0.78580  0.61420  0.77740  Biso   1.000  C
  H2       1.0000 0.76870  0.56290  0.77340  Biso   1.000  H
  C5       1.0000 0.72070  0.66320  0.80870  Biso   1.000  C
  C6       1.0000 0.74880  0.73630  0.82010  Biso   1.000  C
  H3       1.0000 0.70780  0.76710  0.84520  Biso   1.000  H
  C7       1.0000 0.53940  0.61320  0.79950  Biso   1.000  C
  C8       1.0000 0.52730  0.62600  0.73640  Biso   1.000  C
  H4       1.0000 0.57870  0.64870  0.71230  Biso   1.000  H
  C9       1.0000 0.42890  0.60090  0.71250  Biso   1.000  C
  H5       1.0000 0.41580  0.60700  0.67080  Biso   1.000  H
  C10      1.0000 0.35260  0.56820  0.74870  Biso   1.000  C
  C11      1.0000 0.36800  0.55830  0.81160  Biso   1.000  C
  H6       1.0000 0.31540  0.53770  0.83610  Biso   1.000  H
  C12      1.0000 0.46570  0.58050  0.83740  Biso   1.000  C
  C13      1.0000 0.50850  0.57830  0.89730  Biso   1.000  C
  C14      1.0000 0.47410  0.55180  0.95360  Biso   1.000  C
  H7       1.0000 0.40860  0.52890  0.95730  Biso   1.000  H
  C15      1.0000 0.53830  0.55960  0.00450  Biso   1.000  C
  C16      1.0000 0.63740  0.59070  0.99970  Biso   1.000  C
  H8       1.0000 0.67980  0.59450  0.03430  Biso   1.000  H
  C17      1.0000 0.67340  0.61590  0.94430  Biso   1.000  C
  H9       1.0000 0.73990  0.63720  0.94060  Biso   1.000  H
  C18      1.0000 0.60940  0.60910  0.89450  Biso   1.000  C
  C19      1.0000 0.87100  0.84630  0.80480  Biso   1.000  C
  C20      1.0000 0.95170  0.59040  0.71980  Biso   1.000  C
  C21      1.0000 0.25100  0.54450  0.72240  Biso   1.000  C
  C22      1.0000 0.49710  0.53570  0.06500  Biso   1.000  C
  N1       1.0000 0.62710  0.63180  0.83310  Biso   1.000  N
  O1       1.0000 0.94810  0.87390  0.77650  Biso   1.000  O
  O2       1.0000 0.82250  0.88540  0.84320  Biso   1.000  O
  O3       1.0000 0.01760  0.61240  0.68230  Biso   1.000  O
  O4       1.0000 0.94720  0.51880  0.73460  Biso   1.000  O
  O5       1.0000 0.23790  0.55030  0.66550  Biso   1.000  O
  O6       1.0000 0.18090  0.51520  0.75460  Biso   1.000  O
  O7       1.0000 0.41500  0.49730  0.07040  Biso   1.000  O
  O8       1.0000 0.54650  0.55530  0.11330  Biso   1.000  O
  In2      1.0000 0.58087  0.01042  0.32681  Biso   1.000  In
  C23      1.0000 0.66000  0.23520  0.29370  Biso   1.000  C
  C24      1.0000 0.59380  0.28080  0.25920  Biso   1.000  C
  H10      1.0000 0.53300  0.26100  0.24190  Biso   1.000  H
  C25      1.0000 0.62050  0.35680  0.25130  Biso   1.000  C
  C26      1.0000 0.71420  0.38580  0.27740  Biso   1.000  C
  H11      1.0000 0.73130  0.43710  0.27340  Biso   1.000  H
  C27      1.0000 0.77930  0.33680  0.30870  Biso   1.000  C
  C28      1.0000 0.75120  0.26370  0.32010  Biso   1.000  C
  H12      1.0000 0.79220  0.23290  0.34520  Biso   1.000  H
  C29      1.0000 0.96060  0.38680  0.29950  Biso   1.000  C
  C30      1.0000 0.97270  0.37400  0.23640  Biso   1.000  C
  H13      1.0000 0.92130  0.35130  0.21230  Biso   1.000  H
  C31      1.0000 0.07110  0.39910  0.21250  Biso   1.000  C
  H14      1.0000 0.08420  0.39300  0.17080  Biso   1.000  H
  C32      1.0000 0.14740  0.43180  0.24870  Biso   1.000  C
  C33      1.0000 0.13200  0.44170  0.31160  Biso   1.000  C
  H15      1.0000 0.18460  0.46230  0.33610  Biso   1.000  H
  C34      1.0000 0.03430  0.41950  0.33740  Biso   1.000  C
  C35      1.0000 0.99150  0.42170  0.39730  Biso   1.000  C
  C36      1.0000 0.02590  0.44820  0.45360  Biso   1.000  C
  H16      1.0000 0.09140  0.47110  0.45730  Biso   1.000  H
  C37      1.0000 0.96170  0.44040  0.50450  Biso   1.000  C
  C38      1.0000 0.86260  0.40930  0.49970  Biso   1.000  C
  H17      1.0000 0.82020  0.40550  0.53430  Biso   1.000  H
  C39      1.0000 0.82660  0.38410  0.44430  Biso   1.000  C
  H18      1.0000 0.76010  0.36280  0.44060  Biso   1.000  H
  C40      1.0000 0.89060  0.39090  0.39450  Biso   1.000  C
  C41      1.0000 0.62900  0.15370  0.30480  Biso   1.000  C
  C42      1.0000 0.54830  0.40960  0.21980  Biso   1.000  C
  C43      1.0000 0.24900  0.45550  0.22240  Biso   1.000  C
  C44      1.0000 0.00290  0.46430  0.56500  Biso   1.000  C
  N2       1.0000 0.87290  0.36820  0.33310  Biso   1.000  N
  O9       1.0000 0.55190  0.12610  0.27650  Biso   1.000  O
  O10      1.0000 0.67750  0.11460  0.34320  Biso   1.000  O
  O11      1.0000 0.48240  0.38760  0.18230  Biso   1.000  O
  O12      1.0000 0.55280  0.48120  0.23460  Biso   1.000  O
  O13      1.0000 0.26210  0.44970  0.16550  Biso   1.000  O
  O14      1.0000 0.31910  0.48480  0.25460  Biso   1.000  O
  O15      1.0000 0.08500  0.50270  0.57040  Biso   1.000  O
  O16      1.0000 0.95350  0.44470  0.61330  Biso   1.000  O
  In3      1.0000 0.08087  0.48958  0.67319  Biso   1.000  In
  C45      1.0000 0.16000  0.26480  0.70630  Biso   1.000  C
  C46      1.0000 0.09380  0.21920  0.74080  Biso   1.000  C
  H19      1.0000 0.03300  0.23900  0.75810  Biso   1.000  H
  C47      1.0000 0.12050  0.14320  0.74870  Biso   1.000  C
  C48      1.0000 0.21420  0.11420  0.72260  Biso   1.000  C
  H20      1.0000 0.23130  0.06290  0.72660  Biso   1.000  H
  C49      1.0000 0.27930  0.16320  0.69130  Biso   1.000  C
  C50      1.0000 0.25120  0.23630  0.67990  Biso   1.000  C
  H21      1.0000 0.29220  0.26710  0.65480  Biso   1.000  H
  C51      1.0000 0.46060  0.11320  0.70050  Biso   1.000  C
  C52      1.0000 0.47270  0.12600  0.76360  Biso   1.000  C
  H22      1.0000 0.42130  0.14870  0.78770  Biso   1.000  H
  C53      1.0000 0.57110  0.10090  0.78750  Biso   1.000  C
  H23      1.0000 0.58420  0.10700  0.82920  Biso   1.000  H
  C54      1.0000 0.64740  0.06820  0.75130  Biso   1.000  C
  C55      1.0000 0.63200  0.05830  0.68840  Biso   1.000  C
  H24      1.0000 0.68460  0.03770  0.66390  Biso   1.000  H
  C56      1.0000 0.53430  0.08050  0.66260  Biso   1.000  C
  C57      1.0000 0.49150  0.07830  0.60270  Biso   1.000  C
  C58      1.0000 0.52590  0.05180  0.54640  Biso   1.000  C
  H25      1.0000 0.59140  0.02890  0.54270  Biso   1.000  H
  C59      1.0000 0.46170  0.05960  0.49550  Biso   1.000  C
  C60      1.0000 0.36260  0.09070  0.50030  Biso   1.000  C
  H26      1.0000 0.32020  0.09450  0.46570  Biso   1.000  H
  C61      1.0000 0.32660  0.11590  0.55570  Biso   1.000  C
  H27      1.0000 0.26010  0.13720  0.55940  Biso   1.000  H
  C62      1.0000 0.39060  0.10910  0.60550  Biso   1.000  C
  C63      1.0000 0.12900  0.34630  0.69520  Biso   1.000  C
  C64      1.0000 0.04830  0.09040  0.78020  Biso   1.000  C
  C65      1.0000 0.74900  0.04450  0.77760  Biso   1.000  C
  C66      1.0000 0.50290  0.03570  0.43500  Biso   1.000  C
  N3       1.0000 0.37290  0.13180  0.66690  Biso   1.000  N
  O17      1.0000 0.05190  0.37390  0.72350  Biso   1.000  O
  O18      1.0000 0.17750  0.38540  0.65680  Biso   1.000  O
  O19      1.0000 0.98240  0.11240  0.81770  Biso   1.000  O
  O20      1.0000 0.05280  0.01880  0.76540  Biso   1.000  O
  O21      1.0000 0.76210  0.05030  0.83450  Biso   1.000  O
  O22      1.0000 0.81910  0.01520  0.74540  Biso   1.000  O
  O23      1.0000 0.58500  0.99730  0.42960  Biso   1.000  O
  O24      1.0000 0.45350  0.05530  0.38670  Biso   1.000  O
  In4      1.0000 0.41913  0.51042  0.17319  Biso   1.000  In
  C67      1.0000 0.34000  0.73520  0.20630  Biso   1.000  C
  C68      1.0000 0.40620  0.78080  0.24080  Biso   1.000  C
  H28      1.0000 0.46700  0.76100  0.25810  Biso   1.000  H
  C69      1.0000 0.37950  0.85680  0.24870  Biso   1.000  C
  C70      1.0000 0.28580  0.88580  0.22260  Biso   1.000  C
  H29      1.0000 0.26870  0.93710  0.22660  Biso   1.000  H
  C71      1.0000 0.22070  0.83680  0.19130  Biso   1.000  C
  C72      1.0000 0.24880  0.76370  0.17990  Biso   1.000  C
  H30      1.0000 0.20780  0.73290  0.15480  Biso   1.000  H
  C73      1.0000 0.03940  0.88680  0.20050  Biso   1.000  C
  C74      1.0000 0.02730  0.87400  0.26360  Biso   1.000  C
  H31      1.0000 0.07870  0.85130  0.28770  Biso   1.000  H
  C75      1.0000 0.92890  0.89910  0.28750  Biso   1.000  C
  H32      1.0000 0.91580  0.89300  0.32920  Biso   1.000  H
  C76      1.0000 0.85260  0.93180  0.25130  Biso   1.000  C
  C77      1.0000 0.86800  0.94170  0.18840  Biso   1.000  C
  H33      1.0000 0.81540  0.96230  0.16390  Biso   1.000  H
  C78      1.0000 0.96570  0.91950  0.16260  Biso   1.000  C
  C79      1.0000 0.00850  0.92170  0.10270  Biso   1.000  C
  C80      1.0000 0.97410  0.94820  0.04640  Biso   1.000  C
  H34      1.0000 0.90860  0.97110  0.04270  Biso   1.000  H
  C81      1.0000 0.03830  0.94040  0.99550  Biso   1.000  C
  C82      1.0000 0.13740  0.90930  0.00030  Biso   1.000  C
  H35      1.0000 0.17980  0.90550  0.96570  Biso   1.000  H
  C83      1.0000 0.17340  0.88410  0.05570  Biso   1.000  C
  H36      1.0000 0.23990  0.86280  0.05940  Biso   1.000  H
  C84      1.0000 0.10940  0.89090  0.10550  Biso   1.000  C
  C85      1.0000 0.37100  0.65370  0.19520  Biso   1.000  C
  C86      1.0000 0.45170  0.90960  0.28020  Biso   1.000  C
  C87      1.0000 0.75100  0.95550  0.27760  Biso   1.000  C
  C88      1.0000 0.99710  0.96430  0.93500  Biso   1.000  C
  N4       1.0000 0.12710  0.86820  0.16690  Biso   1.000  N
  O25      1.0000 0.44810  0.62610  0.22350  Biso   1.000  O
  O26      1.0000 0.32250  0.61460  0.15680  Biso   1.000  O
  O27      1.0000 0.51760  0.88760  0.31770  Biso   1.000  O
  O28      1.0000 0.44720  0.98120  0.26540  Biso   1.000  O
  O29      1.0000 0.73790  0.94970  0.33450  Biso   1.000  O
  O30      1.0000 0.68090  0.98480  0.24540  Biso   1.000  O
  O31      1.0000 0.91500  0.00270  0.92960  Biso   1.000  O
  O32      1.0000 0.04650  0.94470  0.88670  Biso   1.000  O
