data_image0
_cell_length_a       13.163
_cell_length_b       14.793
_cell_length_c       13.215
_cell_angle_alpha    90
_cell_angle_beta     119.74
_cell_angle_gamma    90

_symmetry_space_group_name_H-M    "P 1"
_symmetry_int_tables_number       1

loop_
  _symmetry_equiv_pos_as_xyz
  'x, y, z'

loop_
  _atom_site_label
  _atom_site_occupancy
  _atom_site_fract_x
  _atom_site_fract_y
  _atom_site_fract_z
  _atom_site_thermal_displace_type
  _atom_site_B_iso_or_equiv
  _atom_site_type_symbol
  P1       1.0000 0.40670  0.17060  0.84080  Biso   1.000  P
  P2       1.0000 0.92880  0.16890  0.59290  Biso   1.000  P
  P3       1.0000 0.15360  0.17110  0.06460  Biso   1.000  P
  P4       1.0000 0.73390  0.33080  0.73870  Biso   1.000  P
  P5       1.0000 0.50480  0.32730  0.26660  Biso   1.000  P
  P6       1.0000 0.26220  0.32080  0.50240  Biso   1.000  P
  P7       1.0000 0.73870  0.00900  0.73910  Biso   1.000  P
  P8       1.0000 0.26280  0.01320  0.50210  Biso   1.000  P
  P9       1.0000 0.50390  0.01570  0.26200  Biso   1.000  P
  Al1      1.0000 0.17610  0.16540  0.60100  Biso   1.000  Al
  Al2      1.0000 0.91350  0.16980  0.82070  Biso   1.000  Al
  Al3      1.0000 0.39720  0.17280  0.07810  Biso   1.000  Al
  Al4      1.0000 0.49360  0.30940  0.73190  Biso   1.000  Al
  Al5      1.0000 0.72790  0.30600  0.50240  Biso   1.000  Al
  Al6      1.0000 0.27430  0.29280  0.27460  Biso   1.000  Al
  Al7      1.0000 0.49740  0.03670  0.72790  Biso   1.000  Al
  Al8      1.0000 0.27380  0.04460  0.27170  Biso   1.000  Al
  Al9      1.0000 0.72830  0.03410  0.49850  Biso   1.000  Al
  O1       1.0000 0.32790  0.16680  0.30750  Biso   1.000  O
  H1       1.0000 0.40810  0.16640  0.35870  Biso   1.000  H
  O2       1.0000 0.46070  0.08540  0.82660  Biso   1.000  O
  O3       1.0000 0.49900  0.16600  0.68200  Biso   1.000  O
  H2       1.0000 0.50300  0.16560  0.61370  Biso   1.000  H
  O4       1.0000 0.27820  0.17900  0.75140  Biso   1.000  O
  O5       1.0000 0.46330  0.25580  0.82840  Biso   1.000  O
  O6       1.0000 0.67600  0.17300  0.51900  Biso   1.000  O
  H3       1.0000 0.61830  0.17260  0.54040  Biso   1.000  H
  O7       1.0000 0.41330  0.17490  0.95920  Biso   1.000  O
  O8       1.0000 0.03910  0.17100  0.58600  Biso   1.000  O
  O9       1.0000 0.85850  0.08480  0.53050  Biso   1.000  O
  O10      1.0000 0.86240  0.25470  0.53520  Biso   1.000  O
  O11      1.0000 0.96050  0.17000  0.71930  Biso   1.000  O
  O12      1.0000 0.16470  0.08220  0.13180  Biso   1.000  O
  O13      1.0000 0.25090  0.17720  0.03120  Biso   1.000  O
  O14      1.0000 0.16100  0.24930  0.13200  Biso   1.000  O
  O15      1.0000 0.03630  0.17230  0.95510  Biso   1.000  O
  O16      1.0000 0.68640  0.31470  0.60950  Biso   1.000  O
  O17      1.0000 0.84020  0.26540  0.80800  Biso   1.000  O
  O18      1.0000 0.77590  0.42380  0.77340  Biso   1.000  O
  O19      1.0000 0.63830  0.30900  0.75730  Biso   1.000  O
  O20      1.0000 0.61820  0.29270  0.36110  Biso   1.000  O
  O21      1.0000 0.46220  0.27100  0.15120  Biso   1.000  O
  O22      1.0000 0.42130  0.32760  0.31220  Biso   1.000  O
  O23      1.0000 0.51400  0.41390  0.22700  Biso   1.000  O
  O24      1.0000 0.18850  0.26460  0.53310  Biso   1.000  O
  O25      1.0000 0.22620  0.29530  0.38130  Biso   1.000  O
  O26      1.0000 0.22950  0.41800  0.50450  Biso   1.000  O
  O27      1.0000 0.39430  0.31060  0.58290  Biso   1.000  O
  O28      1.0000 0.83710  0.06880  0.80670  Biso   1.000  O
  O29      1.0000 0.69460  0.01990  0.60910  Biso   1.000  O
  O30      1.0000 0.64070  0.03450  0.76910  Biso   1.000  O
  O31      1.0000 0.77740  0.91030  0.77470  Biso   1.000  O
  O32      1.0000 0.38300  0.03310  0.58600  Biso   1.000  O
  O33      1.0000 0.23910  0.04400  0.38100  Biso   1.000  O
  O34      1.0000 0.19020  0.06890  0.54410  Biso   1.000  O
  O35      1.0000 0.23200  0.91430  0.51000  Biso   1.000  O
  O36      1.0000 0.62120  0.05360  0.35850  Biso   1.000  O
  O37      1.0000 0.46290  0.07550  0.15650  Biso   1.000  O
  O38      1.0000 0.41750  0.01970  0.30210  Biso   1.000  O
  O39      1.0000 0.52250  0.91770  0.22920  Biso   1.000  O
  P10      1.0000 0.59330  0.67060  0.15920  Biso   1.000  P
  P11      1.0000 0.07120  0.66890  0.40710  Biso   1.000  P
  P12      1.0000 0.84640  0.67110  0.93540  Biso   1.000  P
  P13      1.0000 0.26610  0.83080  0.26130  Biso   1.000  P
  P14      1.0000 0.49520  0.82730  0.73340  Biso   1.000  P
  P15      1.0000 0.73780  0.82080  0.49760  Biso   1.000  P
  P16      1.0000 0.26130  0.50900  0.26090  Biso   1.000  P
  P17      1.0000 0.73720  0.51320  0.49790  Biso   1.000  P
  P18      1.0000 0.49610  0.51570  0.73800  Biso   1.000  P
  Al10     1.0000 0.82390  0.66540  0.39900  Biso   1.000  Al
  Al11     1.0000 0.08650  0.66980  0.17930  Biso   1.000  Al
  Al12     1.0000 0.60280  0.67280  0.92190  Biso   1.000  Al
  Al13     1.0000 0.50640  0.80940  0.26810  Biso   1.000  Al
  Al14     1.0000 0.27210  0.80600  0.49760  Biso   1.000  Al
  Al15     1.0000 0.72570  0.79280  0.72540  Biso   1.000  Al
  Al16     1.0000 0.50260  0.53670  0.27210  Biso   1.000  Al
  Al17     1.0000 0.72620  0.54460  0.72830  Biso   1.000  Al
  Al18     1.0000 0.27170  0.53410  0.50150  Biso   1.000  Al
  O40      1.0000 0.67210  0.66680  0.69250  Biso   1.000  O
  H4       1.0000 0.59190  0.66640  0.64130  Biso   1.000  H
  O41      1.0000 0.53930  0.58540  0.17340  Biso   1.000  O
  O42      1.0000 0.50100  0.66600  0.31800  Biso   1.000  O
  H5       1.0000 0.49700  0.66560  0.38630  Biso   1.000  H
  O43      1.0000 0.72180  0.67900  0.24860  Biso   1.000  O
  O44      1.0000 0.53670  0.75580  0.17160  Biso   1.000  O
  O45      1.0000 0.32400  0.67300  0.48100  Biso   1.000  O
  H6       1.0000 0.38170  0.67260  0.45960  Biso   1.000  H
  O46      1.0000 0.58670  0.67490  0.04080  Biso   1.000  O
  O47      1.0000 0.96090  0.67100  0.41400  Biso   1.000  O
  O48      1.0000 0.14150  0.58480  0.46950  Biso   1.000  O
  O49      1.0000 0.13760  0.75470  0.46480  Biso   1.000  O
  O50      1.0000 0.03950  0.67000  0.28070  Biso   1.000  O
  O51      1.0000 0.83530  0.58220  0.86820  Biso   1.000  O
  O52      1.0000 0.74910  0.67720  0.96880  Biso   1.000  O
  O53      1.0000 0.83900  0.74930  0.86800  Biso   1.000  O
  O54      1.0000 0.96370  0.67230  0.04490  Biso   1.000  O
  O55      1.0000 0.31360  0.81470  0.39050  Biso   1.000  O
  O56      1.0000 0.15980  0.76540  0.19200  Biso   1.000  O
  O57      1.0000 0.22410  0.92380  0.22660  Biso   1.000  O
  O58      1.0000 0.36170  0.80900  0.24270  Biso   1.000  O
  O59      1.0000 0.38180  0.79270  0.63890  Biso   1.000  O
  O60      1.0000 0.53780  0.77100  0.84880  Biso   1.000  O
  O61      1.0000 0.57870  0.82760  0.68780  Biso   1.000  O
  O62      1.0000 0.48600  0.91390  0.77300  Biso   1.000  O
  O63      1.0000 0.81150  0.76460  0.46690  Biso   1.000  O
  O64      1.0000 0.77380  0.79530  0.61870  Biso   1.000  O
  O65      1.0000 0.77050  0.91800  0.49550  Biso   1.000  O
  O66      1.0000 0.60570  0.81060  0.41710  Biso   1.000  O
  O67      1.0000 0.16290  0.56880  0.19330  Biso   1.000  O
  O68      1.0000 0.30540  0.51990  0.39090  Biso   1.000  O
  O69      1.0000 0.35930  0.53450  0.23090  Biso   1.000  O
  O70      1.0000 0.22260  0.41030  0.22530  Biso   1.000  O
  O71      1.0000 0.61700  0.53310  0.41400  Biso   1.000  O
  O72      1.0000 0.76090  0.54400  0.61900  Biso   1.000  O
  O73      1.0000 0.80980  0.56890  0.45590  Biso   1.000  O
  O74      1.0000 0.76800  0.41430  0.49000  Biso   1.000  O
  O75      1.0000 0.37880  0.55360  0.64150  Biso   1.000  O
  O76      1.0000 0.53710  0.57550  0.84350  Biso   1.000  O
  O77      1.0000 0.58250  0.51970  0.69790  Biso   1.000  O
  O78      1.0000 0.47750  0.41770  0.77080  Biso   1.000  O
