data_XAKQOR_clean
_audit_creation_date              2014-07-02
_audit_creation_method            'Materials Studio'
_symmetry_space_group_name_H-M    'P1'
_symmetry_Int_Tables_number       1
_symmetry_cell_setting            triclinic
loop_
_symmetry_equiv_pos_as_xyz
  x,y,z
_cell_length_a                    12.8829
_cell_length_b                    14.1565
_cell_length_c                    18.6819
_cell_angle_alpha                 104.8220
_cell_angle_beta                  98.4090
_cell_angle_gamma                 113.3670
loop_
_atom_site_label
_atom_site_type_symbol
_atom_site_fract_x
_atom_site_fract_y
_atom_site_fract_z
_atom_site_U_iso_or_equiv
_atom_site_adp_type
_atom_site_occupancy
Cu1    Cu    0.94260   0.88990   0.96795   0.01267  Uiso   1.00
Cu2    Cu    0.42987   0.52307   0.45445   0.01267  Uiso   1.00
Cu3    Cu    0.05740   0.11010   0.03205   0.01267  Uiso   1.00
Cu4    Cu    0.57013   0.47693   0.54555   0.01267  Uiso   1.00
H1     H     0.76490   0.68880   0.00520   0.01267  Uiso   1.00
H2     H     0.76460   0.38940   0.57290   0.01267  Uiso   1.00
H3     H     0.70880   0.36350   0.82570   0.01267  Uiso   1.00
H4     H     0.84540   0.41590   0.82940   0.01267  Uiso   1.00
H5     H     0.97100   0.75020   0.83360   0.01267  Uiso   1.00
H6     H     0.98320   0.63890   0.81430   0.01267  Uiso   1.00
H7     H     0.87410   0.64290   0.76420   0.01267  Uiso   1.00
H8     H     0.59820   0.48460   0.97130   0.01267  Uiso   1.00
H9     H     0.63820   0.39500   0.93230   0.01267  Uiso   1.00
H10    H     0.71060   0.48090   0.01750   0.01267  Uiso   1.00
H11    H     0.50390   0.45290   0.69110   0.01267  Uiso   1.00
H12    H     0.54460   0.42830   0.76650   0.01267  Uiso   1.00
H13    H     0.61060   0.54840   0.76230   0.01267  Uiso   1.00
H14    H     0.93760   0.38160   0.64850   0.01267  Uiso   1.00
H15    H     0.93900   0.38090   0.73410   0.01267  Uiso   1.00
H16    H     0.85330   0.27270   0.66160   0.01267  Uiso   1.00
H17    H     0.43030   0.79830   0.62290   0.01267  Uiso   1.00
H18    H     0.69790   0.76610   0.40410   0.01267  Uiso   1.00
H19    H     0.44960   0.93920   0.73020   0.01267  Uiso   1.00
H20    H     0.85700   0.89760   0.38350   0.01267  Uiso   1.00
H21    H     0.67800   0.87870   0.86260   0.01267  Uiso   1.00
H22    H     0.07520   0.80790   0.49390   0.01267  Uiso   1.00
H23    H     0.66020   0.74040   0.75470   0.01267  Uiso   1.00
H24    H     0.91580   0.67870   0.51750   0.01267  Uiso   1.00
H25    H     0.21610   0.83570   0.88830   0.01267  Uiso   1.00
H26    H     0.14550   0.14290   0.27680   0.01267  Uiso   1.00
H27    H     0.37390   0.83480   0.84290   0.01267  Uiso   1.00
H28    H     0.15190   0.12020   0.39690   0.01267  Uiso   1.00
H29    H     0.56190   0.16230   0.95780   0.01267  Uiso   1.00
H30    H     0.98670   0.79020   0.29070   0.01267  Uiso   1.00
H31    H     0.40390   0.16280   0.00420   0.01267  Uiso   1.00
H32    H     0.97890   0.81360   0.17180   0.01267  Uiso   1.00
H33    H     0.23510   0.31120   0.99480   0.01267  Uiso   1.00
H34    H     0.23540   0.61060   0.42710   0.01267  Uiso   1.00
H35    H     0.29120   0.63650   0.17430   0.01267  Uiso   1.00
H36    H     0.15460   0.58410   0.17060   0.01267  Uiso   1.00
H37    H     0.02900   0.24980   0.16640   0.01267  Uiso   1.00
H38    H     0.01680   0.36110   0.18570   0.01267  Uiso   1.00
H39    H     0.12590   0.35710   0.23580   0.01267  Uiso   1.00
H40    H     0.40180   0.51540   0.02870   0.01267  Uiso   1.00
H41    H     0.36180   0.60500   0.06770   0.01267  Uiso   1.00
H42    H     0.28940   0.51910   0.98250   0.01267  Uiso   1.00
H43    H     0.49610   0.54710   0.30890   0.01267  Uiso   1.00
H44    H     0.45540   0.57170   0.23350   0.01267  Uiso   1.00
H45    H     0.38940   0.45160   0.23770   0.01267  Uiso   1.00
H46    H     0.06240   0.61840   0.35150   0.01267  Uiso   1.00
H47    H     0.06100   0.61910   0.26590   0.01267  Uiso   1.00
H48    H     0.14670   0.72730   0.33840   0.01267  Uiso   1.00
H49    H     0.56970   0.20170   0.37710   0.01267  Uiso   1.00
H50    H     0.30210   0.23390   0.59590   0.01267  Uiso   1.00
H51    H     0.55040   0.06080   0.26980   0.01267  Uiso   1.00
H52    H     0.14300   0.10240   0.61650   0.01267  Uiso   1.00
H53    H     0.32200   0.12130   0.13740   0.01267  Uiso   1.00
H54    H     0.92480   0.19210   0.50610   0.01267  Uiso   1.00
H55    H     0.33980   0.25960   0.24530   0.01267  Uiso   1.00
H56    H     0.08420   0.32130   0.48250   0.01267  Uiso   1.00
H57    H     0.78390   0.16430   0.11170   0.01267  Uiso   1.00
H58    H     0.85450   0.85710   0.72320   0.01267  Uiso   1.00
H59    H     0.62610   0.16520   0.15710   0.01267  Uiso   1.00
H60    H     0.84810   0.87980   0.60310   0.01267  Uiso   1.00
H61    H     0.43810   0.83770   0.04220   0.01267  Uiso   1.00
H62    H     0.01330   0.20980   0.70930   0.01267  Uiso   1.00
H63    H     0.59610   0.83720   0.99580   0.01267  Uiso   1.00
H64    H     0.02110   0.18640   0.82820   0.01267  Uiso   1.00
C1     C     0.85780   0.63680   0.87040   0.01267  Uiso   1.00
C2     C     0.79150   0.53240   0.87320   0.01267  Uiso   1.00
C3     C     0.74380   0.54870   0.93370   0.01267  Uiso   1.00
C4     C     0.65620   0.43860   0.69850   0.01267  Uiso   1.00
C5     C     0.74150   0.41440   0.73460   0.01267  Uiso   1.00
C6     C     0.79500   0.38910   0.67980   0.01267  Uiso   1.00
C7     C     0.77270   0.42410   0.81760   0.01267  Uiso   1.00
C8     C     0.92750   0.67010   0.81590   0.01267  Uiso   1.00
C9     C     0.66590   0.47050   0.96660   0.01267  Uiso   1.00
C10    C     0.57160   0.46970   0.73250   0.01267  Uiso   1.00
C11    C     0.88930   0.35300   0.68110   0.01267  Uiso   1.00
C12    C     0.54220   0.75500   0.67900   0.01267  Uiso   1.00
C13    C     0.79000   0.70750   0.46180   0.01267  Uiso   1.00
C14    C     0.48050   0.81470   0.67170   0.01267  Uiso   1.00
C15    C     0.77480   0.77430   0.42260   0.01267  Uiso   1.00
C16    C     0.49170   0.89820   0.73530   0.01267  Uiso   1.00
C17    C     0.86860   0.85210   0.41010   0.01267  Uiso   1.00
C18    C     0.56440   0.92110   0.80570   0.01267  Uiso   1.00
C19    C     0.97960   0.86310   0.43650   0.01267  Uiso   1.00
C20    C     0.62780   0.86240   0.81380   0.01267  Uiso   1.00
C21    C     0.99800   0.79930   0.47590   0.01267  Uiso   1.00
C22    C     0.61660   0.78010   0.74990   0.01267  Uiso   1.00
C23    C     0.90310   0.72210   0.48930   0.01267  Uiso   1.00
C24    C     0.29190   0.99940   0.94950   0.01267  Uiso   1.00
C25    C     0.05970   0.98000   0.21200   0.01267  Uiso   1.00
C26    C     0.28610   0.90240   0.90210   0.01267  Uiso   1.00
C27    C     0.11230   0.07130   0.27960   0.01267  Uiso   1.00
C28    C     0.37940   0.90150   0.87500   0.01267  Uiso   1.00
C29    C     0.11650   0.05800   0.35080   0.01267  Uiso   1.00
C30    C     0.48140   0.99850   0.89470   0.01267  Uiso   1.00
C31    C     0.06840   0.95340   0.35380   0.01267  Uiso   1.00
C32    C     0.49110   0.09620   0.94350   0.01267  Uiso   1.00
C33    C     0.01790   0.86170   0.28770   0.01267  Uiso   1.00
C34    C     0.39720   0.09640   0.97070   0.01267  Uiso   1.00
C35    C     0.01390   0.87610   0.21760   0.01267  Uiso   1.00
C36    C     0.52480   0.66170   0.61090   0.01267  Uiso   1.00
C37    C     0.68680   0.62520   0.47710   0.01267  Uiso   1.00
C38    C     0.04740   0.99200   0.13440   0.01267  Uiso   1.00
C39    C     0.18750   0.00060   0.97400   0.01267  Uiso   1.00
C40    C     0.14220   0.36320   0.12960   0.01267  Uiso   1.00
C41    C     0.20850   0.46760   0.12680   0.01267  Uiso   1.00
C42    C     0.25620   0.45130   0.06630   0.01267  Uiso   1.00
C43    C     0.34380   0.56140   0.30150   0.01267  Uiso   1.00
C44    C     0.25850   0.58560   0.26540   0.01267  Uiso   1.00
C45    C     0.20500   0.61090   0.32020   0.01267  Uiso   1.00
C46    C     0.22730   0.57590   0.18240   0.01267  Uiso   1.00
C47    C     0.07250   0.32990   0.18410   0.01267  Uiso   1.00
C48    C     0.33410   0.52950   0.03340   0.01267  Uiso   1.00
C49    C     0.42840   0.53030   0.26750   0.01267  Uiso   1.00
C50    C     0.11070   0.64700   0.31890   0.01267  Uiso   1.00
C51    C     0.45780   0.24500   0.32100   0.01267  Uiso   1.00
C52    C     0.21000   0.29250   0.53820   0.01267  Uiso   1.00
C53    C     0.51950   0.18530   0.32830   0.01267  Uiso   1.00
C54    C     0.22520   0.22570   0.57740   0.01267  Uiso   1.00
C55    C     0.50830   0.10180   0.26470   0.01267  Uiso   1.00
C56    C     0.13140   0.14790   0.58990   0.01267  Uiso   1.00
C57    C     0.43560   0.07890   0.19430   0.01267  Uiso   1.00
C58    C     0.02040   0.13690   0.56350   0.01267  Uiso   1.00
C59    C     0.37220   0.13760   0.18620   0.01267  Uiso   1.00
C60    C     0.00200   0.20070   0.52410   0.01267  Uiso   1.00
C61    C     0.38340   0.21990   0.25010   0.01267  Uiso   1.00
C62    C     0.09690   0.27790   0.51070   0.01267  Uiso   1.00
C63    C     0.70810   0.00060   0.05050   0.01267  Uiso   1.00
C64    C     0.94030   0.02000   0.78800   0.01267  Uiso   1.00
C65    C     0.71390   0.09760   0.09790   0.01267  Uiso   1.00
C66    C     0.88770   0.92870   0.72040   0.01267  Uiso   1.00
C67    C     0.62060   0.09850   0.12500   0.01267  Uiso   1.00
C68    C     0.88350   0.94200   0.64920   0.01267  Uiso   1.00
C69    C     0.51860   0.00150   0.10530   0.01267  Uiso   1.00
C70    C     0.93160   0.04660   0.64620   0.01267  Uiso   1.00
C71    C     0.50890   0.90380   0.05650   0.01267  Uiso   1.00
C72    C     0.98210   0.13830   0.71230   0.01267  Uiso   1.00
C73    C     0.60280   0.90360   0.02930   0.01267  Uiso   1.00
C74    C     0.98610   0.12390   0.78240   0.01267  Uiso   1.00
C75    C     0.47520   0.33830   0.38910   0.01267  Uiso   1.00
C76    C     0.31320   0.37480   0.52290   0.01267  Uiso   1.00
C77    C     0.95260   0.00800   0.86560   0.01267  Uiso   1.00
C78    C     0.81250   0.99940   0.02600   0.01267  Uiso   1.00
N1     N     0.85180   0.71310   0.92670   0.01267  Uiso   1.00
N2     N     0.78240   0.65740   0.96480   0.01267  Uiso   1.00
N3     N     0.65840   0.43080   0.62630   0.01267  Uiso   1.00
N4     N     0.74430   0.40050   0.61610   0.01267  Uiso   1.00
N5     N     0.14820   0.28690   0.07330   0.01267  Uiso   1.00
N6     N     0.21760   0.34260   0.03520   0.01267  Uiso   1.00
N7     N     0.34160   0.56920   0.37370   0.01267  Uiso   1.00
N8     N     0.25570   0.59950   0.38390   0.01267  Uiso   1.00
O1     O     0.45710   0.64220   0.54755   0.01267  Uiso   1.00
O2     O     0.58710   0.61460   0.44596   0.01267  Uiso   1.00
O3     O     0.70640   0.57510   0.52013   0.01267  Uiso   1.00
O4     O     0.58040   0.60760   0.62217   0.01267  Uiso   1.00
O5     O     0.09840   0.90950   0.95596   0.01267  Uiso   1.00
O6     O     0.99270   0.90360   0.07659   0.01267  Uiso   1.00
O7     O     0.19560   0.09330   0.01066   0.01267  Uiso   1.00
O8     O     0.08960   0.08790   0.13162   0.01267  Uiso   1.00
O9     O     0.57920   0.00510   0.87077   0.01267  Uiso   1.00
O10    O     0.07830   0.94290   0.42677   0.01267  Uiso   1.00
O11    O     0.54290   0.35780   0.45245   0.01267  Uiso   1.00
O12    O     0.41290   0.38540   0.55404   0.01267  Uiso   1.00
O13    O     0.29360   0.42490   0.47987   0.01267  Uiso   1.00
O14    O     0.41960   0.39240   0.37783   0.01267  Uiso   1.00
O15    O     0.90160   0.09050   0.04404   0.01267  Uiso   1.00
O16    O     0.00730   0.09640   0.92341   0.01267  Uiso   1.00
O17    O     0.80440   0.90670   0.98934   0.01267  Uiso   1.00
O18    O     0.91040   0.91210   0.86838   0.01267  Uiso   1.00
O19    O     0.42080   0.99490   0.12923   0.01267  Uiso   1.00
O20    O     0.92170   0.05710   0.57323   0.01267  Uiso   1.00
