data_image0
_cell_length_a       10.1604
_cell_length_b       12.0085
_cell_length_c       7.1892
_cell_angle_alpha    90
_cell_angle_beta     90.797
_cell_angle_gamma    90

_symmetry_space_group_name_H-M    "P 1"
_symmetry_int_tables_number       1

loop_
  _symmetry_equiv_pos_as_xyz
  'x, y, z'

loop_
  _atom_site_label
  _atom_site_occupancy
  _atom_site_fract_x
  _atom_site_fract_y
  _atom_site_fract_z
  _atom_site_thermal_displace_type
  _atom_site_B_iso_or_equiv
  _atom_site_type_symbol
  Ga1      1.0000 0.83394  0.13153  0.32426  Biso   1.000  Ga
  P1       1.0000 0.11782  0.19412  0.25133  Biso   1.000  P
  O1       1.0000 0.97480  0.23073  0.29010  Biso   1.000  O
  O2       1.0000 0.19390  0.30170  0.20900  Biso   1.000  O
  O3       1.0000 0.18290  0.13690  0.42180  Biso   1.000  O
  O4       1.0000 0.87690  0.88440  0.91320  Biso   1.000  O
  Ga2      1.0000 0.33394  0.63153  0.32426  Biso   1.000  Ga
  P2       1.0000 0.61782  0.69412  0.25133  Biso   1.000  P
  O5       1.0000 0.47480  0.73073  0.29010  Biso   1.000  O
  O6       1.0000 0.69390  0.80170  0.20900  Biso   1.000  O
  O7       1.0000 0.68290  0.63690  0.42180  Biso   1.000  O
  O8       1.0000 0.37690  0.38440  0.91320  Biso   1.000  O
  Ga3      1.0000 0.16606  0.13153  0.67574  Biso   1.000  Ga
  P3       1.0000 0.88218  0.19412  0.74867  Biso   1.000  P
  O9       1.0000 0.02520  0.23073  0.70990  Biso   1.000  O
  O10      1.0000 0.80610  0.30170  0.79100  Biso   1.000  O
  O11      1.0000 0.81710  0.13690  0.57820  Biso   1.000  O
  O12      1.0000 0.12310  0.88440  0.08680  Biso   1.000  O
  Ga4      1.0000 0.66606  0.63153  0.67574  Biso   1.000  Ga
  P4       1.0000 0.38218  0.69412  0.74867  Biso   1.000  P
  O13      1.0000 0.52520  0.73073  0.70990  Biso   1.000  O
  O14      1.0000 0.30610  0.80170  0.79100  Biso   1.000  O
  O15      1.0000 0.31710  0.63690  0.57820  Biso   1.000  O
  O16      1.0000 0.62310  0.38440  0.08680  Biso   1.000  O
  Ga5      1.0000 0.16606  0.86847  0.67574  Biso   1.000  Ga
  P5       1.0000 0.88218  0.80588  0.74867  Biso   1.000  P
  O17      1.0000 0.02520  0.76927  0.70990  Biso   1.000  O
  O18      1.0000 0.80610  0.69830  0.79100  Biso   1.000  O
  O19      1.0000 0.81710  0.86310  0.57820  Biso   1.000  O
  O20      1.0000 0.12310  0.11560  0.08680  Biso   1.000  O
  Ga6      1.0000 0.66606  0.36847  0.67574  Biso   1.000  Ga
  P6       1.0000 0.38218  0.30588  0.74867  Biso   1.000  P
  O21      1.0000 0.52520  0.26927  0.70990  Biso   1.000  O
  O22      1.0000 0.30610  0.19830  0.79100  Biso   1.000  O
  O23      1.0000 0.31710  0.36310  0.57820  Biso   1.000  O
  O24      1.0000 0.62310  0.61560  0.08680  Biso   1.000  O
  Ga7      1.0000 0.83394  0.86847  0.32426  Biso   1.000  Ga
  P7       1.0000 0.11782  0.80588  0.25133  Biso   1.000  P
  O25      1.0000 0.97480  0.76927  0.29010  Biso   1.000  O
  O26      1.0000 0.19390  0.69830  0.20900  Biso   1.000  O
  O27      1.0000 0.18290  0.86310  0.42180  Biso   1.000  O
  O28      1.0000 0.87690  0.11560  0.91320  Biso   1.000  O
  Ga8      1.0000 0.33394  0.36847  0.32426  Biso   1.000  Ga
  P8       1.0000 0.61782  0.30588  0.25133  Biso   1.000  P
  O29      1.0000 0.47480  0.26927  0.29010  Biso   1.000  O
  O30      1.0000 0.69390  0.19830  0.20900  Biso   1.000  O
  O31      1.0000 0.68290  0.36310  0.42180  Biso   1.000  O
  O32      1.0000 0.37690  0.61560  0.91320  Biso   1.000  O
  Ga9      1.0000 0.00000  0.00000  0.00000  Biso   1.000  Ga
  Ga10     1.0000 0.50000  0.50000  0.00000  Biso   1.000  Ga
  O33      1.0000 0.89940  0.00000  0.23720  Biso   1.000  O
  O34      1.0000 0.39940  0.50000  0.23720  Biso   1.000  O
  O35      1.0000 0.10060  0.00000  0.76280  Biso   1.000  O
  O36      1.0000 0.60060  0.50000  0.76280  Biso   1.000  O
