data_image0
_cell_length_a       24.6493
_cell_length_b       24.0029
_cell_length_c       17.2267
_cell_angle_alpha    90
_cell_angle_beta     91.311
_cell_angle_gamma    90

_symmetry_space_group_name_H-M    "P 1"
_symmetry_int_tables_number       1

loop_
  _symmetry_equiv_pos_as_xyz
  'x, y, z'

loop_
  _atom_site_label
  _atom_site_occupancy
  _atom_site_fract_x
  _atom_site_fract_y
  _atom_site_fract_z
  _atom_site_thermal_displace_type
  _atom_site_B_iso_or_equiv
  _atom_site_type_symbol
  Zn1      1.0000 0.35300  0.43412  0.18990  Biso   1.000  Zn
  O1       1.0000 0.35370  0.45410  0.08120  Biso   1.000  O
  O2       1.0000 0.29370  0.38130  0.19970  Biso   1.000  O
  O3       1.0000 0.25620  0.43210  0.29600  Biso   1.000  O
  O4       1.0000 0.91840  0.10840  0.20710  Biso   1.000  O
  O5       1.0000 0.96680  0.06380  0.29740  Biso   1.000  O
  C1       1.0000 0.35390  0.45110  0.84300  Biso   1.000  C
  H1       1.0000 0.36010  0.41740  0.81780  Biso   1.000  H
  C2       1.0000 0.34970  0.45340  0.92200  Biso   1.000  C
  H2       1.0000 0.34500  0.42070  0.95000  Biso   1.000  H
  C3       1.0000 0.26200  0.39200  0.25200  Biso   1.000  C
  C4       1.0000 0.12680  0.31500  0.29400  Biso   1.000  C
  H3       1.0000 0.09700  0.31940  0.32600  Biso   1.000  H
  C5       1.0000 0.17000  0.35220  0.29900  Biso   1.000  C
  H4       1.0000 0.16870  0.38190  0.33350  Biso   1.000  H
  C6       1.0000 0.21420  0.34530  0.25200  Biso   1.000  C
  C7       1.0000 0.21570  0.30100  0.20000  Biso   1.000  C
  H5       1.0000 0.24550  0.29630  0.16840  Biso   1.000  H
  C8       1.0000 0.17300  0.26350  0.19550  Biso   1.000  C
  H6       1.0000 0.17380  0.23380  0.16080  Biso   1.000  H
  C9       1.0000 0.12830  0.27040  0.24300  Biso   1.000  C
  C10      1.0000 0.00520  0.18760  0.19120  Biso   1.000  C
  H7       1.0000 0.97700  0.18990  0.15450  Biso   1.000  H
  C11      1.0000 0.00680  0.14390  0.24400  Biso   1.000  C
  C12      1.0000 0.04890  0.14040  0.29890  Biso   1.000  C
  H8       1.0000 0.05000  0.11120  0.33430  Biso   1.000  H
  C13      1.0000 0.08950  0.18060  0.30070  Biso   1.000  C
  H9       1.0000 0.11770  0.17830  0.33740  Biso   1.000  H
  C14      1.0000 0.08800  0.22430  0.24800  Biso   1.000  C
  C15      1.0000 0.04580  0.22780  0.19300  Biso   1.000  C
  H10      1.0000 0.04480  0.25700  0.15760  Biso   1.000  H
  C16      1.0000 0.95600  0.10200  0.25200  Biso   1.000  C
  Zn2      1.0000 0.85300  0.93412  0.18990  Biso   1.000  Zn
  O6       1.0000 0.85370  0.95410  0.08120  Biso   1.000  O
  O7       1.0000 0.79370  0.88130  0.19970  Biso   1.000  O
  O8       1.0000 0.75620  0.93210  0.29600  Biso   1.000  O
  O9       1.0000 0.41840  0.60840  0.20710  Biso   1.000  O
  O10      1.0000 0.46680  0.56380  0.29740  Biso   1.000  O
  C17      1.0000 0.85390  0.95110  0.84300  Biso   1.000  C
  H11      1.0000 0.86010  0.91740  0.81780  Biso   1.000  H
  C18      1.0000 0.84970  0.95340  0.92200  Biso   1.000  C
  H12      1.0000 0.84500  0.92070  0.95000  Biso   1.000  H
  C19      1.0000 0.76200  0.89200  0.25200  Biso   1.000  C
  C20      1.0000 0.62680  0.81500  0.29400  Biso   1.000  C
  H13      1.0000 0.59700  0.81940  0.32600  Biso   1.000  H
  C21      1.0000 0.67000  0.85220  0.29900  Biso   1.000  C
  H14      1.0000 0.66870  0.88190  0.33350  Biso   1.000  H
  C22      1.0000 0.71420  0.84530  0.25200  Biso   1.000  C
  C23      1.0000 0.71570  0.80100  0.20000  Biso   1.000  C
  H15      1.0000 0.74550  0.79630  0.16840  Biso   1.000  H
  C24      1.0000 0.67300  0.76350  0.19550  Biso   1.000  C
  H16      1.0000 0.67380  0.73380  0.16080  Biso   1.000  H
  C25      1.0000 0.62830  0.77040  0.24300  Biso   1.000  C
  C26      1.0000 0.50520  0.68760  0.19120  Biso   1.000  C
  H17      1.0000 0.47700  0.68990  0.15450  Biso   1.000  H
  C27      1.0000 0.50680  0.64390  0.24400  Biso   1.000  C
  C28      1.0000 0.54890  0.64040  0.29890  Biso   1.000  C
  H18      1.0000 0.55000  0.61120  0.33430  Biso   1.000  H
  C29      1.0000 0.58950  0.68060  0.30070  Biso   1.000  C
  H19      1.0000 0.61770  0.67830  0.33740  Biso   1.000  H
  C30      1.0000 0.58800  0.72430  0.24800  Biso   1.000  C
  C31      1.0000 0.54580  0.72780  0.19300  Biso   1.000  C
  H20      1.0000 0.54480  0.75700  0.15760  Biso   1.000  H
  C32      1.0000 0.45600  0.60200  0.25200  Biso   1.000  C
  Zn3      1.0000 0.35300  0.56588  0.18990  Biso   1.000  Zn
  O11      1.0000 0.35370  0.54590  0.08120  Biso   1.000  O
  O12      1.0000 0.29370  0.61870  0.19970  Biso   1.000  O
  O13      1.0000 0.25620  0.56790  0.29600  Biso   1.000  O
  O14      1.0000 0.91840  0.89160  0.20710  Biso   1.000  O
  O15      1.0000 0.96680  0.93620  0.29740  Biso   1.000  O
  C33      1.0000 0.35390  0.54890  0.84300  Biso   1.000  C
  H21      1.0000 0.36010  0.58260  0.81780  Biso   1.000  H
  C34      1.0000 0.34970  0.54660  0.92200  Biso   1.000  C
  H22      1.0000 0.34500  0.57930  0.95000  Biso   1.000  H
  C35      1.0000 0.26200  0.60800  0.25200  Biso   1.000  C
  C36      1.0000 0.12680  0.68500  0.29400  Biso   1.000  C
  H23      1.0000 0.09700  0.68060  0.32600  Biso   1.000  H
  C37      1.0000 0.17000  0.64780  0.29900  Biso   1.000  C
  H24      1.0000 0.16870  0.61810  0.33350  Biso   1.000  H
  C38      1.0000 0.21420  0.65470  0.25200  Biso   1.000  C
  C39      1.0000 0.21570  0.69900  0.20000  Biso   1.000  C
  H25      1.0000 0.24550  0.70370  0.16840  Biso   1.000  H
  C40      1.0000 0.17300  0.73650  0.19550  Biso   1.000  C
  H26      1.0000 0.17380  0.76620  0.16080  Biso   1.000  H
  C41      1.0000 0.12830  0.72960  0.24300  Biso   1.000  C
  C42      1.0000 0.00520  0.81240  0.19120  Biso   1.000  C
  H27      1.0000 0.97700  0.81010  0.15450  Biso   1.000  H
  C43      1.0000 0.00680  0.85610  0.24400  Biso   1.000  C
  C44      1.0000 0.04890  0.85960  0.29890  Biso   1.000  C
  H28      1.0000 0.05000  0.88880  0.33430  Biso   1.000  H
  C45      1.0000 0.08950  0.81940  0.30070  Biso   1.000  C
  H29      1.0000 0.11770  0.82170  0.33740  Biso   1.000  H
  C46      1.0000 0.08800  0.77570  0.24800  Biso   1.000  C
  C47      1.0000 0.04580  0.77220  0.19300  Biso   1.000  C
  H30      1.0000 0.04480  0.74300  0.15760  Biso   1.000  H
  C48      1.0000 0.95600  0.89800  0.25200  Biso   1.000  C
  Zn4      1.0000 0.85300  0.06588  0.18990  Biso   1.000  Zn
  O16      1.0000 0.85370  0.04590  0.08120  Biso   1.000  O
  O17      1.0000 0.79370  0.11870  0.19970  Biso   1.000  O
  O18      1.0000 0.75620  0.06790  0.29600  Biso   1.000  O
  O19      1.0000 0.41840  0.39160  0.20710  Biso   1.000  O
  O20      1.0000 0.46680  0.43620  0.29740  Biso   1.000  O
  C49      1.0000 0.85390  0.04890  0.84300  Biso   1.000  C
  H31      1.0000 0.86010  0.08260  0.81780  Biso   1.000  H
  C50      1.0000 0.84970  0.04660  0.92200  Biso   1.000  C
  H32      1.0000 0.84500  0.07930  0.95000  Biso   1.000  H
  C51      1.0000 0.76200  0.10800  0.25200  Biso   1.000  C
  C52      1.0000 0.62680  0.18500  0.29400  Biso   1.000  C
  H33      1.0000 0.59700  0.18060  0.32600  Biso   1.000  H
  C53      1.0000 0.67000  0.14780  0.29900  Biso   1.000  C
  H34      1.0000 0.66870  0.11810  0.33350  Biso   1.000  H
  C54      1.0000 0.71420  0.15470  0.25200  Biso   1.000  C
  C55      1.0000 0.71570  0.19900  0.20000  Biso   1.000  C
  H35      1.0000 0.74550  0.20370  0.16840  Biso   1.000  H
  C56      1.0000 0.67300  0.23650  0.19550  Biso   1.000  C
  H36      1.0000 0.67380  0.26620  0.16080  Biso   1.000  H
  C57      1.0000 0.62830  0.22960  0.24300  Biso   1.000  C
  C58      1.0000 0.50520  0.31240  0.19120  Biso   1.000  C
  H37      1.0000 0.47700  0.31010  0.15450  Biso   1.000  H
  C59      1.0000 0.50680  0.35610  0.24400  Biso   1.000  C
  C60      1.0000 0.54890  0.35960  0.29890  Biso   1.000  C
  H38      1.0000 0.55000  0.38880  0.33430  Biso   1.000  H
  C61      1.0000 0.58950  0.31940  0.30070  Biso   1.000  C
  H39      1.0000 0.61770  0.32170  0.33740  Biso   1.000  H
  C62      1.0000 0.58800  0.27570  0.24800  Biso   1.000  C
  C63      1.0000 0.54580  0.27220  0.19300  Biso   1.000  C
  H40      1.0000 0.54480  0.24300  0.15760  Biso   1.000  H
  C64      1.0000 0.45600  0.39800  0.25200  Biso   1.000  C
  Zn5      1.0000 0.41770  0.50000  0.31980  Biso   1.000  Zn
  Zn6      1.0000 0.28690  0.50000  0.31960  Biso   1.000  Zn
  O21      1.0000 0.35350  0.50000  0.25430  Biso   1.000  O
  O22      1.0000 0.41020  0.50000  0.43270  Biso   1.000  O
  O23      1.0000 0.31900  0.50000  0.42300  Biso   1.000  O
  C65      1.0000 0.36360  0.50000  0.45800  Biso   1.000  C
  C66      1.0000 0.31400  0.50000  0.58300  Biso   1.000  C
  H41      1.0000 0.28250  0.50000  0.55130  Biso   1.000  H
  C67      1.0000 0.31000  0.50000  0.66400  Biso   1.000  C
  H42      1.0000 0.27660  0.50000  0.68700  Biso   1.000  H
  C68      1.0000 0.35800  0.50000  0.70900  Biso   1.000  C
  C69      1.0000 0.40800  0.50000  0.67400  Biso   1.000  C
  H43      1.0000 0.43950  0.50000  0.70580  Biso   1.000  H
  C70      1.0000 0.41300  0.50000  0.59400  Biso   1.000  C
  H44      1.0000 0.44680  0.50000  0.57080  Biso   1.000  H
  C71      1.0000 0.36500  0.50000  0.55100  Biso   1.000  C
  C72      1.0000 0.34900  0.50000  0.80100  Biso   1.000  C
  C73      1.0000 0.35200  0.50000  0.95700  Biso   1.000  C
  C74      1.0000 0.35000  0.50000  0.04400  Biso   1.000  C
  Zn7      1.0000 0.91770  0.00000  0.31980  Biso   1.000  Zn
  Zn8      1.0000 0.78690  0.00000  0.31960  Biso   1.000  Zn
  O24      1.0000 0.85350  0.00000  0.25430  Biso   1.000  O
  O25      1.0000 0.91020  0.00000  0.43270  Biso   1.000  O
  O26      1.0000 0.81900  0.00000  0.42300  Biso   1.000  O
  C75      1.0000 0.86360  0.00000  0.45800  Biso   1.000  C
  C76      1.0000 0.81400  0.00000  0.58300  Biso   1.000  C
  H45      1.0000 0.78250  0.00000  0.55130  Biso   1.000  H
  C77      1.0000 0.81000  0.00000  0.66400  Biso   1.000  C
  H46      1.0000 0.77660  0.00000  0.68700  Biso   1.000  H
  C78      1.0000 0.85800  0.00000  0.70900  Biso   1.000  C
  C79      1.0000 0.90800  0.00000  0.67400  Biso   1.000  C
  H47      1.0000 0.93950  0.00000  0.70580  Biso   1.000  H
  C80      1.0000 0.91300  0.00000  0.59400  Biso   1.000  C
  H48      1.0000 0.94680  0.00000  0.57080  Biso   1.000  H
  C81      1.0000 0.86500  0.00000  0.55100  Biso   1.000  C
  C82      1.0000 0.84900  0.00000  0.80100  Biso   1.000  C
  C83      1.0000 0.85200  0.00000  0.95700  Biso   1.000  C
  C84      1.0000 0.85000  0.00000  0.04400  Biso   1.000  C
  Zn9      1.0000 0.64700  0.43412  0.81010  Biso   1.000  Zn
  O27      1.0000 0.64630  0.45410  0.91880  Biso   1.000  O
  O28      1.0000 0.70630  0.38130  0.80030  Biso   1.000  O
  O29      1.0000 0.74380  0.43210  0.70400  Biso   1.000  O
  O30      1.0000 0.08160  0.10840  0.79290  Biso   1.000  O
  O31      1.0000 0.03320  0.06380  0.70260  Biso   1.000  O
  C85      1.0000 0.64610  0.45110  0.15700  Biso   1.000  C
  H49      1.0000 0.63990  0.41740  0.18220  Biso   1.000  H
  C86      1.0000 0.65030  0.45340  0.07800  Biso   1.000  C
  H50      1.0000 0.65500  0.42070  0.05000  Biso   1.000  H
  C87      1.0000 0.73800  0.39200  0.74800  Biso   1.000  C
  C88      1.0000 0.87320  0.31500  0.70600  Biso   1.000  C
  H51      1.0000 0.90300  0.31940  0.67400  Biso   1.000  H
  C89      1.0000 0.83000  0.35220  0.70100  Biso   1.000  C
  H52      1.0000 0.83130  0.38190  0.66650  Biso   1.000  H
  C90      1.0000 0.78580  0.34530  0.74800  Biso   1.000  C
  C91      1.0000 0.78430  0.30100  0.80000  Biso   1.000  C
  H53      1.0000 0.75450  0.29630  0.83160  Biso   1.000  H
  C92      1.0000 0.82700  0.26350  0.80450  Biso   1.000  C
  H54      1.0000 0.82620  0.23380  0.83920  Biso   1.000  H
  C93      1.0000 0.87170  0.27040  0.75700  Biso   1.000  C
  C94      1.0000 0.99480  0.18760  0.80880  Biso   1.000  C
  H55      1.0000 0.02300  0.18990  0.84550  Biso   1.000  H
  C95      1.0000 0.99320  0.14390  0.75600  Biso   1.000  C
  C96      1.0000 0.95110  0.14040  0.70110  Biso   1.000  C
  H56      1.0000 0.95000  0.11120  0.66570  Biso   1.000  H
  C97      1.0000 0.91050  0.18060  0.69930  Biso   1.000  C
  H57      1.0000 0.88230  0.17830  0.66260  Biso   1.000  H
  C98      1.0000 0.91200  0.22430  0.75200  Biso   1.000  C
  C99      1.0000 0.95420  0.22780  0.80700  Biso   1.000  C
  H58      1.0000 0.95520  0.25700  0.84240  Biso   1.000  H
  C100     1.0000 0.04400  0.10200  0.74800  Biso   1.000  C
  Zn10     1.0000 0.14700  0.93412  0.81010  Biso   1.000  Zn
  O32      1.0000 0.14630  0.95410  0.91880  Biso   1.000  O
  O33      1.0000 0.20630  0.88130  0.80030  Biso   1.000  O
  O34      1.0000 0.24380  0.93210  0.70400  Biso   1.000  O
  O35      1.0000 0.58160  0.60840  0.79290  Biso   1.000  O
  O36      1.0000 0.53320  0.56380  0.70260  Biso   1.000  O
  C101     1.0000 0.14610  0.95110  0.15700  Biso   1.000  C
  H59      1.0000 0.13990  0.91740  0.18220  Biso   1.000  H
  C102     1.0000 0.15030  0.95340  0.07800  Biso   1.000  C
  H60      1.0000 0.15500  0.92070  0.05000  Biso   1.000  H
  C103     1.0000 0.23800  0.89200  0.74800  Biso   1.000  C
  C104     1.0000 0.37320  0.81500  0.70600  Biso   1.000  C
  H61      1.0000 0.40300  0.81940  0.67400  Biso   1.000  H
  C105     1.0000 0.33000  0.85220  0.70100  Biso   1.000  C
  H62      1.0000 0.33130  0.88190  0.66650  Biso   1.000  H
  C106     1.0000 0.28580  0.84530  0.74800  Biso   1.000  C
  C107     1.0000 0.28430  0.80100  0.80000  Biso   1.000  C
  H63      1.0000 0.25450  0.79630  0.83160  Biso   1.000  H
  C108     1.0000 0.32700  0.76350  0.80450  Biso   1.000  C
  H64      1.0000 0.32620  0.73380  0.83920  Biso   1.000  H
  C109     1.0000 0.37170  0.77040  0.75700  Biso   1.000  C
  C110     1.0000 0.49480  0.68760  0.80880  Biso   1.000  C
  H65      1.0000 0.52300  0.68990  0.84550  Biso   1.000  H
  C111     1.0000 0.49320  0.64390  0.75600  Biso   1.000  C
  C112     1.0000 0.45110  0.64040  0.70110  Biso   1.000  C
  H66      1.0000 0.45000  0.61120  0.66570  Biso   1.000  H
  C113     1.0000 0.41050  0.68060  0.69930  Biso   1.000  C
  H67      1.0000 0.38230  0.67830  0.66260  Biso   1.000  H
  C114     1.0000 0.41200  0.72430  0.75200  Biso   1.000  C
  C115     1.0000 0.45420  0.72780  0.80700  Biso   1.000  C
  H68      1.0000 0.45520  0.75700  0.84240  Biso   1.000  H
  C116     1.0000 0.54400  0.60200  0.74800  Biso   1.000  C
  Zn11     1.0000 0.64700  0.56588  0.81010  Biso   1.000  Zn
  O37      1.0000 0.64630  0.54590  0.91880  Biso   1.000  O
  O38      1.0000 0.70630  0.61870  0.80030  Biso   1.000  O
  O39      1.0000 0.74380  0.56790  0.70400  Biso   1.000  O
  O40      1.0000 0.08160  0.89160  0.79290  Biso   1.000  O
  O41      1.0000 0.03320  0.93620  0.70260  Biso   1.000  O
  C117     1.0000 0.64610  0.54890  0.15700  Biso   1.000  C
  H69      1.0000 0.63990  0.58260  0.18220  Biso   1.000  H
  C118     1.0000 0.65030  0.54660  0.07800  Biso   1.000  C
  H70      1.0000 0.65500  0.57930  0.05000  Biso   1.000  H
  C119     1.0000 0.73800  0.60800  0.74800  Biso   1.000  C
  C120     1.0000 0.87320  0.68500  0.70600  Biso   1.000  C
  H71      1.0000 0.90300  0.68060  0.67400  Biso   1.000  H
  C121     1.0000 0.83000  0.64780  0.70100  Biso   1.000  C
  H72      1.0000 0.83130  0.61810  0.66650  Biso   1.000  H
  C122     1.0000 0.78580  0.65470  0.74800  Biso   1.000  C
  C123     1.0000 0.78430  0.69900  0.80000  Biso   1.000  C
  H73      1.0000 0.75450  0.70370  0.83160  Biso   1.000  H
  C124     1.0000 0.82700  0.73650  0.80450  Biso   1.000  C
  H74      1.0000 0.82620  0.76620  0.83920  Biso   1.000  H
  C125     1.0000 0.87170  0.72960  0.75700  Biso   1.000  C
  C126     1.0000 0.99480  0.81240  0.80880  Biso   1.000  C
  H75      1.0000 0.02300  0.81010  0.84550  Biso   1.000  H
  C127     1.0000 0.99320  0.85610  0.75600  Biso   1.000  C
  C128     1.0000 0.95110  0.85960  0.70110  Biso   1.000  C
  H76      1.0000 0.95000  0.88880  0.66570  Biso   1.000  H
  C129     1.0000 0.91050  0.81940  0.69930  Biso   1.000  C
  H77      1.0000 0.88230  0.82170  0.66260  Biso   1.000  H
  C130     1.0000 0.91200  0.77570  0.75200  Biso   1.000  C
  C131     1.0000 0.95420  0.77220  0.80700  Biso   1.000  C
  H78      1.0000 0.95520  0.74300  0.84240  Biso   1.000  H
  C132     1.0000 0.04400  0.89800  0.74800  Biso   1.000  C
  Zn12     1.0000 0.14700  0.06588  0.81010  Biso   1.000  Zn
  O42      1.0000 0.14630  0.04590  0.91880  Biso   1.000  O
  O43      1.0000 0.20630  0.11870  0.80030  Biso   1.000  O
  O44      1.0000 0.24380  0.06790  0.70400  Biso   1.000  O
  O45      1.0000 0.58160  0.39160  0.79290  Biso   1.000  O
  O46      1.0000 0.53320  0.43620  0.70260  Biso   1.000  O
  C133     1.0000 0.14610  0.04890  0.15700  Biso   1.000  C
  H79      1.0000 0.13990  0.08260  0.18220  Biso   1.000  H
  C134     1.0000 0.15030  0.04660  0.07800  Biso   1.000  C
  H80      1.0000 0.15500  0.07930  0.05000  Biso   1.000  H
  C135     1.0000 0.23800  0.10800  0.74800  Biso   1.000  C
  C136     1.0000 0.37320  0.18500  0.70600  Biso   1.000  C
  H81      1.0000 0.40300  0.18060  0.67400  Biso   1.000  H
  C137     1.0000 0.33000  0.14780  0.70100  Biso   1.000  C
  H82      1.0000 0.33130  0.11810  0.66650  Biso   1.000  H
  C138     1.0000 0.28580  0.15470  0.74800  Biso   1.000  C
  C139     1.0000 0.28430  0.19900  0.80000  Biso   1.000  C
  H83      1.0000 0.25450  0.20370  0.83160  Biso   1.000  H
  C140     1.0000 0.32700  0.23650  0.80450  Biso   1.000  C
  H84      1.0000 0.32620  0.26620  0.83920  Biso   1.000  H
  C141     1.0000 0.37170  0.22960  0.75700  Biso   1.000  C
  C142     1.0000 0.49480  0.31240  0.80880  Biso   1.000  C
  H85      1.0000 0.52300  0.31010  0.84550  Biso   1.000  H
  C143     1.0000 0.49320  0.35610  0.75600  Biso   1.000  C
  C144     1.0000 0.45110  0.35960  0.70110  Biso   1.000  C
  H86      1.0000 0.45000  0.38880  0.66570  Biso   1.000  H
  C145     1.0000 0.41050  0.31940  0.69930  Biso   1.000  C
  H87      1.0000 0.38230  0.32170  0.66260  Biso   1.000  H
  C146     1.0000 0.41200  0.27570  0.75200  Biso   1.000  C
  C147     1.0000 0.45420  0.27220  0.80700  Biso   1.000  C
  H88      1.0000 0.45520  0.24300  0.84240  Biso   1.000  H
  C148     1.0000 0.54400  0.39800  0.74800  Biso   1.000  C
  Zn13     1.0000 0.58230  0.50000  0.68020  Biso   1.000  Zn
  Zn14     1.0000 0.71310  0.50000  0.68040  Biso   1.000  Zn
  O47      1.0000 0.64650  0.50000  0.74570  Biso   1.000  O
  O48      1.0000 0.58980  0.50000  0.56730  Biso   1.000  O
  O49      1.0000 0.68100  0.50000  0.57700  Biso   1.000  O
  C149     1.0000 0.63640  0.50000  0.54200  Biso   1.000  C
  C150     1.0000 0.68600  0.50000  0.41700  Biso   1.000  C
  H89      1.0000 0.71750  0.50000  0.44870  Biso   1.000  H
  C151     1.0000 0.69000  0.50000  0.33600  Biso   1.000  C
  H90      1.0000 0.72340  0.50000  0.31300  Biso   1.000  H
  C152     1.0000 0.64200  0.50000  0.29100  Biso   1.000  C
  C153     1.0000 0.59200  0.50000  0.32600  Biso   1.000  C
  H91      1.0000 0.56050  0.50000  0.29420  Biso   1.000  H
  C154     1.0000 0.58700  0.50000  0.40600  Biso   1.000  C
  H92      1.0000 0.55320  0.50000  0.42920  Biso   1.000  H
  C155     1.0000 0.63500  0.50000  0.44900  Biso   1.000  C
  C156     1.0000 0.65100  0.50000  0.19900  Biso   1.000  C
  C157     1.0000 0.64800  0.50000  0.04300  Biso   1.000  C
  C158     1.0000 0.65000  0.50000  0.95600  Biso   1.000  C
  Zn15     1.0000 0.08230  0.00000  0.68020  Biso   1.000  Zn
  Zn16     1.0000 0.21310  0.00000  0.68040  Biso   1.000  Zn
  O50      1.0000 0.14650  0.00000  0.74570  Biso   1.000  O
  O51      1.0000 0.08980  0.00000  0.56730  Biso   1.000  O
  O52      1.0000 0.18100  0.00000  0.57700  Biso   1.000  O
  C159     1.0000 0.13640  0.00000  0.54200  Biso   1.000  C
  C160     1.0000 0.18600  0.00000  0.41700  Biso   1.000  C
  H93      1.0000 0.21750  0.00000  0.44870  Biso   1.000  H
  C161     1.0000 0.19000  0.00000  0.33600  Biso   1.000  C
  H94      1.0000 0.22340  0.00000  0.31300  Biso   1.000  H
  C162     1.0000 0.14200  0.00000  0.29100  Biso   1.000  C
  C163     1.0000 0.09200  0.00000  0.32600  Biso   1.000  C
  H95      1.0000 0.06050  0.00000  0.29420  Biso   1.000  H
  C164     1.0000 0.08700  0.00000  0.40600  Biso   1.000  C
  H96      1.0000 0.05320  0.00000  0.42920  Biso   1.000  H
  C165     1.0000 0.13500  0.00000  0.44900  Biso   1.000  C
  C166     1.0000 0.15100  0.00000  0.19900  Biso   1.000  C
  C167     1.0000 0.14800  0.00000  0.04300  Biso   1.000  C
  C168     1.0000 0.15000  0.00000  0.95600  Biso   1.000  C
