data_image0
_cell_length_a       13.6319
_cell_length_b       16.2211
_cell_length_c       15.7201
_cell_angle_alpha    90
_cell_angle_beta     96.607
_cell_angle_gamma    90

_symmetry_space_group_name_H-M    "P 1"
_symmetry_int_tables_number       1

loop_
  _symmetry_equiv_pos_as_xyz
  'x, y, z'

loop_
  _atom_site_label
  _atom_site_occupancy
  _atom_site_fract_x
  _atom_site_fract_y
  _atom_site_fract_z
  _atom_site_thermal_displace_type
  _atom_site_B_iso_or_equiv
  _atom_site_type_symbol
  Ag1      1.0000 0.01942  0.37808  0.91976  Biso   1.000  Ag
  S1       1.0000 0.09150  0.43818  0.08153  Biso   1.000  S
  S2       1.0000 0.37324  0.12904  0.20654  Biso   1.000  S
  N1       1.0000 0.18900  0.31443  0.97200  Biso   1.000  N
  N2       1.0000 0.14180  0.59202  0.07290  Biso   1.000  N
  N3       1.0000 0.34660  0.97220  0.18750  Biso   1.000  N
  C1       1.0000 0.20930  0.29840  0.05530  Biso   1.000  C
  C2       1.0000 0.27150  0.23410  0.08330  Biso   1.000  C
  C3       1.0000 0.16310  0.34970  0.12040  Biso   1.000  C
  H1       1.0000 0.21610  0.36890  0.16320  Biso   1.000  H
  H2       1.0000 0.12040  0.31360  0.14990  Biso   1.000  H
  C4       1.0000 0.18160  0.51650  0.07930  Biso   1.000  C
  C5       1.0000 0.28210  0.50340  0.08440  Biso   1.000  C
  H3       1.0000 0.30820  0.44970  0.08670  Biso   1.000  H
  C6       1.0000 0.34330  0.57140  0.08610  Biso   1.000  C
  H4       1.0000 0.41220  0.56450  0.09120  Biso   1.000  H
  C7       1.0000 0.30330  0.64880  0.08030  Biso   1.000  C
  H5       1.0000 0.34420  0.69560  0.08140  Biso   1.000  H
  C8       1.0000 0.20390  0.65690  0.07310  Biso   1.000  C
  H6       1.0000 0.17680  0.71020  0.06790  Biso   1.000  H
  C9       1.0000 0.29620  0.21710  0.17860  Biso   1.000  C
  H7       1.0000 0.23410  0.20990  0.20360  Biso   1.000  H
  H8       1.0000 0.32900  0.26600  0.20530  Biso   1.000  H
  C10      1.0000 0.29680  0.90180  0.16790  Biso   1.000  C
  H9       1.0000 0.33170  0.85170  0.17220  Biso   1.000  H
  C11      1.0000 0.19820  0.90020  0.14210  Biso   1.000  C
  H10      1.0000 0.16530  0.84990  0.12960  Biso   1.000  H
  C12      1.0000 0.14760  0.97370  0.13470  Biso   1.000  C
  H11      1.0000 0.07920  0.97400  0.11740  Biso   1.000  H
  C13      1.0000 0.19660  0.04680  0.15240  Biso   1.000  C
  H12      1.0000 0.16310  0.09760  0.14660  Biso   1.000  H
  C14      1.0000 0.29590  0.04330  0.17890  Biso   1.000  C
  Ag2      1.0000 0.51942  0.87808  0.91976  Biso   1.000  Ag
  S3       1.0000 0.59150  0.93818  0.08153  Biso   1.000  S
  S4       1.0000 0.87324  0.62904  0.20654  Biso   1.000  S
  N4       1.0000 0.68900  0.81443  0.97200  Biso   1.000  N
  N5       1.0000 0.64180  0.09202  0.07290  Biso   1.000  N
  N6       1.0000 0.84660  0.47220  0.18750  Biso   1.000  N
  C15      1.0000 0.70930  0.79840  0.05530  Biso   1.000  C
  C16      1.0000 0.77150  0.73410  0.08330  Biso   1.000  C
  C17      1.0000 0.66310  0.84970  0.12040  Biso   1.000  C
  H13      1.0000 0.71610  0.86890  0.16320  Biso   1.000  H
  H14      1.0000 0.62040  0.81360  0.14990  Biso   1.000  H
  C18      1.0000 0.68160  0.01650  0.07930  Biso   1.000  C
  C19      1.0000 0.78210  0.00340  0.08440  Biso   1.000  C
  H15      1.0000 0.80820  0.94970  0.08670  Biso   1.000  H
  C20      1.0000 0.84330  0.07140  0.08610  Biso   1.000  C
  H16      1.0000 0.91220  0.06450  0.09120  Biso   1.000  H
  C21      1.0000 0.80330  0.14880  0.08030  Biso   1.000  C
  H17      1.0000 0.84420  0.19560  0.08140  Biso   1.000  H
  C22      1.0000 0.70390  0.15690  0.07310  Biso   1.000  C
  H18      1.0000 0.67680  0.21020  0.06790  Biso   1.000  H
  C23      1.0000 0.79620  0.71710  0.17860  Biso   1.000  C
  H19      1.0000 0.73410  0.70990  0.20360  Biso   1.000  H
  H20      1.0000 0.82900  0.76600  0.20530  Biso   1.000  H
  C24      1.0000 0.79680  0.40180  0.16790  Biso   1.000  C
  H21      1.0000 0.83170  0.35170  0.17220  Biso   1.000  H
  C25      1.0000 0.69820  0.40020  0.14210  Biso   1.000  C
  H22      1.0000 0.66530  0.34990  0.12960  Biso   1.000  H
  C26      1.0000 0.64760  0.47370  0.13470  Biso   1.000  C
  H23      1.0000 0.57920  0.47400  0.11740  Biso   1.000  H
  C27      1.0000 0.69660  0.54680  0.15240  Biso   1.000  C
  H24      1.0000 0.66310  0.59760  0.14660  Biso   1.000  H
  C28      1.0000 0.79590  0.54330  0.17890  Biso   1.000  C
  Ag3      1.0000 0.98058  0.37808  0.58024  Biso   1.000  Ag
  S5       1.0000 0.90850  0.43818  0.41847  Biso   1.000  S
  S6       1.0000 0.62676  0.12904  0.29346  Biso   1.000  S
  N7       1.0000 0.81100  0.31443  0.52800  Biso   1.000  N
  N8       1.0000 0.85820  0.59202  0.42710  Biso   1.000  N
  N9       1.0000 0.65340  0.97220  0.31250  Biso   1.000  N
  C29      1.0000 0.79070  0.29840  0.44470  Biso   1.000  C
  C30      1.0000 0.72850  0.23410  0.41670  Biso   1.000  C
  C31      1.0000 0.83690  0.34970  0.37960  Biso   1.000  C
  H25      1.0000 0.78390  0.36890  0.33680  Biso   1.000  H
  H26      1.0000 0.87960  0.31360  0.35010  Biso   1.000  H
  C32      1.0000 0.81840  0.51650  0.42070  Biso   1.000  C
  C33      1.0000 0.71790  0.50340  0.41560  Biso   1.000  C
  H27      1.0000 0.69180  0.44970  0.41330  Biso   1.000  H
  C34      1.0000 0.65670  0.57140  0.41390  Biso   1.000  C
  H28      1.0000 0.58780  0.56450  0.40880  Biso   1.000  H
  C35      1.0000 0.69670  0.64880  0.41970  Biso   1.000  C
  H29      1.0000 0.65580  0.69560  0.41860  Biso   1.000  H
  C36      1.0000 0.79610  0.65690  0.42690  Biso   1.000  C
  H30      1.0000 0.82320  0.71020  0.43210  Biso   1.000  H
  C37      1.0000 0.70380  0.21710  0.32140  Biso   1.000  C
  H31      1.0000 0.76590  0.20990  0.29640  Biso   1.000  H
  H32      1.0000 0.67100  0.26600  0.29470  Biso   1.000  H
  C38      1.0000 0.70320  0.90180  0.33210  Biso   1.000  C
  H33      1.0000 0.66830  0.85170  0.32780  Biso   1.000  H
  C39      1.0000 0.80180  0.90020  0.35790  Biso   1.000  C
  H34      1.0000 0.83470  0.84990  0.37040  Biso   1.000  H
  C40      1.0000 0.85240  0.97370  0.36530  Biso   1.000  C
  H35      1.0000 0.92080  0.97400  0.38260  Biso   1.000  H
  C41      1.0000 0.80340  0.04680  0.34760  Biso   1.000  C
  H36      1.0000 0.83690  0.09760  0.35340  Biso   1.000  H
  C42      1.0000 0.70410  0.04330  0.32110  Biso   1.000  C
  Ag4      1.0000 0.48058  0.87808  0.58024  Biso   1.000  Ag
  S7       1.0000 0.40850  0.93818  0.41847  Biso   1.000  S
  S8       1.0000 0.12676  0.62904  0.29346  Biso   1.000  S
  N10      1.0000 0.31100  0.81443  0.52800  Biso   1.000  N
  N11      1.0000 0.35820  0.09202  0.42710  Biso   1.000  N
  N12      1.0000 0.15340  0.47220  0.31250  Biso   1.000  N
  C43      1.0000 0.29070  0.79840  0.44470  Biso   1.000  C
  C44      1.0000 0.22850  0.73410  0.41670  Biso   1.000  C
  C45      1.0000 0.33690  0.84970  0.37960  Biso   1.000  C
  H37      1.0000 0.28390  0.86890  0.33680  Biso   1.000  H
  H38      1.0000 0.37960  0.81360  0.35010  Biso   1.000  H
  C46      1.0000 0.31840  0.01650  0.42070  Biso   1.000  C
  C47      1.0000 0.21790  0.00340  0.41560  Biso   1.000  C
  H39      1.0000 0.19180  0.94970  0.41330  Biso   1.000  H
  C48      1.0000 0.15670  0.07140  0.41390  Biso   1.000  C
  H40      1.0000 0.08780  0.06450  0.40880  Biso   1.000  H
  C49      1.0000 0.19670  0.14880  0.41970  Biso   1.000  C
  H41      1.0000 0.15580  0.19560  0.41860  Biso   1.000  H
  C50      1.0000 0.29610  0.15690  0.42690  Biso   1.000  C
  H42      1.0000 0.32320  0.21020  0.43210  Biso   1.000  H
  C51      1.0000 0.20380  0.71710  0.32140  Biso   1.000  C
  H43      1.0000 0.26590  0.70990  0.29640  Biso   1.000  H
  H44      1.0000 0.17100  0.76600  0.29470  Biso   1.000  H
  C52      1.0000 0.20320  0.40180  0.33210  Biso   1.000  C
  H45      1.0000 0.16830  0.35170  0.32780  Biso   1.000  H
  C53      1.0000 0.30180  0.40020  0.35790  Biso   1.000  C
  H46      1.0000 0.33470  0.34990  0.37040  Biso   1.000  H
  C54      1.0000 0.35240  0.47370  0.36530  Biso   1.000  C
  H47      1.0000 0.42080  0.47400  0.38260  Biso   1.000  H
  C55      1.0000 0.30340  0.54680  0.34760  Biso   1.000  C
  H48      1.0000 0.33690  0.59760  0.35340  Biso   1.000  H
  C56      1.0000 0.20410  0.54330  0.32110  Biso   1.000  C
  Ag5      1.0000 0.98058  0.62192  0.08024  Biso   1.000  Ag
  S9       1.0000 0.90850  0.56182  0.91847  Biso   1.000  S
  S10      1.0000 0.62676  0.87096  0.79346  Biso   1.000  S
  N13      1.0000 0.81100  0.68557  0.02800  Biso   1.000  N
  N14      1.0000 0.85820  0.40798  0.92710  Biso   1.000  N
  N15      1.0000 0.65340  0.02780  0.81250  Biso   1.000  N
  C57      1.0000 0.79070  0.70160  0.94470  Biso   1.000  C
  C58      1.0000 0.72850  0.76590  0.91670  Biso   1.000  C
  C59      1.0000 0.83690  0.65030  0.87960  Biso   1.000  C
  H49      1.0000 0.78390  0.63110  0.83680  Biso   1.000  H
  H50      1.0000 0.87960  0.68640  0.85010  Biso   1.000  H
  C60      1.0000 0.81840  0.48350  0.92070  Biso   1.000  C
  C61      1.0000 0.71790  0.49660  0.91560  Biso   1.000  C
  H51      1.0000 0.69180  0.55030  0.91330  Biso   1.000  H
  C62      1.0000 0.65670  0.42860  0.91390  Biso   1.000  C
  H52      1.0000 0.58780  0.43550  0.90880  Biso   1.000  H
  C63      1.0000 0.69670  0.35120  0.91970  Biso   1.000  C
  H53      1.0000 0.65580  0.30440  0.91860  Biso   1.000  H
  C64      1.0000 0.79610  0.34310  0.92690  Biso   1.000  C
  H54      1.0000 0.82320  0.28980  0.93210  Biso   1.000  H
  C65      1.0000 0.70380  0.78290  0.82140  Biso   1.000  C
  H55      1.0000 0.76590  0.79010  0.79640  Biso   1.000  H
  H56      1.0000 0.67100  0.73400  0.79470  Biso   1.000  H
  C66      1.0000 0.70320  0.09820  0.83210  Biso   1.000  C
  H57      1.0000 0.66830  0.14830  0.82780  Biso   1.000  H
  C67      1.0000 0.80180  0.09980  0.85790  Biso   1.000  C
  H58      1.0000 0.83470  0.15010  0.87040  Biso   1.000  H
  C68      1.0000 0.85240  0.02630  0.86530  Biso   1.000  C
  H59      1.0000 0.92080  0.02600  0.88260  Biso   1.000  H
  C69      1.0000 0.80340  0.95320  0.84760  Biso   1.000  C
  H60      1.0000 0.83690  0.90240  0.85340  Biso   1.000  H
  C70      1.0000 0.70410  0.95670  0.82110  Biso   1.000  C
  Ag6      1.0000 0.48058  0.12192  0.08024  Biso   1.000  Ag
  S11      1.0000 0.40850  0.06182  0.91847  Biso   1.000  S
  S12      1.0000 0.12676  0.37096  0.79346  Biso   1.000  S
  N16      1.0000 0.31100  0.18557  0.02800  Biso   1.000  N
  N17      1.0000 0.35820  0.90798  0.92710  Biso   1.000  N
  N18      1.0000 0.15340  0.52780  0.81250  Biso   1.000  N
  C71      1.0000 0.29070  0.20160  0.94470  Biso   1.000  C
  C72      1.0000 0.22850  0.26590  0.91670  Biso   1.000  C
  C73      1.0000 0.33690  0.15030  0.87960  Biso   1.000  C
  H61      1.0000 0.28390  0.13110  0.83680  Biso   1.000  H
  H62      1.0000 0.37960  0.18640  0.85010  Biso   1.000  H
  C74      1.0000 0.31840  0.98350  0.92070  Biso   1.000  C
  C75      1.0000 0.21790  0.99660  0.91560  Biso   1.000  C
  H63      1.0000 0.19180  0.05030  0.91330  Biso   1.000  H
  C76      1.0000 0.15670  0.92860  0.91390  Biso   1.000  C
  H64      1.0000 0.08780  0.93550  0.90880  Biso   1.000  H
  C77      1.0000 0.19670  0.85120  0.91970  Biso   1.000  C
  H65      1.0000 0.15580  0.80440  0.91860  Biso   1.000  H
  C78      1.0000 0.29610  0.84310  0.92690  Biso   1.000  C
  H66      1.0000 0.32320  0.78980  0.93210  Biso   1.000  H
  C79      1.0000 0.20380  0.28290  0.82140  Biso   1.000  C
  H67      1.0000 0.26590  0.29010  0.79640  Biso   1.000  H
  H68      1.0000 0.17100  0.23400  0.79470  Biso   1.000  H
  C80      1.0000 0.20320  0.59820  0.83210  Biso   1.000  C
  H69      1.0000 0.16830  0.64830  0.82780  Biso   1.000  H
  C81      1.0000 0.30180  0.59980  0.85790  Biso   1.000  C
  H70      1.0000 0.33470  0.65010  0.87040  Biso   1.000  H
  C82      1.0000 0.35240  0.52630  0.86530  Biso   1.000  C
  H71      1.0000 0.42080  0.52600  0.88260  Biso   1.000  H
  C83      1.0000 0.30340  0.45320  0.84760  Biso   1.000  C
  H72      1.0000 0.33690  0.40240  0.85340  Biso   1.000  H
  C84      1.0000 0.20410  0.45670  0.82110  Biso   1.000  C
  Ag7      1.0000 0.01942  0.62192  0.41976  Biso   1.000  Ag
  S13      1.0000 0.09150  0.56182  0.58153  Biso   1.000  S
  S14      1.0000 0.37324  0.87096  0.70654  Biso   1.000  S
  N19      1.0000 0.18900  0.68557  0.47200  Biso   1.000  N
  N20      1.0000 0.14180  0.40798  0.57290  Biso   1.000  N
  N21      1.0000 0.34660  0.02780  0.68750  Biso   1.000  N
  C85      1.0000 0.20930  0.70160  0.55530  Biso   1.000  C
  C86      1.0000 0.27150  0.76590  0.58330  Biso   1.000  C
  C87      1.0000 0.16310  0.65030  0.62040  Biso   1.000  C
  H73      1.0000 0.21610  0.63110  0.66320  Biso   1.000  H
  H74      1.0000 0.12040  0.68640  0.64990  Biso   1.000  H
  C88      1.0000 0.18160  0.48350  0.57930  Biso   1.000  C
  C89      1.0000 0.28210  0.49660  0.58440  Biso   1.000  C
  H75      1.0000 0.30820  0.55030  0.58670  Biso   1.000  H
  C90      1.0000 0.34330  0.42860  0.58610  Biso   1.000  C
  H76      1.0000 0.41220  0.43550  0.59120  Biso   1.000  H
  C91      1.0000 0.30330  0.35120  0.58030  Biso   1.000  C
  H77      1.0000 0.34420  0.30440  0.58140  Biso   1.000  H
  C92      1.0000 0.20390  0.34310  0.57310  Biso   1.000  C
  H78      1.0000 0.17680  0.28980  0.56790  Biso   1.000  H
  C93      1.0000 0.29620  0.78290  0.67860  Biso   1.000  C
  H79      1.0000 0.23410  0.79010  0.70360  Biso   1.000  H
  H80      1.0000 0.32900  0.73400  0.70530  Biso   1.000  H
  C94      1.0000 0.29680  0.09820  0.66790  Biso   1.000  C
  H81      1.0000 0.33170  0.14830  0.67220  Biso   1.000  H
  C95      1.0000 0.19820  0.09980  0.64210  Biso   1.000  C
  H82      1.0000 0.16530  0.15010  0.62960  Biso   1.000  H
  C96      1.0000 0.14760  0.02630  0.63470  Biso   1.000  C
  H83      1.0000 0.07920  0.02600  0.61740  Biso   1.000  H
  C97      1.0000 0.19660  0.95320  0.65240  Biso   1.000  C
  H84      1.0000 0.16310  0.90240  0.64660  Biso   1.000  H
  C98      1.0000 0.29590  0.95670  0.67890  Biso   1.000  C
  Ag8      1.0000 0.51942  0.12192  0.41976  Biso   1.000  Ag
  S15      1.0000 0.59150  0.06182  0.58153  Biso   1.000  S
  S16      1.0000 0.87324  0.37096  0.70654  Biso   1.000  S
  N22      1.0000 0.68900  0.18557  0.47200  Biso   1.000  N
  N23      1.0000 0.64180  0.90798  0.57290  Biso   1.000  N
  N24      1.0000 0.84660  0.52780  0.68750  Biso   1.000  N
  C99      1.0000 0.70930  0.20160  0.55530  Biso   1.000  C
  C100     1.0000 0.77150  0.26590  0.58330  Biso   1.000  C
  C101     1.0000 0.66310  0.15030  0.62040  Biso   1.000  C
  H85      1.0000 0.71610  0.13110  0.66320  Biso   1.000  H
  H86      1.0000 0.62040  0.18640  0.64990  Biso   1.000  H
  C102     1.0000 0.68160  0.98350  0.57930  Biso   1.000  C
  C103     1.0000 0.78210  0.99660  0.58440  Biso   1.000  C
  H87      1.0000 0.80820  0.05030  0.58670  Biso   1.000  H
  C104     1.0000 0.84330  0.92860  0.58610  Biso   1.000  C
  H88      1.0000 0.91220  0.93550  0.59120  Biso   1.000  H
  C105     1.0000 0.80330  0.85120  0.58030  Biso   1.000  C
  H89      1.0000 0.84420  0.80440  0.58140  Biso   1.000  H
  C106     1.0000 0.70390  0.84310  0.57310  Biso   1.000  C
  H90      1.0000 0.67680  0.78980  0.56790  Biso   1.000  H
  C107     1.0000 0.79620  0.28290  0.67860  Biso   1.000  C
  H91      1.0000 0.73410  0.29010  0.70360  Biso   1.000  H
  H92      1.0000 0.82900  0.23400  0.70530  Biso   1.000  H
  C108     1.0000 0.79680  0.59820  0.66790  Biso   1.000  C
  H93      1.0000 0.83170  0.64830  0.67220  Biso   1.000  H
  C109     1.0000 0.69820  0.59980  0.64210  Biso   1.000  C
  H94      1.0000 0.66530  0.65010  0.62960  Biso   1.000  H
  C110     1.0000 0.64760  0.52630  0.63470  Biso   1.000  C
  H95      1.0000 0.57920  0.52600  0.61740  Biso   1.000  H
  C111     1.0000 0.69660  0.45320  0.65240  Biso   1.000  C
  H96      1.0000 0.66310  0.40240  0.64660  Biso   1.000  H
  C112     1.0000 0.79590  0.45670  0.67890  Biso   1.000  C
  Ag9      1.0000 0.50000  0.96675  0.25000  Biso   1.000  Ag
  Ag10     1.0000 0.00000  0.46675  0.25000  Biso   1.000  Ag
  Ag11     1.0000 0.50000  0.03325  0.75000  Biso   1.000  Ag
  Ag12     1.0000 0.00000  0.53325  0.75000  Biso   1.000  Ag
