data_XALTEK_clean
_audit_creation_date              2014-07-02
_audit_creation_method            'Materials Studio'
_symmetry_space_group_name_H-M    'P1'
_symmetry_Int_Tables_number       1
_symmetry_cell_setting            triclinic
loop_
_symmetry_equiv_pos_as_xyz
  x,y,z
_cell_length_a                    8.7388
_cell_length_b                    11.7417
_cell_length_c                    15.1238
_cell_angle_alpha                 90.0000
_cell_angle_beta                  92.6050
_cell_angle_gamma                 90.0000
loop_
_atom_site_label
_atom_site_type_symbol
_atom_site_fract_x
_atom_site_fract_y
_atom_site_fract_z
_atom_site_U_iso_or_equiv
_atom_site_adp_type
_atom_site_occupancy
Cu1    Cu    0.31041   0.15542   0.75167   0.01267  Uiso   1.00
Cu2    Cu    0.50136   0.34154   0.86407   0.01267  Uiso   1.00
Cu3    Cu    0.68959   0.15542   0.74833   0.01267  Uiso   1.00
Cu4    Cu    0.49864   0.34154   0.63593   0.01267  Uiso   1.00
Cu5    Cu    0.68959   0.84458   0.24833   0.01267  Uiso   1.00
Cu6    Cu    0.49864   0.65846   0.13593   0.01267  Uiso   1.00
Cu7    Cu    0.31041   0.84458   0.25167   0.01267  Uiso   1.00
Cu8    Cu    0.50136   0.65846   0.36407   0.01267  Uiso   1.00
H1     H     0.32500   0.12900   0.55040   0.01267  Uiso   1.00
H2     H     0.50030   0.09950   0.54580   0.01267  Uiso   1.00
H3     H     0.48030   0.95600   0.65080   0.01267  Uiso   1.00
H4     H     0.34650   0.93490   0.57940   0.01267  Uiso   1.00
H5     H     0.48010   0.55290   0.85120   0.01267  Uiso   1.00
H6     H     0.38630   0.51850   0.92390   0.01267  Uiso   1.00
H7     H     0.13090   0.38530   0.74810   0.01267  Uiso   1.00
H8     H     0.15920   0.36330   0.85030   0.01267  Uiso   1.00
H9     H     0.19580   0.55610   0.83290   0.01267  Uiso   1.00
H10    H     0.29750   0.53690   0.75100   0.01267  Uiso   1.00
H11    H     0.17640   0.00210   0.66840   0.01267  Uiso   1.00
H12    H     0.28040   0.94800   0.73390   0.01267  Uiso   1.00
H13    H     0.67500   0.12900   0.94960   0.01267  Uiso   1.00
H14    H     0.49970   0.09950   0.95420   0.01267  Uiso   1.00
H15    H     0.51970   0.95600   0.84920   0.01267  Uiso   1.00
H16    H     0.65350   0.93490   0.92060   0.01267  Uiso   1.00
H17    H     0.51990   0.55290   0.64880   0.01267  Uiso   1.00
H18    H     0.61370   0.51850   0.57610   0.01267  Uiso   1.00
H19    H     0.86910   0.38530   0.75190   0.01267  Uiso   1.00
H20    H     0.84080   0.36330   0.64970   0.01267  Uiso   1.00
H21    H     0.80420   0.55610   0.66710   0.01267  Uiso   1.00
H22    H     0.70250   0.53690   0.74900   0.01267  Uiso   1.00
H23    H     0.82360   0.00210   0.83160   0.01267  Uiso   1.00
H24    H     0.71960   0.94800   0.76610   0.01267  Uiso   1.00
H25    H     0.67500   0.87100   0.44960   0.01267  Uiso   1.00
H26    H     0.49970   0.90050   0.45420   0.01267  Uiso   1.00
H27    H     0.51970   0.04400   0.34920   0.01267  Uiso   1.00
H28    H     0.65350   0.06510   0.42060   0.01267  Uiso   1.00
H29    H     0.51990   0.44710   0.14880   0.01267  Uiso   1.00
H30    H     0.61370   0.48150   0.07610   0.01267  Uiso   1.00
H31    H     0.86910   0.61470   0.25190   0.01267  Uiso   1.00
H32    H     0.84080   0.63670   0.14970   0.01267  Uiso   1.00
H33    H     0.80420   0.44390   0.16710   0.01267  Uiso   1.00
H34    H     0.70250   0.46310   0.24900   0.01267  Uiso   1.00
H35    H     0.82360   0.99790   0.33160   0.01267  Uiso   1.00
H36    H     0.71960   0.05200   0.26610   0.01267  Uiso   1.00
H37    H     0.32500   0.87100   0.05040   0.01267  Uiso   1.00
H38    H     0.50030   0.90050   0.04580   0.01267  Uiso   1.00
H39    H     0.48030   0.04400   0.15080   0.01267  Uiso   1.00
H40    H     0.34650   0.06510   0.07940   0.01267  Uiso   1.00
H41    H     0.48010   0.44710   0.35120   0.01267  Uiso   1.00
H42    H     0.38630   0.48150   0.42390   0.01267  Uiso   1.00
H43    H     0.13090   0.61470   0.24810   0.01267  Uiso   1.00
H44    H     0.15920   0.63670   0.35030   0.01267  Uiso   1.00
H45    H     0.19580   0.44390   0.33290   0.01267  Uiso   1.00
H46    H     0.29750   0.46310   0.25100   0.01267  Uiso   1.00
H47    H     0.17640   0.99790   0.16840   0.01267  Uiso   1.00
H48    H     0.28040   0.05200   0.23390   0.01267  Uiso   1.00
Au1    Au    0.00000   0.00000   0.00000   0.01267  Uiso   1.00
Au2    Au    0.00000   0.00000   0.50000   0.01267  Uiso   1.00
Au3    Au    0.00000   0.50000   0.00000   0.01267  Uiso   1.00
Au4    Au    0.00000   0.50000   0.50000   0.01267  Uiso   1.00
C1     C     0.10680   0.07480   0.90230   0.01267  Uiso   1.00
C2     C     0.81230   0.42450   0.95005   0.01267  Uiso   1.00
C3     C     0.41500   0.10320   0.58460   0.01267  Uiso   1.00
C4     C     0.38600   0.98710   0.62450   0.01267  Uiso   1.00
C5     C     0.20700   0.38740   0.79680   0.01267  Uiso   1.00
C6     C     0.27160   0.50650   0.80810   0.01267  Uiso   1.00
C7     C     0.89320   0.07480   0.59770   0.01267  Uiso   1.00
C8     C     0.18770   0.42450   0.54995   0.01267  Uiso   1.00
C9     C     0.58500   0.10320   0.91540   0.01267  Uiso   1.00
C10    C     0.61400   0.98710   0.87550   0.01267  Uiso   1.00
C11    C     0.79300   0.38740   0.70320   0.01267  Uiso   1.00
C12    C     0.72840   0.50650   0.69190   0.01267  Uiso   1.00
C13    C     0.89320   0.92520   0.09770   0.01267  Uiso   1.00
C14    C     0.18770   0.57550   0.04995   0.01267  Uiso   1.00
C15    C     0.58500   0.89680   0.41540   0.01267  Uiso   1.00
C16    C     0.61400   0.01290   0.37550   0.01267  Uiso   1.00
C17    C     0.79300   0.61260   0.20320   0.01267  Uiso   1.00
C18    C     0.72840   0.49350   0.19190   0.01267  Uiso   1.00
C19    C     0.10680   0.92520   0.40230   0.01267  Uiso   1.00
C20    C     0.81230   0.57550   0.45005   0.01267  Uiso   1.00
C21    C     0.41500   0.89680   0.08460   0.01267  Uiso   1.00
C22    C     0.38600   0.01290   0.12450   0.01267  Uiso   1.00
C23    C     0.20700   0.61260   0.29680   0.01267  Uiso   1.00
C24    C     0.27160   0.49350   0.30810   0.01267  Uiso   1.00
N1     N     0.17160   0.11620   0.84594   0.01267  Uiso   1.00
N2     N     0.69960   0.38500   0.92229   0.01267  Uiso   1.00
N3     N     0.41090   0.50164   0.86826   0.01267  Uiso   1.00
N4     N     0.27180   0.00400   0.69335   0.01267  Uiso   1.00
N5     N     0.82840   0.11620   0.65406   0.01267  Uiso   1.00
N6     N     0.30040   0.38500   0.57771   0.01267  Uiso   1.00
N7     N     0.58910   0.50164   0.63174   0.01267  Uiso   1.00
N8     N     0.72820   0.00400   0.80665   0.01267  Uiso   1.00
N9     N     0.82840   0.88380   0.15406   0.01267  Uiso   1.00
N10    N     0.30040   0.61500   0.07771   0.01267  Uiso   1.00
N11    N     0.58910   0.49836   0.13174   0.01267  Uiso   1.00
N12    N     0.72820   0.99600   0.30665   0.01267  Uiso   1.00
N13    N     0.17160   0.88380   0.34594   0.01267  Uiso   1.00
N14    N     0.69960   0.61500   0.42229   0.01267  Uiso   1.00
N15    N     0.41090   0.49836   0.36826   0.01267  Uiso   1.00
N16    N     0.27180   0.99600   0.19335   0.01267  Uiso   1.00
O1     O     0.33220   0.31504   0.77894   0.01267  Uiso   1.00
O2     O     0.44920   0.17901   0.65623   0.01267  Uiso   1.00
O3     O     0.66780   0.31504   0.72106   0.01267  Uiso   1.00
O4     O     0.55080   0.17901   0.84377   0.01267  Uiso   1.00
O5     O     0.66780   0.68496   0.22106   0.01267  Uiso   1.00
O6     O     0.55080   0.82099   0.34377   0.01267  Uiso   1.00
O7     O     0.33220   0.68496   0.27894   0.01267  Uiso   1.00
O8     O     0.44920   0.82099   0.15623   0.01267  Uiso   1.00
