data_XALTIP_clean
_audit_creation_date              2014-07-02
_audit_creation_method            'Materials Studio'
_symmetry_space_group_name_H-M    'P1'
_symmetry_Int_Tables_number       1
_symmetry_cell_setting            triclinic
loop_
_symmetry_equiv_pos_as_xyz
  x,y,z
_cell_length_a                    21.9168
_cell_length_b                    21.9168
_cell_length_c                    21.9168
_cell_angle_alpha                 60.0000
_cell_angle_beta                  60.0000
_cell_angle_gamma                 60.0000
loop_
_atom_site_label
_atom_site_type_symbol
_atom_site_fract_x
_atom_site_fract_y
_atom_site_fract_z
_atom_site_U_iso_or_equiv
_atom_site_adp_type
_atom_site_occupancy
Zn1    Zn    0.25000   0.25000   0.25000   0.01267  Uiso   1.00
Zn2    Zn    0.75000   0.75000   0.75000   0.01267  Uiso   1.00
Co1    Co    0.18152   0.45546   0.18151   0.01267  Uiso   1.00
Co2    Co    0.45547   0.18151   0.18151   0.01267  Uiso   1.00
Co3    Co    0.18152   0.18151   0.18151   0.01267  Uiso   1.00
Co4    Co    0.18152   0.18151   0.45546   0.01267  Uiso   1.00
Co5    Co    0.54453   0.81849   0.81849   0.01267  Uiso   1.00
Co6    Co    0.81848   0.54454   0.81849   0.01267  Uiso   1.00
Co7    Co    0.81848   0.81849   0.81849   0.01267  Uiso   1.00
Co8    Co    0.81848   0.81849   0.54454   0.01267  Uiso   1.00
H1     H     0.07873   0.52901   0.31353   0.01267  Uiso   1.00
H2     H     0.52901   0.07873   0.07873   0.01267  Uiso   1.00
H3     H     0.31353   0.07873   0.07873   0.01267  Uiso   1.00
H4     H     0.07873   0.31353   0.52901   0.01267  Uiso   1.00
H5     H     0.07873   0.31353   0.07873   0.01267  Uiso   1.00
H6     H     0.52901   0.07873   0.31353   0.01267  Uiso   1.00
H7     H     0.31353   0.07873   0.52901   0.01267  Uiso   1.00
H8     H     0.07873   0.52901   0.07873   0.01267  Uiso   1.00
H9     H     0.07873   0.07873   0.52901   0.01267  Uiso   1.00
H10    H     0.52901   0.31353   0.07873   0.01267  Uiso   1.00
H11    H     0.31353   0.52901   0.07873   0.01267  Uiso   1.00
H12    H     0.07873   0.07873   0.31353   0.01267  Uiso   1.00
H13    H     0.47099   0.92127   0.68647   0.01267  Uiso   1.00
H14    H     0.92127   0.47099   0.92127   0.01267  Uiso   1.00
H15    H     0.92127   0.68647   0.92127   0.01267  Uiso   1.00
H16    H     0.68647   0.92127   0.47099   0.01267  Uiso   1.00
H17    H     0.68647   0.92127   0.92127   0.01267  Uiso   1.00
H18    H     0.92127   0.47099   0.68647   0.01267  Uiso   1.00
H19    H     0.92127   0.68647   0.47099   0.01267  Uiso   1.00
H20    H     0.47099   0.92127   0.92127   0.01267  Uiso   1.00
H21    H     0.92127   0.92127   0.47099   0.01267  Uiso   1.00
H22    H     0.68647   0.47099   0.92127   0.01267  Uiso   1.00
H23    H     0.47099   0.68647   0.92127   0.01267  Uiso   1.00
H24    H     0.92127   0.92127   0.68647   0.01267  Uiso   1.00
C1     C     0.11733   0.41571   0.34963   0.01267  Uiso   1.00
C2     C     0.07850   0.48675   0.35625   0.01267  Uiso   1.00
C3     C     0.03880   0.49496   0.42744   0.01267  Uiso   1.00
C4     C     0.41571   0.11733   0.11733   0.01267  Uiso   1.00
C5     C     0.48675   0.07850   0.07850   0.01267  Uiso   1.00
C6     C     0.49496   0.03880   0.03880   0.01267  Uiso   1.00
C7     C     0.34963   0.11733   0.11733   0.01267  Uiso   1.00
C8     C     0.35625   0.07850   0.07850   0.01267  Uiso   1.00
C9     C     0.42744   0.03880   0.03880   0.01267  Uiso   1.00
C10    C     0.11733   0.34963   0.41571   0.01267  Uiso   1.00
C11    C     0.07850   0.35625   0.48675   0.01267  Uiso   1.00
C12    C     0.03880   0.42744   0.49496   0.01267  Uiso   1.00
C13    C     0.11733   0.34963   0.11733   0.01267  Uiso   1.00
C14    C     0.07850   0.35625   0.07850   0.01267  Uiso   1.00
C15    C     0.03880   0.42744   0.03880   0.01267  Uiso   1.00
C16    C     0.41571   0.11733   0.34963   0.01267  Uiso   1.00
C17    C     0.48675   0.07850   0.35625   0.01267  Uiso   1.00
C18    C     0.49496   0.03880   0.42744   0.01267  Uiso   1.00
C19    C     0.34963   0.11733   0.41571   0.01267  Uiso   1.00
C20    C     0.35625   0.07850   0.48675   0.01267  Uiso   1.00
C21    C     0.42744   0.03880   0.49496   0.01267  Uiso   1.00
C22    C     0.11733   0.41571   0.11733   0.01267  Uiso   1.00
C23    C     0.07850   0.48675   0.07850   0.01267  Uiso   1.00
C24    C     0.03880   0.49496   0.03880   0.01267  Uiso   1.00
C25    C     0.11733   0.11733   0.41571   0.01267  Uiso   1.00
C26    C     0.07850   0.07850   0.48675   0.01267  Uiso   1.00
C27    C     0.03880   0.03880   0.49496   0.01267  Uiso   1.00
C28    C     0.41571   0.34963   0.11733   0.01267  Uiso   1.00
C29    C     0.48675   0.35625   0.07850   0.01267  Uiso   1.00
C30    C     0.49496   0.42744   0.03880   0.01267  Uiso   1.00
C31    C     0.34963   0.41571   0.11733   0.01267  Uiso   1.00
C32    C     0.35625   0.48675   0.07850   0.01267  Uiso   1.00
C33    C     0.42744   0.49496   0.03880   0.01267  Uiso   1.00
C34    C     0.11733   0.11733   0.34963   0.01267  Uiso   1.00
C35    C     0.07850   0.07850   0.35625   0.01267  Uiso   1.00
C36    C     0.03880   0.03880   0.42744   0.01267  Uiso   1.00
C37    C     0.58429   0.88267   0.65037   0.01267  Uiso   1.00
C38    C     0.51325   0.92150   0.64375   0.01267  Uiso   1.00
C39    C     0.50504   0.96120   0.57256   0.01267  Uiso   1.00
C40    C     0.88267   0.58429   0.88267   0.01267  Uiso   1.00
C41    C     0.92150   0.51325   0.92150   0.01267  Uiso   1.00
C42    C     0.96120   0.50504   0.96120   0.01267  Uiso   1.00
C43    C     0.88267   0.65037   0.88267   0.01267  Uiso   1.00
C44    C     0.92150   0.64375   0.92150   0.01267  Uiso   1.00
C45    C     0.96120   0.57256   0.96120   0.01267  Uiso   1.00
C46    C     0.65037   0.88267   0.58429   0.01267  Uiso   1.00
C47    C     0.64375   0.92150   0.51325   0.01267  Uiso   1.00
C48    C     0.57256   0.96120   0.50504   0.01267  Uiso   1.00
C49    C     0.65037   0.88267   0.88267   0.01267  Uiso   1.00
C50    C     0.64375   0.92150   0.92150   0.01267  Uiso   1.00
C51    C     0.57256   0.96120   0.96120   0.01267  Uiso   1.00
C52    C     0.88267   0.58429   0.65037   0.01267  Uiso   1.00
C53    C     0.92150   0.51325   0.64375   0.01267  Uiso   1.00
C54    C     0.96120   0.50504   0.57256   0.01267  Uiso   1.00
C55    C     0.88267   0.65037   0.58429   0.01267  Uiso   1.00
C56    C     0.92150   0.64375   0.51325   0.01267  Uiso   1.00
C57    C     0.96120   0.57256   0.50504   0.01267  Uiso   1.00
C58    C     0.58429   0.88267   0.88267   0.01267  Uiso   1.00
C59    C     0.51325   0.92150   0.92150   0.01267  Uiso   1.00
C60    C     0.50504   0.96120   0.96120   0.01267  Uiso   1.00
C61    C     0.88267   0.88267   0.58429   0.01267  Uiso   1.00
C62    C     0.92150   0.92150   0.51325   0.01267  Uiso   1.00
C63    C     0.96120   0.96120   0.50504   0.01267  Uiso   1.00
C64    C     0.65037   0.58429   0.88267   0.01267  Uiso   1.00
C65    C     0.64375   0.51325   0.92150   0.01267  Uiso   1.00
C66    C     0.57256   0.50504   0.96120   0.01267  Uiso   1.00
C67    C     0.58429   0.65037   0.88267   0.01267  Uiso   1.00
C68    C     0.51325   0.64375   0.92150   0.01267  Uiso   1.00
C69    C     0.50504   0.57256   0.96120   0.01267  Uiso   1.00
C70    C     0.88267   0.88267   0.65037   0.01267  Uiso   1.00
C71    C     0.92150   0.92150   0.64375   0.01267  Uiso   1.00
C72    C     0.96120   0.96120   0.57256   0.01267  Uiso   1.00
N1     N     0.16010   0.39029   0.28951   0.01267  Uiso   1.00
N2     N     0.39029   0.16010   0.16010   0.01267  Uiso   1.00
N3     N     0.28951   0.16010   0.16010   0.01267  Uiso   1.00
N4     N     0.16010   0.28951   0.39029   0.01267  Uiso   1.00
N5     N     0.16010   0.28951   0.16010   0.01267  Uiso   1.00
N6     N     0.39029   0.16010   0.28951   0.01267  Uiso   1.00
N7     N     0.28951   0.16010   0.39029   0.01267  Uiso   1.00
N8     N     0.16010   0.39029   0.16010   0.01267  Uiso   1.00
N9     N     0.16010   0.16010   0.39029   0.01267  Uiso   1.00
N10    N     0.39029   0.28951   0.16010   0.01267  Uiso   1.00
N11    N     0.28951   0.39029   0.16010   0.01267  Uiso   1.00
N12    N     0.16010   0.16010   0.28951   0.01267  Uiso   1.00
N13    N     0.60971   0.83990   0.71049   0.01267  Uiso   1.00
N14    N     0.83990   0.60971   0.83990   0.01267  Uiso   1.00
N15    N     0.83990   0.71049   0.83990   0.01267  Uiso   1.00
N16    N     0.71049   0.83990   0.60971   0.01267  Uiso   1.00
N17    N     0.71049   0.83990   0.83990   0.01267  Uiso   1.00
N18    N     0.83990   0.60971   0.71049   0.01267  Uiso   1.00
N19    N     0.83990   0.71049   0.60971   0.01267  Uiso   1.00
N20    N     0.60971   0.83990   0.83990   0.01267  Uiso   1.00
N21    N     0.83990   0.83990   0.60971   0.01267  Uiso   1.00
N22    N     0.71049   0.60971   0.83990   0.01267  Uiso   1.00
N23    N     0.60971   0.71049   0.83990   0.01267  Uiso   1.00
N24    N     0.83990   0.83990   0.71049   0.01267  Uiso   1.00
N25    N     0.18540   0.31460   0.31460   0.01267  Uiso   1.00
N26    N     0.31460   0.18540   0.18540   0.01267  Uiso   1.00
N27    N     0.18540   0.31460   0.18540   0.01267  Uiso   1.00
N28    N     0.31460   0.18540   0.31460   0.01267  Uiso   1.00
N29    N     0.18540   0.18540   0.31460   0.01267  Uiso   1.00
N30    N     0.31460   0.31460   0.18540   0.01267  Uiso   1.00
N31    N     0.68540   0.81460   0.68540   0.01267  Uiso   1.00
N32    N     0.81460   0.68540   0.81460   0.01267  Uiso   1.00
N33    N     0.68540   0.81460   0.81460   0.01267  Uiso   1.00
N34    N     0.81460   0.68540   0.68540   0.01267  Uiso   1.00
N35    N     0.81460   0.81460   0.68540   0.01267  Uiso   1.00
N36    N     0.68540   0.68540   0.81460   0.01267  Uiso   1.00
Cl1    Cl    0.14412   0.56764   0.14412   0.01267  Uiso   1.00
Cl2    Cl    0.56764   0.14412   0.14412   0.01267  Uiso   1.00
Cl3    Cl    0.14412   0.14412   0.14412   0.01267  Uiso   1.00
Cl4    Cl    0.14412   0.14412   0.56764   0.01267  Uiso   1.00
Cl5    Cl    0.43236   0.85588   0.85588   0.01267  Uiso   1.00
Cl6    Cl    0.85588   0.43236   0.85588   0.01267  Uiso   1.00
Cl7    Cl    0.85588   0.85588   0.85588   0.01267  Uiso   1.00
Cl8    Cl    0.85588   0.85588   0.43236   0.01267  Uiso   1.00
O1     O     0.00000   0.56681   0.43319   0.01267  Uiso   1.00
O2     O     0.56681   0.00000   0.00000   0.01267  Uiso   1.00
O3     O     0.43319   0.00000  -0.00000   0.01267  Uiso   1.00
O4     O     1.00000   0.43319   0.56681   0.01267  Uiso   1.00
O5     O     0.00000   0.43319   0.00000   0.01267  Uiso   1.00
O6     O     0.56681   0.00000   0.43319   0.01267  Uiso   1.00
O7     O     0.43319   0.00000   0.56681   0.01267  Uiso   1.00
O8     O     0.00000   0.56681   0.00000   0.01267  Uiso   1.00
O9     O     0.00000   1.00000   0.56681   0.01267  Uiso   1.00
O10    O     0.56681   0.43319   0.00000   0.01267  Uiso   1.00
O11    O     0.43319   0.56681   0.00000   0.01267  Uiso   1.00
O12    O     0.00000   0.00000   0.43319   0.01267  Uiso   1.00
