data_image0
_cell_length_a       28.1295
_cell_length_b       15.2305
_cell_length_c       8.7607
_cell_angle_alpha    90
_cell_angle_beta     98.835
_cell_angle_gamma    90

_symmetry_space_group_name_H-M    "P 1"
_symmetry_int_tables_number       1

loop_
  _symmetry_equiv_pos_as_xyz
  'x, y, z'

loop_
  _atom_site_label
  _atom_site_occupancy
  _atom_site_fract_x
  _atom_site_fract_y
  _atom_site_fract_z
  _atom_site_thermal_displace_type
  _atom_site_B_iso_or_equiv
  _atom_site_type_symbol
  La1      1.0000 0.16754  0.01363  0.64202  Biso   1.000  La
  O1       1.0000 0.28678  0.47302  0.60200  Biso   1.000  O
  O2       1.0000 0.24528  0.42920  0.38280  Biso   1.000  O
  O3       1.0000 0.11821  0.97340  0.38950  Biso   1.000  O
  O4       1.0000 0.08153  0.93060  0.16290  Biso   1.000  O
  O5       1.0000 0.16061  0.17468  0.53750  Biso   1.000  O
  O6       1.0000 0.18060  0.16019  0.78810  Biso   1.000  O
  C1       1.0000 0.13347  0.35470  0.56120  Biso   1.000  C
  C2       1.0000 0.01870  0.82230  0.31350  Biso   1.000  C
  C3       1.0000 0.08236  0.93780  0.30590  Biso   1.000  C
  C4       1.0000 0.15587  0.42670  0.51120  Biso   1.000  C
  C5       1.0000 0.24689  0.45200  0.51990  Biso   1.000  C
  C6       1.0000 0.16613  0.20670  0.67160  Biso   1.000  C
  C7       1.0000 0.04051  0.90550  0.38100  Biso   1.000  C
  H1       1.0000 0.05150  0.89650  0.49040  Biso   1.000  H
  H2       1.0000 0.01590  0.95060  0.37120  Biso   1.000  H
  C8       1.0000 0.13230  0.47270  0.38420  Biso   1.000  C
  H3       1.0000 0.14640  0.52350  0.35290  Biso   1.000  H
  C9       1.0000 0.20156  0.46460  0.59260  Biso   1.000  C
  H4       1.0000 0.20740  0.43960  0.69570  Biso   1.000  H
  H5       1.0000 0.19670  0.52710  0.60400  Biso   1.000  H
  C10      1.0000 0.15390  0.30070  0.70180  Biso   1.000  C
  H6       1.0000 0.18280  0.32950  0.75260  Biso   1.000  H
  H7       1.0000 0.13080  0.30110  0.77340  Biso   1.000  H
  C11      1.0000 0.08975  0.32900  0.48300  Biso   1.000  C
  H8       1.0000 0.07460  0.28000  0.51680  Biso   1.000  H
  C12      1.0000 0.01660  0.66560  0.31210  Biso   1.000  C
  H9       1.0000 0.02720  0.61250  0.35740  Biso   1.000  H
  C13      1.0000 0.06780  0.37410  0.35560  Biso   1.000  C
  H10      1.0000 0.03820  0.35540  0.30440  Biso   1.000  H
  C14      1.0000 0.03570  0.74220  0.37510  Biso   1.000  C
  H11      1.0000 0.06010  0.74080  0.45970  Biso   1.000  H
  C15      1.0000 0.08910  0.44600  0.30380  Biso   1.000  C
  H12      1.0000 0.07480  0.47600  0.21630  Biso   1.000  H
  La2      1.0000 0.66754  0.51363  0.64202  Biso   1.000  La
  O7       1.0000 0.78678  0.97302  0.60200  Biso   1.000  O
  O8       1.0000 0.74528  0.92920  0.38280  Biso   1.000  O
  O9       1.0000 0.61821  0.47340  0.38950  Biso   1.000  O
  O10      1.0000 0.58153  0.43060  0.16290  Biso   1.000  O
  O11      1.0000 0.66061  0.67468  0.53750  Biso   1.000  O
  O12      1.0000 0.68060  0.66019  0.78810  Biso   1.000  O
  C16      1.0000 0.63347  0.85470  0.56120  Biso   1.000  C
  C17      1.0000 0.51870  0.32230  0.31350  Biso   1.000  C
  C18      1.0000 0.58236  0.43780  0.30590  Biso   1.000  C
  C19      1.0000 0.65587  0.92670  0.51120  Biso   1.000  C
  C20      1.0000 0.74689  0.95200  0.51990  Biso   1.000  C
  C21      1.0000 0.66613  0.70670  0.67160  Biso   1.000  C
  C22      1.0000 0.54051  0.40550  0.38100  Biso   1.000  C
  H13      1.0000 0.55150  0.39650  0.49040  Biso   1.000  H
  H14      1.0000 0.51590  0.45060  0.37120  Biso   1.000  H
  C23      1.0000 0.63230  0.97270  0.38420  Biso   1.000  C
  H15      1.0000 0.64640  0.02350  0.35290  Biso   1.000  H
  C24      1.0000 0.70156  0.96460  0.59260  Biso   1.000  C
  H16      1.0000 0.70740  0.93960  0.69570  Biso   1.000  H
  H17      1.0000 0.69670  0.02710  0.60400  Biso   1.000  H
  C25      1.0000 0.65390  0.80070  0.70180  Biso   1.000  C
  H18      1.0000 0.68280  0.82950  0.75260  Biso   1.000  H
  H19      1.0000 0.63080  0.80110  0.77340  Biso   1.000  H
  C26      1.0000 0.58975  0.82900  0.48300  Biso   1.000  C
  H20      1.0000 0.57460  0.78000  0.51680  Biso   1.000  H
  C27      1.0000 0.51660  0.16560  0.31210  Biso   1.000  C
  H21      1.0000 0.52720  0.11250  0.35740  Biso   1.000  H
  C28      1.0000 0.56780  0.87410  0.35560  Biso   1.000  C
  H22      1.0000 0.53820  0.85540  0.30440  Biso   1.000  H
  C29      1.0000 0.53570  0.24220  0.37510  Biso   1.000  C
  H23      1.0000 0.56010  0.24080  0.45970  Biso   1.000  H
  C30      1.0000 0.58910  0.94600  0.30380  Biso   1.000  C
  H24      1.0000 0.57480  0.97600  0.21630  Biso   1.000  H
  La3      1.0000 0.83246  0.01363  0.85798  Biso   1.000  La
  O13      1.0000 0.71322  0.47302  0.89800  Biso   1.000  O
  O14      1.0000 0.75472  0.42920  0.11720  Biso   1.000  O
  O15      1.0000 0.88179  0.97340  0.11050  Biso   1.000  O
  O16      1.0000 0.91847  0.93060  0.33710  Biso   1.000  O
  O17      1.0000 0.83939  0.17468  0.96250  Biso   1.000  O
  O18      1.0000 0.81940  0.16019  0.71190  Biso   1.000  O
  C31      1.0000 0.86653  0.35470  0.93880  Biso   1.000  C
  C32      1.0000 0.98130  0.82230  0.18650  Biso   1.000  C
  C33      1.0000 0.91764  0.93780  0.19410  Biso   1.000  C
  C34      1.0000 0.84413  0.42670  0.98880  Biso   1.000  C
  C35      1.0000 0.75311  0.45200  0.98010  Biso   1.000  C
  C36      1.0000 0.83387  0.20670  0.82840  Biso   1.000  C
  C37      1.0000 0.95949  0.90550  0.11900  Biso   1.000  C
  H25      1.0000 0.94850  0.89650  0.00960  Biso   1.000  H
  H26      1.0000 0.98410  0.95060  0.12880  Biso   1.000  H
  C38      1.0000 0.86770  0.47270  0.11580  Biso   1.000  C
  H27      1.0000 0.85360  0.52350  0.14710  Biso   1.000  H
  C39      1.0000 0.79844  0.46460  0.90740  Biso   1.000  C
  H28      1.0000 0.79260  0.43960  0.80430  Biso   1.000  H
  H29      1.0000 0.80330  0.52710  0.89600  Biso   1.000  H
  C40      1.0000 0.84610  0.30070  0.79820  Biso   1.000  C
  H30      1.0000 0.81720  0.32950  0.74740  Biso   1.000  H
  H31      1.0000 0.86920  0.30110  0.72660  Biso   1.000  H
  C41      1.0000 0.91025  0.32900  0.01700  Biso   1.000  C
  H32      1.0000 0.92540  0.28000  0.98320  Biso   1.000  H
  C42      1.0000 0.98340  0.66560  0.18790  Biso   1.000  C
  H33      1.0000 0.97280  0.61250  0.14260  Biso   1.000  H
  C43      1.0000 0.93220  0.37410  0.14440  Biso   1.000  C
  H34      1.0000 0.96180  0.35540  0.19560  Biso   1.000  H
  C44      1.0000 0.96430  0.74220  0.12490  Biso   1.000  C
  H35      1.0000 0.93990  0.74080  0.04030  Biso   1.000  H
  C45      1.0000 0.91090  0.44600  0.19620  Biso   1.000  C
  H36      1.0000 0.92520  0.47600  0.28370  Biso   1.000  H
  La4      1.0000 0.33246  0.51363  0.85798  Biso   1.000  La
  O19      1.0000 0.21322  0.97302  0.89800  Biso   1.000  O
  O20      1.0000 0.25472  0.92920  0.11720  Biso   1.000  O
  O21      1.0000 0.38179  0.47340  0.11050  Biso   1.000  O
  O22      1.0000 0.41847  0.43060  0.33710  Biso   1.000  O
  O23      1.0000 0.33939  0.67468  0.96250  Biso   1.000  O
  O24      1.0000 0.31940  0.66019  0.71190  Biso   1.000  O
  C46      1.0000 0.36653  0.85470  0.93880  Biso   1.000  C
  C47      1.0000 0.48130  0.32230  0.18650  Biso   1.000  C
  C48      1.0000 0.41764  0.43780  0.19410  Biso   1.000  C
  C49      1.0000 0.34413  0.92670  0.98880  Biso   1.000  C
  C50      1.0000 0.25311  0.95200  0.98010  Biso   1.000  C
  C51      1.0000 0.33387  0.70670  0.82840  Biso   1.000  C
  C52      1.0000 0.45949  0.40550  0.11900  Biso   1.000  C
  H37      1.0000 0.44850  0.39650  0.00960  Biso   1.000  H
  H38      1.0000 0.48410  0.45060  0.12880  Biso   1.000  H
  C53      1.0000 0.36770  0.97270  0.11580  Biso   1.000  C
  H39      1.0000 0.35360  0.02350  0.14710  Biso   1.000  H
  C54      1.0000 0.29844  0.96460  0.90740  Biso   1.000  C
  H40      1.0000 0.29260  0.93960  0.80430  Biso   1.000  H
  H41      1.0000 0.30330  0.02710  0.89600  Biso   1.000  H
  C55      1.0000 0.34610  0.80070  0.79820  Biso   1.000  C
  H42      1.0000 0.31720  0.82950  0.74740  Biso   1.000  H
  H43      1.0000 0.36920  0.80110  0.72660  Biso   1.000  H
  C56      1.0000 0.41025  0.82900  0.01700  Biso   1.000  C
  H44      1.0000 0.42540  0.78000  0.98320  Biso   1.000  H
  C57      1.0000 0.48340  0.16560  0.18790  Biso   1.000  C
  H45      1.0000 0.47280  0.11250  0.14260  Biso   1.000  H
  C58      1.0000 0.43220  0.87410  0.14440  Biso   1.000  C
  H46      1.0000 0.46180  0.85540  0.19560  Biso   1.000  H
  C59      1.0000 0.46430  0.24220  0.12490  Biso   1.000  C
  H47      1.0000 0.43990  0.24080  0.04030  Biso   1.000  H
  C60      1.0000 0.41090  0.94600  0.19620  Biso   1.000  C
  H48      1.0000 0.42520  0.97600  0.28370  Biso   1.000  H
  La5      1.0000 0.83246  0.98637  0.35798  Biso   1.000  La
  O25      1.0000 0.71322  0.52698  0.39800  Biso   1.000  O
  O26      1.0000 0.75472  0.57080  0.61720  Biso   1.000  O
  O27      1.0000 0.88179  0.02660  0.61050  Biso   1.000  O
  O28      1.0000 0.91847  0.06940  0.83710  Biso   1.000  O
  O29      1.0000 0.83939  0.82532  0.46250  Biso   1.000  O
  O30      1.0000 0.81940  0.83981  0.21190  Biso   1.000  O
  C61      1.0000 0.86653  0.64530  0.43880  Biso   1.000  C
  C62      1.0000 0.98130  0.17770  0.68650  Biso   1.000  C
  C63      1.0000 0.91764  0.06220  0.69410  Biso   1.000  C
  C64      1.0000 0.84413  0.57330  0.48880  Biso   1.000  C
  C65      1.0000 0.75311  0.54800  0.48010  Biso   1.000  C
  C66      1.0000 0.83387  0.79330  0.32840  Biso   1.000  C
  C67      1.0000 0.95949  0.09450  0.61900  Biso   1.000  C
  H49      1.0000 0.94850  0.10350  0.50960  Biso   1.000  H
  H50      1.0000 0.98410  0.04940  0.62880  Biso   1.000  H
  C68      1.0000 0.86770  0.52730  0.61580  Biso   1.000  C
  H51      1.0000 0.85360  0.47650  0.64710  Biso   1.000  H
  C69      1.0000 0.79844  0.53540  0.40740  Biso   1.000  C
  H52      1.0000 0.79260  0.56040  0.30430  Biso   1.000  H
  H53      1.0000 0.80330  0.47290  0.39600  Biso   1.000  H
  C70      1.0000 0.84610  0.69930  0.29820  Biso   1.000  C
  H54      1.0000 0.81720  0.67050  0.24740  Biso   1.000  H
  H55      1.0000 0.86920  0.69890  0.22660  Biso   1.000  H
  C71      1.0000 0.91025  0.67100  0.51700  Biso   1.000  C
  H56      1.0000 0.92540  0.72000  0.48320  Biso   1.000  H
  C72      1.0000 0.98340  0.33440  0.68790  Biso   1.000  C
  H57      1.0000 0.97280  0.38750  0.64260  Biso   1.000  H
  C73      1.0000 0.93220  0.62590  0.64440  Biso   1.000  C
  H58      1.0000 0.96180  0.64460  0.69560  Biso   1.000  H
  C74      1.0000 0.96430  0.25780  0.62490  Biso   1.000  C
  H59      1.0000 0.93990  0.25920  0.54030  Biso   1.000  H
  C75      1.0000 0.91090  0.55400  0.69620  Biso   1.000  C
  H60      1.0000 0.92520  0.52400  0.78370  Biso   1.000  H
  La6      1.0000 0.33246  0.48637  0.35798  Biso   1.000  La
  O31      1.0000 0.21322  0.02698  0.39800  Biso   1.000  O
  O32      1.0000 0.25472  0.07080  0.61720  Biso   1.000  O
  O33      1.0000 0.38179  0.52660  0.61050  Biso   1.000  O
  O34      1.0000 0.41847  0.56940  0.83710  Biso   1.000  O
  O35      1.0000 0.33939  0.32532  0.46250  Biso   1.000  O
  O36      1.0000 0.31940  0.33981  0.21190  Biso   1.000  O
  C76      1.0000 0.36653  0.14530  0.43880  Biso   1.000  C
  C77      1.0000 0.48130  0.67770  0.68650  Biso   1.000  C
  C78      1.0000 0.41764  0.56220  0.69410  Biso   1.000  C
  C79      1.0000 0.34413  0.07330  0.48880  Biso   1.000  C
  C80      1.0000 0.25311  0.04800  0.48010  Biso   1.000  C
  C81      1.0000 0.33387  0.29330  0.32840  Biso   1.000  C
  C82      1.0000 0.45949  0.59450  0.61900  Biso   1.000  C
  H61      1.0000 0.44850  0.60350  0.50960  Biso   1.000  H
  H62      1.0000 0.48410  0.54940  0.62880  Biso   1.000  H
  C83      1.0000 0.36770  0.02730  0.61580  Biso   1.000  C
  H63      1.0000 0.35360  0.97650  0.64710  Biso   1.000  H
  C84      1.0000 0.29844  0.03540  0.40740  Biso   1.000  C
  H64      1.0000 0.29260  0.06040  0.30430  Biso   1.000  H
  H65      1.0000 0.30330  0.97290  0.39600  Biso   1.000  H
  C85      1.0000 0.34610  0.19930  0.29820  Biso   1.000  C
  H66      1.0000 0.31720  0.17050  0.24740  Biso   1.000  H
  H67      1.0000 0.36920  0.19890  0.22660  Biso   1.000  H
  C86      1.0000 0.41025  0.17100  0.51700  Biso   1.000  C
  H68      1.0000 0.42540  0.22000  0.48320  Biso   1.000  H
  C87      1.0000 0.48340  0.83440  0.68790  Biso   1.000  C
  H69      1.0000 0.47280  0.88750  0.64260  Biso   1.000  H
  C88      1.0000 0.43220  0.12590  0.64440  Biso   1.000  C
  H70      1.0000 0.46180  0.14460  0.69560  Biso   1.000  H
  C89      1.0000 0.46430  0.75780  0.62490  Biso   1.000  C
  H71      1.0000 0.43990  0.75920  0.54030  Biso   1.000  H
  C90      1.0000 0.41090  0.05400  0.69620  Biso   1.000  C
  H72      1.0000 0.42520  0.02400  0.78370  Biso   1.000  H
  La7      1.0000 0.16754  0.98637  0.14202  Biso   1.000  La
  O37      1.0000 0.28678  0.52698  0.10200  Biso   1.000  O
  O38      1.0000 0.24528  0.57080  0.88280  Biso   1.000  O
  O39      1.0000 0.11821  0.02660  0.88950  Biso   1.000  O
  O40      1.0000 0.08153  0.06940  0.66290  Biso   1.000  O
  O41      1.0000 0.16061  0.82532  0.03750  Biso   1.000  O
  O42      1.0000 0.18060  0.83981  0.28810  Biso   1.000  O
  C91      1.0000 0.13347  0.64530  0.06120  Biso   1.000  C
  C92      1.0000 0.01870  0.17770  0.81350  Biso   1.000  C
  C93      1.0000 0.08236  0.06220  0.80590  Biso   1.000  C
  C94      1.0000 0.15587  0.57330  0.01120  Biso   1.000  C
  C95      1.0000 0.24689  0.54800  0.01990  Biso   1.000  C
  C96      1.0000 0.16613  0.79330  0.17160  Biso   1.000  C
  C97      1.0000 0.04051  0.09450  0.88100  Biso   1.000  C
  H73      1.0000 0.05150  0.10350  0.99040  Biso   1.000  H
  H74      1.0000 0.01590  0.04940  0.87120  Biso   1.000  H
  C98      1.0000 0.13230  0.52730  0.88420  Biso   1.000  C
  H75      1.0000 0.14640  0.47650  0.85290  Biso   1.000  H
  C99      1.0000 0.20156  0.53540  0.09260  Biso   1.000  C
  H76      1.0000 0.20740  0.56040  0.19570  Biso   1.000  H
  H77      1.0000 0.19670  0.47290  0.10400  Biso   1.000  H
  C100     1.0000 0.15390  0.69930  0.20180  Biso   1.000  C
  H78      1.0000 0.18280  0.67050  0.25260  Biso   1.000  H
  H79      1.0000 0.13080  0.69890  0.27340  Biso   1.000  H
  C101     1.0000 0.08975  0.67100  0.98300  Biso   1.000  C
  H80      1.0000 0.07460  0.72000  0.01680  Biso   1.000  H
  C102     1.0000 0.01660  0.33440  0.81210  Biso   1.000  C
  H81      1.0000 0.02720  0.38750  0.85740  Biso   1.000  H
  C103     1.0000 0.06780  0.62590  0.85560  Biso   1.000  C
  H82      1.0000 0.03820  0.64460  0.80440  Biso   1.000  H
  C104     1.0000 0.03570  0.25780  0.87510  Biso   1.000  C
  H83      1.0000 0.06010  0.25920  0.95970  Biso   1.000  H
  C105     1.0000 0.08910  0.55400  0.80380  Biso   1.000  C
  H84      1.0000 0.07480  0.52400  0.71630  Biso   1.000  H
  La8      1.0000 0.66754  0.48637  0.14202  Biso   1.000  La
  O43      1.0000 0.78678  0.02698  0.10200  Biso   1.000  O
  O44      1.0000 0.74528  0.07080  0.88280  Biso   1.000  O
  O45      1.0000 0.61821  0.52660  0.88950  Biso   1.000  O
  O46      1.0000 0.58153  0.56940  0.66290  Biso   1.000  O
  O47      1.0000 0.66061  0.32532  0.03750  Biso   1.000  O
  O48      1.0000 0.68060  0.33981  0.28810  Biso   1.000  O
  C106     1.0000 0.63347  0.14530  0.06120  Biso   1.000  C
  C107     1.0000 0.51870  0.67770  0.81350  Biso   1.000  C
  C108     1.0000 0.58236  0.56220  0.80590  Biso   1.000  C
  C109     1.0000 0.65587  0.07330  0.01120  Biso   1.000  C
  C110     1.0000 0.74689  0.04800  0.01990  Biso   1.000  C
  C111     1.0000 0.66613  0.29330  0.17160  Biso   1.000  C
  C112     1.0000 0.54051  0.59450  0.88100  Biso   1.000  C
  H85      1.0000 0.55150  0.60350  0.99040  Biso   1.000  H
  H86      1.0000 0.51590  0.54940  0.87120  Biso   1.000  H
  C113     1.0000 0.63230  0.02730  0.88420  Biso   1.000  C
  H87      1.0000 0.64640  0.97650  0.85290  Biso   1.000  H
  C114     1.0000 0.70156  0.03540  0.09260  Biso   1.000  C
  H88      1.0000 0.70740  0.06040  0.19570  Biso   1.000  H
  H89      1.0000 0.69670  0.97290  0.10400  Biso   1.000  H
  C115     1.0000 0.65390  0.19930  0.20180  Biso   1.000  C
  H90      1.0000 0.68280  0.17050  0.25260  Biso   1.000  H
  H91      1.0000 0.63080  0.19890  0.27340  Biso   1.000  H
  C116     1.0000 0.58975  0.17100  0.98300  Biso   1.000  C
  H92      1.0000 0.57460  0.22000  0.01680  Biso   1.000  H
  C117     1.0000 0.51660  0.83440  0.81210  Biso   1.000  C
  H93      1.0000 0.52720  0.88750  0.85740  Biso   1.000  H
  C118     1.0000 0.56780  0.12590  0.85560  Biso   1.000  C
  H94      1.0000 0.53820  0.14460  0.80440  Biso   1.000  H
  C119     1.0000 0.53570  0.75780  0.87510  Biso   1.000  C
  H95      1.0000 0.56010  0.75920  0.95970  Biso   1.000  H
  C120     1.0000 0.58910  0.05400  0.80380  Biso   1.000  C
  H96      1.0000 0.57480  0.02400  0.71630  Biso   1.000  H
