data_image0
_cell_length_a       15.754
_cell_length_b       26.877
_cell_length_c       19.244
_cell_angle_alpha    90
_cell_angle_beta     90.065
_cell_angle_gamma    90

_symmetry_space_group_name_H-M    "P 1"
_symmetry_int_tables_number       1

loop_
  _symmetry_equiv_pos_as_xyz
  'x, y, z'

loop_
  _atom_site_label
  _atom_site_occupancy
  _atom_site_fract_x
  _atom_site_fract_y
  _atom_site_fract_z
  _atom_site_thermal_displace_type
  _atom_site_B_iso_or_equiv
  _atom_site_type_symbol
  Co1      1.0000 0.04530  0.61869  0.78678  Biso   1.000  Co
  Co2      1.0000 0.53850  0.86352  0.20824  Biso   1.000  Co
  S1       1.0000 0.32235  0.93535  0.05822  Biso   1.000  S
  S2       1.0000 0.76762  0.77809  0.31864  Biso   1.000  S
  S3       1.0000 0.28336  0.71589  0.71046  Biso   1.000  S
  S4       1.0000 0.84811  0.56371  0.96009  Biso   1.000  S
  C1       1.0000 0.20410  0.67926  0.72430  Biso   1.000  C
  C2       1.0000 0.90610  0.57626  0.89150  Biso   1.000  C
  C3       1.0000 0.39750  0.91329  0.10900  Biso   1.000  C
  C4       1.0000 0.68290  0.80605  0.29030  Biso   1.000  C
  N1       1.0000 0.14420  0.65441  0.73447  Biso   1.000  N
  N2       1.0000 0.94710  0.58582  0.84346  Biso   1.000  N
  N3       1.0000 0.45060  0.89823  0.14466  Biso   1.000  N
  N4       1.0000 0.62530  0.82666  0.26924  Biso   1.000  N
  N5       1.0000 0.63040  0.86925  0.12566  Biso   1.000  N
  N6       1.0000 0.00281  0.69128  0.82236  Biso   1.000  N
  N7       1.0000 0.91830  0.04704  0.75669  Biso   1.000  N
  N8       1.0000 0.84525  0.82895  0.94075  Biso   1.000  N
  N9       1.0000 0.81550  0.91404  0.92050  Biso   1.000  N
  N10      1.0000 0.91270  0.87128  0.84735  Biso   1.000  N
  C5       1.0000 0.67640  0.82893  0.10830  Biso   1.000  C
  H1       1.0000 0.66970  0.79950  0.13510  Biso   1.000  H
  C6       1.0000 0.73280  0.82804  0.05360  Biso   1.000  C
  H2       1.0000 0.76350  0.79860  0.04280  Biso   1.000  H
  C7       1.0000 0.74410  0.87118  0.01443  Biso   1.000  C
  C8       1.0000 0.69750  0.91313  0.03207  Biso   1.000  C
  H3       1.0000 0.70400  0.94310  0.00650  Biso   1.000  H
  C9       1.0000 0.64100  0.91075  0.08760  Biso   1.000  C
  H4       1.0000 0.60890  0.93950  0.09900  Biso   1.000  H
  C10      1.0000 0.97310  0.69835  0.88656  Biso   1.000  C
  H5       1.0000 0.97460  0.67110  0.91790  Biso   1.000  H
  C11      1.0000 0.94030  0.74306  0.91014  Biso   1.000  C
  H6       1.0000 0.91970  0.74620  0.95630  Biso   1.000  H
  C12      1.0000 0.93820  0.78340  0.86431  Biso   1.000  C
  C13      1.0000 0.97150  0.77718  0.79813  Biso   1.000  C
  H7       1.0000 0.97310  0.80430  0.76650  Biso   1.000  H
  C14      1.0000 0.00240  0.73071  0.77868  Biso   1.000  C
  H8       1.0000 0.02400  0.72650  0.73300  Biso   1.000  H
  C15      1.0000 0.97020  0.00815  0.75120  Biso   1.000  C
  H9       1.0000 0.01860  0.01110  0.72220  Biso   1.000  H
  C16      1.0000 0.95700  0.96319  0.78600  Biso   1.000  C
  H10      1.0000 0.99540  0.93620  0.78030  Biso   1.000  H
  C17      1.0000 0.88720  0.95871  0.82870  Biso   1.000  C
  C18      1.0000 0.83230  0.99901  0.83500  Biso   1.000  C
  H11      1.0000 0.78360  0.99700  0.86390  Biso   1.000  H
  C19      1.0000 0.84990  0.04188  0.79840  Biso   1.000  C
  H12      1.0000 0.81200  0.06920  0.80270  Biso   1.000  H
  C20      1.0000 0.80510  0.87171  0.95495  Biso   1.000  C
  C21      1.0000 0.89670  0.83071  0.88583  Biso   1.000  C
  C22      1.0000 0.87090  0.91197  0.86790  Biso   1.000  C
  N11      1.0000 0.12760  0.61296  0.87579  Biso   1.000  N
  N12      1.0000 0.49990  0.78970  0.17174  Biso   1.000  N
  N13      1.0000 0.42732  0.43326  0.24013  Biso   1.000  N
  N14      1.0000 0.34040  0.65135  0.05977  Biso   1.000  N
  N15      1.0000 0.40750  0.61001  0.15375  Biso   1.000  N
  N16      1.0000 0.31630  0.56472  0.07799  Biso   1.000  N
  C23      1.0000 0.17210  0.65344  0.89501  Biso   1.000  C
  H13      1.0000 0.16390  0.68360  0.87010  Biso   1.000  H
  C24      1.0000 0.22900  0.65283  0.94952  Biso   1.000  C
  H14      1.0000 0.25860  0.68220  0.96230  Biso   1.000  H
  C25      1.0000 0.24270  0.60847  0.98569  Biso   1.000  C
  C26      1.0000 0.19770  0.56636  0.96538  Biso   1.000  C
  H15      1.0000 0.20600  0.53540  0.98830  Biso   1.000  H
  C27      1.0000 0.14080  0.57053  0.91135  Biso   1.000  C
  H16      1.0000 0.10920  0.54190  0.89840  Biso   1.000  H
  C28      1.0000 0.46930  0.78204  0.10802  Biso   1.000  C
  H17      1.0000 0.47110  0.80870  0.07560  Biso   1.000  H
  C29      1.0000 0.43490  0.73682  0.08695  Biso   1.000  C
  H18      1.0000 0.41360  0.73270  0.04110  Biso   1.000  H
  C30      1.0000 0.43240  0.69791  0.13430  Biso   1.000  C
  C31      1.0000 0.46540  0.70526  0.19980  Biso   1.000  C
  H19      1.0000 0.46550  0.67910  0.23300  Biso   1.000  H
  C32      1.0000 0.49810  0.75132  0.21620  Biso   1.000  C
  H20      1.0000 0.52070  0.75620  0.26150  Biso   1.000  H
  C33      1.0000 0.46000  0.47693  0.26050  Biso   1.000  C
  H21      1.0000 0.49720  0.47720  0.29930  Biso   1.000  H
  C34      1.0000 0.44240  0.52145  0.22790  Biso   1.000  C
  H22      1.0000 0.46670  0.55160  0.24440  Biso   1.000  H
  C35      1.0000 0.38830  0.52148  0.17051  Biso   1.000  C
  C36      1.0000 0.35360  0.47684  0.15012  Biso   1.000  C
  H23      1.0000 0.31560  0.47550  0.11180  Biso   1.000  H
  C37      1.0000 0.37470  0.43394  0.18609  Biso   1.000  C
  H24      1.0000 0.35030  0.40340  0.17140  Biso   1.000  H
  C38      1.0000 0.30280  0.60760  0.04431  Biso   1.000  C
  C39      1.0000 0.39160  0.64991  0.11469  Biso   1.000  C
  C40      1.0000 0.36970  0.56842  0.13216  Biso   1.000  C
  Co3      1.0000 0.95470  0.11869  0.71322  Biso   1.000  Co
  Co4      1.0000 0.46150  0.36352  0.29176  Biso   1.000  Co
  S5       1.0000 0.67765  0.43535  0.44178  Biso   1.000  S
  S6       1.0000 0.23238  0.27809  0.18136  Biso   1.000  S
  S7       1.0000 0.71664  0.21589  0.78954  Biso   1.000  S
  S8       1.0000 0.15189  0.06371  0.53991  Biso   1.000  S
  C41      1.0000 0.79590  0.17926  0.77570  Biso   1.000  C
  C42      1.0000 0.09390  0.07626  0.60850  Biso   1.000  C
  C43      1.0000 0.60250  0.41329  0.39100  Biso   1.000  C
  C44      1.0000 0.31710  0.30605  0.20970  Biso   1.000  C
  N17      1.0000 0.85580  0.15441  0.76553  Biso   1.000  N
  N18      1.0000 0.05290  0.08582  0.65654  Biso   1.000  N
  N19      1.0000 0.54940  0.39823  0.35534  Biso   1.000  N
  N20      1.0000 0.37470  0.32666  0.23076  Biso   1.000  N
  N21      1.0000 0.36960  0.36925  0.37434  Biso   1.000  N
  N22      1.0000 0.99719  0.19128  0.67764  Biso   1.000  N
  N23      1.0000 0.08170  0.54704  0.74331  Biso   1.000  N
  N24      1.0000 0.15475  0.32895  0.55925  Biso   1.000  N
  N25      1.0000 0.18450  0.41404  0.57950  Biso   1.000  N
  N26      1.0000 0.08730  0.37128  0.65265  Biso   1.000  N
  C45      1.0000 0.32360  0.32893  0.39170  Biso   1.000  C
  H25      1.0000 0.33030  0.29950  0.36490  Biso   1.000  H
  C46      1.0000 0.26720  0.32804  0.44640  Biso   1.000  C
  H26      1.0000 0.23650  0.29860  0.45720  Biso   1.000  H
  C47      1.0000 0.25590  0.37118  0.48557  Biso   1.000  C
  C48      1.0000 0.30250  0.41313  0.46793  Biso   1.000  C
  H27      1.0000 0.29600  0.44310  0.49350  Biso   1.000  H
  C49      1.0000 0.35900  0.41075  0.41240  Biso   1.000  C
  H28      1.0000 0.39110  0.43950  0.40100  Biso   1.000  H
  C50      1.0000 0.02690  0.19835  0.61344  Biso   1.000  C
  H29      1.0000 0.02540  0.17110  0.58210  Biso   1.000  H
  C51      1.0000 0.05970  0.24306  0.58986  Biso   1.000  C
  H30      1.0000 0.08030  0.24620  0.54370  Biso   1.000  H
  C52      1.0000 0.06180  0.28340  0.63569  Biso   1.000  C
  C53      1.0000 0.02850  0.27718  0.70187  Biso   1.000  C
  H31      1.0000 0.02690  0.30430  0.73350  Biso   1.000  H
  C54      1.0000 0.99760  0.23071  0.72132  Biso   1.000  C
  H32      1.0000 0.97600  0.22650  0.76700  Biso   1.000  H
  C55      1.0000 0.02980  0.50815  0.74880  Biso   1.000  C
  H33      1.0000 0.98140  0.51110  0.77780  Biso   1.000  H
  C56      1.0000 0.04300  0.46319  0.71400  Biso   1.000  C
  H34      1.0000 0.00460  0.43620  0.71970  Biso   1.000  H
  C57      1.0000 0.11280  0.45871  0.67130  Biso   1.000  C
  C58      1.0000 0.16770  0.49901  0.66500  Biso   1.000  C
  H35      1.0000 0.21640  0.49700  0.63610  Biso   1.000  H
  C59      1.0000 0.15010  0.54188  0.70160  Biso   1.000  C
  H36      1.0000 0.18800  0.56920  0.69730  Biso   1.000  H
  C60      1.0000 0.19490  0.37171  0.54505  Biso   1.000  C
  C61      1.0000 0.10330  0.33071  0.61417  Biso   1.000  C
  C62      1.0000 0.12910  0.41197  0.63210  Biso   1.000  C
  N27      1.0000 0.87240  0.11296  0.62421  Biso   1.000  N
  N28      1.0000 0.50010  0.28970  0.32826  Biso   1.000  N
  N29      1.0000 0.57268  0.93326  0.25987  Biso   1.000  N
  N30      1.0000 0.65960  0.15135  0.44023  Biso   1.000  N
  N31      1.0000 0.59250  0.11001  0.34625  Biso   1.000  N
  N32      1.0000 0.68370  0.06472  0.42201  Biso   1.000  N
  C63      1.0000 0.82790  0.15344  0.60499  Biso   1.000  C
  H37      1.0000 0.83610  0.18360  0.62990  Biso   1.000  H
  C64      1.0000 0.77100  0.15283  0.55048  Biso   1.000  C
  H38      1.0000 0.74140  0.18220  0.53770  Biso   1.000  H
  C65      1.0000 0.75730  0.10847  0.51431  Biso   1.000  C
  C66      1.0000 0.80230  0.06636  0.53462  Biso   1.000  C
  H39      1.0000 0.79400  0.03540  0.51170  Biso   1.000  H
  C67      1.0000 0.85920  0.07053  0.58865  Biso   1.000  C
  H40      1.0000 0.89080  0.04190  0.60160  Biso   1.000  H
  C68      1.0000 0.53070  0.28204  0.39198  Biso   1.000  C
  H41      1.0000 0.52890  0.30870  0.42440  Biso   1.000  H
  C69      1.0000 0.56510  0.23682  0.41305  Biso   1.000  C
  H42      1.0000 0.58640  0.23270  0.45890  Biso   1.000  H
  C70      1.0000 0.56760  0.19791  0.36570  Biso   1.000  C
  C71      1.0000 0.53460  0.20526  0.30020  Biso   1.000  C
  H43      1.0000 0.53450  0.17910  0.26700  Biso   1.000  H
  C72      1.0000 0.50190  0.25132  0.28380  Biso   1.000  C
  H44      1.0000 0.47930  0.25620  0.23850  Biso   1.000  H
  C73      1.0000 0.54000  0.97693  0.23950  Biso   1.000  C
  H45      1.0000 0.50280  0.97720  0.20070  Biso   1.000  H
  C74      1.0000 0.55760  0.02145  0.27210  Biso   1.000  C
  H46      1.0000 0.53330  0.05160  0.25560  Biso   1.000  H
  C75      1.0000 0.61170  0.02148  0.32949  Biso   1.000  C
  C76      1.0000 0.64640  0.97684  0.34988  Biso   1.000  C
  H47      1.0000 0.68440  0.97550  0.38820  Biso   1.000  H
  C77      1.0000 0.62530  0.93394  0.31391  Biso   1.000  C
  H48      1.0000 0.64970  0.90340  0.32860  Biso   1.000  H
  C78      1.0000 0.69720  0.10760  0.45569  Biso   1.000  C
  C79      1.0000 0.60840  0.14991  0.38531  Biso   1.000  C
  C80      1.0000 0.63030  0.06842  0.36784  Biso   1.000  C
  Co5      1.0000 0.95470  0.38131  0.21322  Biso   1.000  Co
  Co6      1.0000 0.46150  0.13648  0.79176  Biso   1.000  Co
  S9       1.0000 0.67765  0.06465  0.94178  Biso   1.000  S
  S10      1.0000 0.23238  0.22191  0.68136  Biso   1.000  S
  S11      1.0000 0.71664  0.28411  0.28954  Biso   1.000  S
  S12      1.0000 0.15189  0.43629  0.03991  Biso   1.000  S
  C81      1.0000 0.79590  0.32074  0.27570  Biso   1.000  C
  C82      1.0000 0.09390  0.42374  0.10850  Biso   1.000  C
  C83      1.0000 0.60250  0.08671  0.89100  Biso   1.000  C
  C84      1.0000 0.31710  0.19395  0.70970  Biso   1.000  C
  N33      1.0000 0.85580  0.34559  0.26553  Biso   1.000  N
  N34      1.0000 0.05290  0.41418  0.15654  Biso   1.000  N
  N35      1.0000 0.54940  0.10177  0.85534  Biso   1.000  N
  N36      1.0000 0.37470  0.17334  0.73076  Biso   1.000  N
  N37      1.0000 0.36960  0.13075  0.87434  Biso   1.000  N
  N38      1.0000 0.99719  0.30872  0.17764  Biso   1.000  N
  N39      1.0000 0.08170  0.95296  0.24331  Biso   1.000  N
  N40      1.0000 0.15475  0.17105  0.05925  Biso   1.000  N
  N41      1.0000 0.18450  0.08596  0.07950  Biso   1.000  N
  N42      1.0000 0.08730  0.12872  0.15265  Biso   1.000  N
  C85      1.0000 0.32360  0.17107  0.89170  Biso   1.000  C
  H49      1.0000 0.33030  0.20050  0.86490  Biso   1.000  H
  C86      1.0000 0.26720  0.17196  0.94640  Biso   1.000  C
  H50      1.0000 0.23650  0.20140  0.95720  Biso   1.000  H
  C87      1.0000 0.25590  0.12882  0.98557  Biso   1.000  C
  C88      1.0000 0.30250  0.08687  0.96793  Biso   1.000  C
  H51      1.0000 0.29600  0.05690  0.99350  Biso   1.000  H
  C89      1.0000 0.35900  0.08925  0.91240  Biso   1.000  C
  H52      1.0000 0.39110  0.06050  0.90100  Biso   1.000  H
  C90      1.0000 0.02690  0.30165  0.11344  Biso   1.000  C
  H53      1.0000 0.02540  0.32890  0.08210  Biso   1.000  H
  C91      1.0000 0.05970  0.25694  0.08986  Biso   1.000  C
  H54      1.0000 0.08030  0.25380  0.04370  Biso   1.000  H
  C92      1.0000 0.06180  0.21660  0.13569  Biso   1.000  C
  C93      1.0000 0.02850  0.22282  0.20187  Biso   1.000  C
  H55      1.0000 0.02690  0.19570  0.23350  Biso   1.000  H
  C94      1.0000 0.99760  0.26929  0.22132  Biso   1.000  C
  H56      1.0000 0.97600  0.27350  0.26700  Biso   1.000  H
  C95      1.0000 0.02980  0.99185  0.24880  Biso   1.000  C
  H57      1.0000 0.98140  0.98890  0.27780  Biso   1.000  H
  C96      1.0000 0.04300  0.03681  0.21400  Biso   1.000  C
  H58      1.0000 0.00460  0.06380  0.21970  Biso   1.000  H
  C97      1.0000 0.11280  0.04129  0.17130  Biso   1.000  C
  C98      1.0000 0.16770  0.00099  0.16500  Biso   1.000  C
  H59      1.0000 0.21640  0.00300  0.13610  Biso   1.000  H
  C99      1.0000 0.15010  0.95812  0.20160  Biso   1.000  C
  H60      1.0000 0.18800  0.93080  0.19730  Biso   1.000  H
  C100     1.0000 0.19490  0.12829  0.04505  Biso   1.000  C
  C101     1.0000 0.10330  0.16929  0.11417  Biso   1.000  C
  C102     1.0000 0.12910  0.08803  0.13210  Biso   1.000  C
  N43      1.0000 0.87240  0.38704  0.12421  Biso   1.000  N
  N44      1.0000 0.50010  0.21030  0.82826  Biso   1.000  N
  N45      1.0000 0.57268  0.56674  0.75987  Biso   1.000  N
  N46      1.0000 0.65960  0.34865  0.94023  Biso   1.000  N
  N47      1.0000 0.59250  0.38999  0.84625  Biso   1.000  N
  N48      1.0000 0.68370  0.43528  0.92201  Biso   1.000  N
  C103     1.0000 0.82790  0.34656  0.10499  Biso   1.000  C
  H61      1.0000 0.83610  0.31640  0.12990  Biso   1.000  H
  C104     1.0000 0.77100  0.34717  0.05048  Biso   1.000  C
  H62      1.0000 0.74140  0.31780  0.03770  Biso   1.000  H
  C105     1.0000 0.75730  0.39153  0.01431  Biso   1.000  C
  C106     1.0000 0.80230  0.43364  0.03462  Biso   1.000  C
  H63      1.0000 0.79400  0.46460  0.01170  Biso   1.000  H
  C107     1.0000 0.85920  0.42947  0.08865  Biso   1.000  C
  H64      1.0000 0.89080  0.45810  0.10160  Biso   1.000  H
  C108     1.0000 0.53070  0.21796  0.89198  Biso   1.000  C
  H65      1.0000 0.52890  0.19130  0.92440  Biso   1.000  H
  C109     1.0000 0.56510  0.26318  0.91305  Biso   1.000  C
  H66      1.0000 0.58640  0.26730  0.95890  Biso   1.000  H
  C110     1.0000 0.56760  0.30209  0.86570  Biso   1.000  C
  C111     1.0000 0.53460  0.29474  0.80020  Biso   1.000  C
  H67      1.0000 0.53450  0.32090  0.76700  Biso   1.000  H
  C112     1.0000 0.50190  0.24868  0.78380  Biso   1.000  C
  H68      1.0000 0.47930  0.24380  0.73850  Biso   1.000  H
  C113     1.0000 0.54000  0.52307  0.73950  Biso   1.000  C
  H69      1.0000 0.50280  0.52280  0.70070  Biso   1.000  H
  C114     1.0000 0.55760  0.47855  0.77210  Biso   1.000  C
  H70      1.0000 0.53330  0.44840  0.75560  Biso   1.000  H
  C115     1.0000 0.61170  0.47852  0.82949  Biso   1.000  C
  C116     1.0000 0.64640  0.52316  0.84988  Biso   1.000  C
  H71      1.0000 0.68440  0.52450  0.88820  Biso   1.000  H
  C117     1.0000 0.62530  0.56606  0.81391  Biso   1.000  C
  H72      1.0000 0.64970  0.59660  0.82860  Biso   1.000  H
  C118     1.0000 0.69720  0.39240  0.95569  Biso   1.000  C
  C119     1.0000 0.60840  0.35009  0.88531  Biso   1.000  C
  C120     1.0000 0.63030  0.43158  0.86784  Biso   1.000  C
  Co7      1.0000 0.04530  0.88131  0.28678  Biso   1.000  Co
  Co8      1.0000 0.53850  0.63648  0.70824  Biso   1.000  Co
  S13      1.0000 0.32235  0.56465  0.55822  Biso   1.000  S
  S14      1.0000 0.76762  0.72191  0.81864  Biso   1.000  S
  S15      1.0000 0.28336  0.78411  0.21046  Biso   1.000  S
  S16      1.0000 0.84811  0.93629  0.46009  Biso   1.000  S
  C121     1.0000 0.20410  0.82074  0.22430  Biso   1.000  C
  C122     1.0000 0.90610  0.92374  0.39150  Biso   1.000  C
  C123     1.0000 0.39750  0.58671  0.60900  Biso   1.000  C
  C124     1.0000 0.68290  0.69395  0.79030  Biso   1.000  C
  N49      1.0000 0.14420  0.84559  0.23447  Biso   1.000  N
  N50      1.0000 0.94710  0.91418  0.34346  Biso   1.000  N
  N51      1.0000 0.45060  0.60177  0.64466  Biso   1.000  N
  N52      1.0000 0.62530  0.67334  0.76924  Biso   1.000  N
  N53      1.0000 0.63040  0.63075  0.62566  Biso   1.000  N
  N54      1.0000 0.00281  0.80872  0.32236  Biso   1.000  N
  N55      1.0000 0.91830  0.45296  0.25669  Biso   1.000  N
  N56      1.0000 0.84525  0.67105  0.44075  Biso   1.000  N
  N57      1.0000 0.81550  0.58596  0.42050  Biso   1.000  N
  N58      1.0000 0.91270  0.62872  0.34735  Biso   1.000  N
  C125     1.0000 0.67640  0.67107  0.60830  Biso   1.000  C
  H73      1.0000 0.66970  0.70050  0.63510  Biso   1.000  H
  C126     1.0000 0.73280  0.67196  0.55360  Biso   1.000  C
  H74      1.0000 0.76350  0.70140  0.54280  Biso   1.000  H
  C127     1.0000 0.74410  0.62882  0.51443  Biso   1.000  C
  C128     1.0000 0.69750  0.58687  0.53207  Biso   1.000  C
  H75      1.0000 0.70400  0.55690  0.50650  Biso   1.000  H
  C129     1.0000 0.64100  0.58925  0.58760  Biso   1.000  C
  H76      1.0000 0.60890  0.56050  0.59900  Biso   1.000  H
  C130     1.0000 0.97310  0.80165  0.38656  Biso   1.000  C
  H77      1.0000 0.97460  0.82890  0.41790  Biso   1.000  H
  C131     1.0000 0.94030  0.75694  0.41014  Biso   1.000  C
  H78      1.0000 0.91970  0.75380  0.45630  Biso   1.000  H
  C132     1.0000 0.93820  0.71660  0.36431  Biso   1.000  C
  C133     1.0000 0.97150  0.72282  0.29813  Biso   1.000  C
  H79      1.0000 0.97310  0.69570  0.26650  Biso   1.000  H
  C134     1.0000 0.00240  0.76929  0.27868  Biso   1.000  C
  H80      1.0000 0.02400  0.77350  0.23300  Biso   1.000  H
  C135     1.0000 0.97020  0.49185  0.25120  Biso   1.000  C
  H81      1.0000 0.01860  0.48890  0.22220  Biso   1.000  H
  C136     1.0000 0.95700  0.53681  0.28600  Biso   1.000  C
  H82      1.0000 0.99540  0.56380  0.28030  Biso   1.000  H
  C137     1.0000 0.88720  0.54129  0.32870  Biso   1.000  C
  C138     1.0000 0.83230  0.50099  0.33500  Biso   1.000  C
  H83      1.0000 0.78360  0.50300  0.36390  Biso   1.000  H
  C139     1.0000 0.84990  0.45812  0.29840  Biso   1.000  C
  H84      1.0000 0.81200  0.43080  0.30270  Biso   1.000  H
  C140     1.0000 0.80510  0.62829  0.45495  Biso   1.000  C
  C141     1.0000 0.89670  0.66929  0.38583  Biso   1.000  C
  C142     1.0000 0.87090  0.58803  0.36790  Biso   1.000  C
  N59      1.0000 0.12760  0.88704  0.37579  Biso   1.000  N
  N60      1.0000 0.49990  0.71030  0.67174  Biso   1.000  N
  N61      1.0000 0.42732  0.06674  0.74013  Biso   1.000  N
  N62      1.0000 0.34040  0.84865  0.55977  Biso   1.000  N
  N63      1.0000 0.40750  0.88999  0.65375  Biso   1.000  N
  N64      1.0000 0.31630  0.93528  0.57799  Biso   1.000  N
  C143     1.0000 0.17210  0.84656  0.39501  Biso   1.000  C
  H85      1.0000 0.16390  0.81640  0.37010  Biso   1.000  H
  C144     1.0000 0.22900  0.84717  0.44952  Biso   1.000  C
  H86      1.0000 0.25860  0.81780  0.46230  Biso   1.000  H
  C145     1.0000 0.24270  0.89153  0.48569  Biso   1.000  C
  C146     1.0000 0.19770  0.93364  0.46538  Biso   1.000  C
  H87      1.0000 0.20600  0.96460  0.48830  Biso   1.000  H
  C147     1.0000 0.14080  0.92947  0.41135  Biso   1.000  C
  H88      1.0000 0.10920  0.95810  0.39840  Biso   1.000  H
  C148     1.0000 0.46930  0.71796  0.60802  Biso   1.000  C
  H89      1.0000 0.47110  0.69130  0.57560  Biso   1.000  H
  C149     1.0000 0.43490  0.76318  0.58695  Biso   1.000  C
  H90      1.0000 0.41360  0.76730  0.54110  Biso   1.000  H
  C150     1.0000 0.43240  0.80209  0.63430  Biso   1.000  C
  C151     1.0000 0.46540  0.79474  0.69980  Biso   1.000  C
  H91      1.0000 0.46550  0.82090  0.73300  Biso   1.000  H
  C152     1.0000 0.49810  0.74868  0.71620  Biso   1.000  C
  H92      1.0000 0.52070  0.74380  0.76150  Biso   1.000  H
  C153     1.0000 0.46000  0.02307  0.76050  Biso   1.000  C
  H93      1.0000 0.49720  0.02280  0.79930  Biso   1.000  H
  C154     1.0000 0.44240  0.97855  0.72790  Biso   1.000  C
  H94      1.0000 0.46670  0.94840  0.74440  Biso   1.000  H
  C155     1.0000 0.38830  0.97852  0.67051  Biso   1.000  C
  C156     1.0000 0.35360  0.02316  0.65012  Biso   1.000  C
  H95      1.0000 0.31560  0.02450  0.61180  Biso   1.000  H
  C157     1.0000 0.37470  0.06606  0.68609  Biso   1.000  C
  H96      1.0000 0.35030  0.09660  0.67140  Biso   1.000  H
  C158     1.0000 0.30280  0.89240  0.54431  Biso   1.000  C
  C159     1.0000 0.39160  0.85009  0.61469  Biso   1.000  C
  C160     1.0000 0.36970  0.93158  0.63216  Biso   1.000  C
