data_image0
_cell_length_a       15.772
_cell_length_b       26.984
_cell_length_c       19.254
_cell_angle_alpha    90
_cell_angle_beta     90.019
_cell_angle_gamma    90

_symmetry_space_group_name_H-M    "P 1"
_symmetry_int_tables_number       1

loop_
  _symmetry_equiv_pos_as_xyz
  'x, y, z'

loop_
  _atom_site_label
  _atom_site_occupancy
  _atom_site_fract_x
  _atom_site_fract_y
  _atom_site_fract_z
  _atom_site_thermal_displace_type
  _atom_site_B_iso_or_equiv
  _atom_site_type_symbol
  Fe1      1.0000 0.04134  0.61800  0.78746  Biso   1.000  Fe
  Fe2      1.0000 0.53448  0.86668  0.20634  Biso   1.000  Fe
  S1       1.0000 0.31931  0.93774  0.05448  Biso   1.000  S
  S2       1.0000 0.76484  0.77922  0.31668  Biso   1.000  S
  S3       1.0000 0.28149  0.71602  0.71409  Biso   1.000  S
  S4       1.0000 0.84529  0.56265  0.96182  Biso   1.000  S
  C1       1.0000 0.20020  0.67970  0.72695  Biso   1.000  C
  C2       1.0000 0.90250  0.57499  0.89327  Biso   1.000  C
  C3       1.0000 0.39430  0.91670  0.10440  Biso   1.000  C
  C4       1.0000 0.68170  0.80842  0.28870  Biso   1.000  C
  N1       1.0000 0.14234  0.65427  0.73583  Biso   1.000  N
  N2       1.0000 0.94374  0.58447  0.84533  Biso   1.000  N
  N3       1.0000 0.44785  0.90183  0.14048  Biso   1.000  N
  N4       1.0000 0.62288  0.82938  0.26850  Biso   1.000  N
  N5       1.0000 0.62983  0.87181  0.12338  Biso   1.000  N
  N6       1.0000 0.99923  0.69180  0.82342  Biso   1.000  N
  N7       1.0000 0.92060  0.04540  0.75591  Biso   1.000  N
  N8       1.0000 0.84398  0.82949  0.94041  Biso   1.000  N
  N9       1.0000 0.81576  0.91449  0.91961  Biso   1.000  N
  N10      1.0000 0.91259  0.87087  0.84771  Biso   1.000  N
  C5       1.0000 0.67410  0.83113  0.10661  Biso   1.000  C
  H1       1.0000 0.66600  0.80190  0.13330  Biso   1.000  H
  C6       1.0000 0.73090  0.82997  0.05226  Biso   1.000  C
  H2       1.0000 0.76070  0.80030  0.04160  Biso   1.000  H
  C7       1.0000 0.74415  0.87242  0.01343  Biso   1.000  C
  C8       1.0000 0.69870  0.91487  0.03105  Biso   1.000  C
  H3       1.0000 0.70650  0.94470  0.00570  Biso   1.000  H
  C9       1.0000 0.64240  0.91301  0.08569  Biso   1.000  C
  H4       1.0000 0.61120  0.94200  0.09710  Biso   1.000  H
  C10      1.0000 0.96830  0.69882  0.88739  Biso   1.000  C
  H5       1.0000 0.96820  0.67150  0.91860  Biso   1.000  H
  C11      1.0000 0.93660  0.74366  0.91063  Biso   1.000  C
  H6       1.0000 0.91590  0.74710  0.95670  Biso   1.000  H
  C12      1.0000 0.93583  0.78336  0.86507  Biso   1.000  C
  C13      1.0000 0.96940  0.77695  0.79874  Biso   1.000  C
  H7       1.0000 0.97110  0.80380  0.76690  Biso   1.000  H
  C14      1.0000 0.00010  0.73092  0.78011  Biso   1.000  C
  H8       1.0000 0.02280  0.72670  0.73480  Biso   1.000  H
  C15      1.0000 0.97220  0.00625  0.75085  Biso   1.000  C
  H9       1.0000 0.02100  0.00900  0.72220  Biso   1.000  H
  C16      1.0000 0.95830  0.96190  0.78504  Biso   1.000  C
  H10      1.0000 0.99600  0.93480  0.77920  Biso   1.000  H
  C17      1.0000 0.88810  0.95796  0.82808  Biso   1.000  C
  C18      1.0000 0.83450  0.99832  0.83429  Biso   1.000  C
  H11      1.0000 0.78620  0.99680  0.86370  Biso   1.000  H
  C19      1.0000 0.85250  0.04069  0.79712  Biso   1.000  C
  H12      1.0000 0.81470  0.06800  0.80090  Biso   1.000  H
  C20      1.0000 0.80500  0.87226  0.95467  Biso   1.000  C
  C21      1.0000 0.89560  0.83072  0.88581  Biso   1.000  C
  C22      1.0000 0.87120  0.91180  0.86741  Biso   1.000  C
  N11      1.0000 0.12562  0.61303  0.87847  Biso   1.000  N
  N12      1.0000 0.49731  0.79127  0.17078  Biso   1.000  N
  N13      1.0000 0.43039  0.43654  0.24034  Biso   1.000  N
  N14      1.0000 0.33930  0.65257  0.06052  Biso   1.000  N
  N15      1.0000 0.40683  0.61224  0.15442  Biso   1.000  N
  N16      1.0000 0.31641  0.56697  0.07889  Biso   1.000  N
  C23      1.0000 0.16840  0.65363  0.89778  Biso   1.000  C
  H13      1.0000 0.15830  0.68380  0.87360  Biso   1.000  H
  C24      1.0000 0.22630  0.65347  0.95118  Biso   1.000  C
  H14      1.0000 0.25550  0.68300  0.96350  Biso   1.000  H
  C25      1.0000 0.24170  0.60960  0.98695  Biso   1.000  C
  C26      1.0000 0.19720  0.56755  0.96736  Biso   1.000  C
  H15      1.0000 0.20600  0.53690  0.99050  Biso   1.000  H
  C27      1.0000 0.13990  0.57120  0.91361  Biso   1.000  C
  H16      1.0000 0.10890  0.54240  0.90080  Biso   1.000  H
  C28      1.0000 0.46720  0.78302  0.10715  Biso   1.000  C
  H17      1.0000 0.46880  0.80930  0.07430  Biso   1.000  H
  C29      1.0000 0.43380  0.73801  0.08676  Biso   1.000  C
  H18      1.0000 0.41320  0.73360  0.04080  Biso   1.000  H
  C30      1.0000 0.43050  0.69950  0.13413  Biso   1.000  C
  C31      1.0000 0.46360  0.70740  0.20023  Biso   1.000  C
  H19      1.0000 0.46430  0.68150  0.23360  Biso   1.000  H
  C32      1.0000 0.49530  0.75356  0.21615  Biso   1.000  C
  H20      1.0000 0.51690  0.75900  0.26160  Biso   1.000  H
  C33      1.0000 0.45940  0.48040  0.26201  Biso   1.000  C
  H21      1.0000 0.49500  0.48120  0.30180  Biso   1.000  H
  C34      1.0000 0.44030  0.52473  0.22968  Biso   1.000  C
  H22      1.0000 0.46210  0.55510  0.24720  Biso   1.000  H
  C35      1.0000 0.38880  0.52432  0.17111  Biso   1.000  C
  C36      1.0000 0.35750  0.47915  0.14898  Biso   1.000  C
  H23      1.0000 0.32110  0.47740  0.10970  Biso   1.000  H
  C37      1.0000 0.37950  0.43671  0.18420  Biso   1.000  C
  H24      1.0000 0.35760  0.40600  0.16810  Biso   1.000  H
  C38      1.0000 0.30220  0.60946  0.04544  Biso   1.000  C
  C39      1.0000 0.39040  0.65189  0.11547  Biso   1.000  C
  C40      1.0000 0.36910  0.57044  0.13314  Biso   1.000  C
  Fe3      1.0000 0.95866  0.11800  0.71254  Biso   1.000  Fe
  Fe4      1.0000 0.46552  0.36668  0.29366  Biso   1.000  Fe
  S5       1.0000 0.68069  0.43774  0.44552  Biso   1.000  S
  S6       1.0000 0.23516  0.27922  0.18332  Biso   1.000  S
  S7       1.0000 0.71851  0.21602  0.78591  Biso   1.000  S
  S8       1.0000 0.15471  0.06265  0.53818  Biso   1.000  S
  C41      1.0000 0.79980  0.17970  0.77305  Biso   1.000  C
  C42      1.0000 0.09750  0.07499  0.60673  Biso   1.000  C
  C43      1.0000 0.60570  0.41670  0.39560  Biso   1.000  C
  C44      1.0000 0.31830  0.30842  0.21130  Biso   1.000  C
  N17      1.0000 0.85766  0.15427  0.76417  Biso   1.000  N
  N18      1.0000 0.05626  0.08447  0.65467  Biso   1.000  N
  N19      1.0000 0.55215  0.40183  0.35952  Biso   1.000  N
  N20      1.0000 0.37712  0.32938  0.23150  Biso   1.000  N
  N21      1.0000 0.37017  0.37181  0.37662  Biso   1.000  N
  N22      1.0000 0.00077  0.19180  0.67658  Biso   1.000  N
  N23      1.0000 0.07940  0.54540  0.74409  Biso   1.000  N
  N24      1.0000 0.15602  0.32949  0.55959  Biso   1.000  N
  N25      1.0000 0.18424  0.41449  0.58039  Biso   1.000  N
  N26      1.0000 0.08741  0.37087  0.65229  Biso   1.000  N
  C45      1.0000 0.32590  0.33113  0.39339  Biso   1.000  C
  H25      1.0000 0.33400  0.30190  0.36670  Biso   1.000  H
  C46      1.0000 0.26910  0.32997  0.44774  Biso   1.000  C
  H26      1.0000 0.23930  0.30030  0.45840  Biso   1.000  H
  C47      1.0000 0.25585  0.37242  0.48657  Biso   1.000  C
  C48      1.0000 0.30130  0.41487  0.46895  Biso   1.000  C
  H27      1.0000 0.29350  0.44470  0.49430  Biso   1.000  H
  C49      1.0000 0.35760  0.41301  0.41431  Biso   1.000  C
  H28      1.0000 0.38880  0.44200  0.40290  Biso   1.000  H
  C50      1.0000 0.03170  0.19882  0.61261  Biso   1.000  C
  H29      1.0000 0.03180  0.17150  0.58140  Biso   1.000  H
  C51      1.0000 0.06340  0.24366  0.58937  Biso   1.000  C
  H30      1.0000 0.08410  0.24710  0.54330  Biso   1.000  H
  C52      1.0000 0.06417  0.28336  0.63493  Biso   1.000  C
  C53      1.0000 0.03060  0.27695  0.70126  Biso   1.000  C
  H31      1.0000 0.02890  0.30380  0.73310  Biso   1.000  H
  C54      1.0000 0.99990  0.23092  0.71989  Biso   1.000  C
  H32      1.0000 0.97720  0.22670  0.76520  Biso   1.000  H
  C55      1.0000 0.02780  0.50625  0.74915  Biso   1.000  C
  H33      1.0000 0.97900  0.50900  0.77780  Biso   1.000  H
  C56      1.0000 0.04170  0.46190  0.71496  Biso   1.000  C
  H34      1.0000 0.00400  0.43480  0.72080  Biso   1.000  H
  C57      1.0000 0.11190  0.45796  0.67192  Biso   1.000  C
  C58      1.0000 0.16550  0.49832  0.66571  Biso   1.000  C
  H35      1.0000 0.21380  0.49680  0.63630  Biso   1.000  H
  C59      1.0000 0.14750  0.54069  0.70288  Biso   1.000  C
  H36      1.0000 0.18530  0.56800  0.69910  Biso   1.000  H
  C60      1.0000 0.19500  0.37226  0.54533  Biso   1.000  C
  C61      1.0000 0.10440  0.33072  0.61419  Biso   1.000  C
  C62      1.0000 0.12880  0.41180  0.63259  Biso   1.000  C
  N27      1.0000 0.87438  0.11303  0.62153  Biso   1.000  N
  N28      1.0000 0.50269  0.29127  0.32922  Biso   1.000  N
  N29      1.0000 0.56961  0.93654  0.25966  Biso   1.000  N
  N30      1.0000 0.66070  0.15257  0.43948  Biso   1.000  N
  N31      1.0000 0.59317  0.11224  0.34558  Biso   1.000  N
  N32      1.0000 0.68359  0.06697  0.42111  Biso   1.000  N
  C63      1.0000 0.83160  0.15363  0.60222  Biso   1.000  C
  H37      1.0000 0.84170  0.18380  0.62640  Biso   1.000  H
  C64      1.0000 0.77370  0.15347  0.54882  Biso   1.000  C
  H38      1.0000 0.74450  0.18300  0.53650  Biso   1.000  H
  C65      1.0000 0.75830  0.10960  0.51305  Biso   1.000  C
  C66      1.0000 0.80280  0.06755  0.53264  Biso   1.000  C
  H39      1.0000 0.79400  0.03690  0.50950  Biso   1.000  H
  C67      1.0000 0.86010  0.07120  0.58639  Biso   1.000  C
  H40      1.0000 0.89110  0.04240  0.59920  Biso   1.000  H
  C68      1.0000 0.53280  0.28302  0.39285  Biso   1.000  C
  H41      1.0000 0.53120  0.30930  0.42570  Biso   1.000  H
  C69      1.0000 0.56620  0.23801  0.41324  Biso   1.000  C
  H42      1.0000 0.58680  0.23360  0.45920  Biso   1.000  H
  C70      1.0000 0.56950  0.19950  0.36587  Biso   1.000  C
  C71      1.0000 0.53640  0.20740  0.29977  Biso   1.000  C
  H43      1.0000 0.53570  0.18150  0.26640  Biso   1.000  H
  C72      1.0000 0.50470  0.25356  0.28385  Biso   1.000  C
  H44      1.0000 0.48310  0.25900  0.23840  Biso   1.000  H
  C73      1.0000 0.54060  0.98040  0.23799  Biso   1.000  C
  H45      1.0000 0.50500  0.98120  0.19820  Biso   1.000  H
  C74      1.0000 0.55970  0.02473  0.27032  Biso   1.000  C
  H46      1.0000 0.53790  0.05510  0.25280  Biso   1.000  H
  C75      1.0000 0.61120  0.02432  0.32889  Biso   1.000  C
  C76      1.0000 0.64250  0.97915  0.35102  Biso   1.000  C
  H47      1.0000 0.67890  0.97740  0.39030  Biso   1.000  H
  C77      1.0000 0.62050  0.93671  0.31580  Biso   1.000  C
  H48      1.0000 0.64240  0.90600  0.33190  Biso   1.000  H
  C78      1.0000 0.69780  0.10946  0.45456  Biso   1.000  C
  C79      1.0000 0.60960  0.15189  0.38453  Biso   1.000  C
  C80      1.0000 0.63090  0.07044  0.36686  Biso   1.000  C
  Fe5      1.0000 0.95866  0.38200  0.21254  Biso   1.000  Fe
  Fe6      1.0000 0.46552  0.13332  0.79366  Biso   1.000  Fe
  S9       1.0000 0.68069  0.06226  0.94552  Biso   1.000  S
  S10      1.0000 0.23516  0.22078  0.68332  Biso   1.000  S
  S11      1.0000 0.71851  0.28398  0.28591  Biso   1.000  S
  S12      1.0000 0.15471  0.43735  0.03818  Biso   1.000  S
  C81      1.0000 0.79980  0.32030  0.27305  Biso   1.000  C
  C82      1.0000 0.09750  0.42501  0.10673  Biso   1.000  C
  C83      1.0000 0.60570  0.08330  0.89560  Biso   1.000  C
  C84      1.0000 0.31830  0.19158  0.71130  Biso   1.000  C
  N33      1.0000 0.85766  0.34573  0.26417  Biso   1.000  N
  N34      1.0000 0.05626  0.41553  0.15467  Biso   1.000  N
  N35      1.0000 0.55215  0.09817  0.85952  Biso   1.000  N
  N36      1.0000 0.37712  0.17062  0.73150  Biso   1.000  N
  N37      1.0000 0.37017  0.12819  0.87662  Biso   1.000  N
  N38      1.0000 0.00077  0.30820  0.17658  Biso   1.000  N
  N39      1.0000 0.07940  0.95460  0.24409  Biso   1.000  N
  N40      1.0000 0.15602  0.17051  0.05959  Biso   1.000  N
  N41      1.0000 0.18424  0.08551  0.08039  Biso   1.000  N
  N42      1.0000 0.08741  0.12913  0.15229  Biso   1.000  N
  C85      1.0000 0.32590  0.16887  0.89339  Biso   1.000  C
  H49      1.0000 0.33400  0.19810  0.86670  Biso   1.000  H
  C86      1.0000 0.26910  0.17003  0.94774  Biso   1.000  C
  H50      1.0000 0.23930  0.19970  0.95840  Biso   1.000  H
  C87      1.0000 0.25585  0.12758  0.98657  Biso   1.000  C
  C88      1.0000 0.30130  0.08513  0.96895  Biso   1.000  C
  H51      1.0000 0.29350  0.05530  0.99430  Biso   1.000  H
  C89      1.0000 0.35760  0.08699  0.91431  Biso   1.000  C
  H52      1.0000 0.38880  0.05800  0.90290  Biso   1.000  H
  C90      1.0000 0.03170  0.30118  0.11261  Biso   1.000  C
  H53      1.0000 0.03180  0.32850  0.08140  Biso   1.000  H
  C91      1.0000 0.06340  0.25634  0.08937  Biso   1.000  C
  H54      1.0000 0.08410  0.25290  0.04330  Biso   1.000  H
  C92      1.0000 0.06417  0.21664  0.13493  Biso   1.000  C
  C93      1.0000 0.03060  0.22305  0.20126  Biso   1.000  C
  H55      1.0000 0.02890  0.19620  0.23310  Biso   1.000  H
  C94      1.0000 0.99990  0.26908  0.21989  Biso   1.000  C
  H56      1.0000 0.97720  0.27330  0.26520  Biso   1.000  H
  C95      1.0000 0.02780  0.99375  0.24915  Biso   1.000  C
  H57      1.0000 0.97900  0.99100  0.27780  Biso   1.000  H
  C96      1.0000 0.04170  0.03810  0.21496  Biso   1.000  C
  H58      1.0000 0.00400  0.06520  0.22080  Biso   1.000  H
  C97      1.0000 0.11190  0.04204  0.17192  Biso   1.000  C
  C98      1.0000 0.16550  0.00168  0.16571  Biso   1.000  C
  H59      1.0000 0.21380  0.00320  0.13630  Biso   1.000  H
  C99      1.0000 0.14750  0.95931  0.20288  Biso   1.000  C
  H60      1.0000 0.18530  0.93200  0.19910  Biso   1.000  H
  C100     1.0000 0.19500  0.12774  0.04533  Biso   1.000  C
  C101     1.0000 0.10440  0.16928  0.11419  Biso   1.000  C
  C102     1.0000 0.12880  0.08820  0.13259  Biso   1.000  C
  N43      1.0000 0.87438  0.38697  0.12153  Biso   1.000  N
  N44      1.0000 0.50269  0.20873  0.82922  Biso   1.000  N
  N45      1.0000 0.56961  0.56346  0.75966  Biso   1.000  N
  N46      1.0000 0.66070  0.34743  0.93948  Biso   1.000  N
  N47      1.0000 0.59317  0.38776  0.84558  Biso   1.000  N
  N48      1.0000 0.68359  0.43303  0.92111  Biso   1.000  N
  C103     1.0000 0.83160  0.34637  0.10222  Biso   1.000  C
  H61      1.0000 0.84170  0.31620  0.12640  Biso   1.000  H
  C104     1.0000 0.77370  0.34653  0.04882  Biso   1.000  C
  H62      1.0000 0.74450  0.31700  0.03650  Biso   1.000  H
  C105     1.0000 0.75830  0.39040  0.01305  Biso   1.000  C
  C106     1.0000 0.80280  0.43245  0.03264  Biso   1.000  C
  H63      1.0000 0.79400  0.46310  0.00950  Biso   1.000  H
  C107     1.0000 0.86010  0.42880  0.08639  Biso   1.000  C
  H64      1.0000 0.89110  0.45760  0.09920  Biso   1.000  H
  C108     1.0000 0.53280  0.21698  0.89285  Biso   1.000  C
  H65      1.0000 0.53120  0.19070  0.92570  Biso   1.000  H
  C109     1.0000 0.56620  0.26199  0.91324  Biso   1.000  C
  H66      1.0000 0.58680  0.26640  0.95920  Biso   1.000  H
  C110     1.0000 0.56950  0.30050  0.86587  Biso   1.000  C
  C111     1.0000 0.53640  0.29260  0.79977  Biso   1.000  C
  H67      1.0000 0.53570  0.31850  0.76640  Biso   1.000  H
  C112     1.0000 0.50470  0.24644  0.78385  Biso   1.000  C
  H68      1.0000 0.48310  0.24100  0.73840  Biso   1.000  H
  C113     1.0000 0.54060  0.51960  0.73799  Biso   1.000  C
  H69      1.0000 0.50500  0.51880  0.69820  Biso   1.000  H
  C114     1.0000 0.55970  0.47527  0.77032  Biso   1.000  C
  H70      1.0000 0.53790  0.44490  0.75280  Biso   1.000  H
  C115     1.0000 0.61120  0.47568  0.82889  Biso   1.000  C
  C116     1.0000 0.64250  0.52085  0.85102  Biso   1.000  C
  H71      1.0000 0.67890  0.52260  0.89030  Biso   1.000  H
  C117     1.0000 0.62050  0.56329  0.81580  Biso   1.000  C
  H72      1.0000 0.64240  0.59400  0.83190  Biso   1.000  H
  C118     1.0000 0.69780  0.39054  0.95456  Biso   1.000  C
  C119     1.0000 0.60960  0.34811  0.88453  Biso   1.000  C
  C120     1.0000 0.63090  0.42956  0.86686  Biso   1.000  C
  Fe7      1.0000 0.04134  0.88200  0.28746  Biso   1.000  Fe
  Fe8      1.0000 0.53448  0.63332  0.70634  Biso   1.000  Fe
  S13      1.0000 0.31931  0.56226  0.55448  Biso   1.000  S
  S14      1.0000 0.76484  0.72078  0.81668  Biso   1.000  S
  S15      1.0000 0.28149  0.78398  0.21409  Biso   1.000  S
  S16      1.0000 0.84529  0.93735  0.46182  Biso   1.000  S
  C121     1.0000 0.20020  0.82030  0.22695  Biso   1.000  C
  C122     1.0000 0.90250  0.92501  0.39327  Biso   1.000  C
  C123     1.0000 0.39430  0.58330  0.60440  Biso   1.000  C
  C124     1.0000 0.68170  0.69158  0.78870  Biso   1.000  C
  N49      1.0000 0.14234  0.84573  0.23583  Biso   1.000  N
  N50      1.0000 0.94374  0.91553  0.34533  Biso   1.000  N
  N51      1.0000 0.44785  0.59817  0.64048  Biso   1.000  N
  N52      1.0000 0.62288  0.67062  0.76850  Biso   1.000  N
  N53      1.0000 0.62983  0.62819  0.62338  Biso   1.000  N
  N54      1.0000 0.99923  0.80820  0.32342  Biso   1.000  N
  N55      1.0000 0.92060  0.45460  0.25591  Biso   1.000  N
  N56      1.0000 0.84398  0.67051  0.44041  Biso   1.000  N
  N57      1.0000 0.81576  0.58551  0.41961  Biso   1.000  N
  N58      1.0000 0.91259  0.62913  0.34771  Biso   1.000  N
  C125     1.0000 0.67410  0.66887  0.60661  Biso   1.000  C
  H73      1.0000 0.66600  0.69810  0.63330  Biso   1.000  H
  C126     1.0000 0.73090  0.67003  0.55226  Biso   1.000  C
  H74      1.0000 0.76070  0.69970  0.54160  Biso   1.000  H
  C127     1.0000 0.74415  0.62758  0.51343  Biso   1.000  C
  C128     1.0000 0.69870  0.58513  0.53105  Biso   1.000  C
  H75      1.0000 0.70650  0.55530  0.50570  Biso   1.000  H
  C129     1.0000 0.64240  0.58699  0.58569  Biso   1.000  C
  H76      1.0000 0.61120  0.55800  0.59710  Biso   1.000  H
  C130     1.0000 0.96830  0.80118  0.38739  Biso   1.000  C
  H77      1.0000 0.96820  0.82850  0.41860  Biso   1.000  H
  C131     1.0000 0.93660  0.75634  0.41063  Biso   1.000  C
  H78      1.0000 0.91590  0.75290  0.45670  Biso   1.000  H
  C132     1.0000 0.93583  0.71664  0.36507  Biso   1.000  C
  C133     1.0000 0.96940  0.72305  0.29874  Biso   1.000  C
  H79      1.0000 0.97110  0.69620  0.26690  Biso   1.000  H
  C134     1.0000 0.00010  0.76908  0.28011  Biso   1.000  C
  H80      1.0000 0.02280  0.77330  0.23480  Biso   1.000  H
  C135     1.0000 0.97220  0.49375  0.25085  Biso   1.000  C
  H81      1.0000 0.02100  0.49100  0.22220  Biso   1.000  H
  C136     1.0000 0.95830  0.53810  0.28504  Biso   1.000  C
  H82      1.0000 0.99600  0.56520  0.27920  Biso   1.000  H
  C137     1.0000 0.88810  0.54204  0.32808  Biso   1.000  C
  C138     1.0000 0.83450  0.50168  0.33429  Biso   1.000  C
  H83      1.0000 0.78620  0.50320  0.36370  Biso   1.000  H
  C139     1.0000 0.85250  0.45931  0.29712  Biso   1.000  C
  H84      1.0000 0.81470  0.43200  0.30090  Biso   1.000  H
  C140     1.0000 0.80500  0.62774  0.45467  Biso   1.000  C
  C141     1.0000 0.89560  0.66928  0.38581  Biso   1.000  C
  C142     1.0000 0.87120  0.58820  0.36741  Biso   1.000  C
  N59      1.0000 0.12562  0.88697  0.37847  Biso   1.000  N
  N60      1.0000 0.49731  0.70873  0.67078  Biso   1.000  N
  N61      1.0000 0.43039  0.06346  0.74034  Biso   1.000  N
  N62      1.0000 0.33930  0.84743  0.56052  Biso   1.000  N
  N63      1.0000 0.40683  0.88776  0.65442  Biso   1.000  N
  N64      1.0000 0.31641  0.93303  0.57889  Biso   1.000  N
  C143     1.0000 0.16840  0.84637  0.39778  Biso   1.000  C
  H85      1.0000 0.15830  0.81620  0.37360  Biso   1.000  H
  C144     1.0000 0.22630  0.84653  0.45118  Biso   1.000  C
  H86      1.0000 0.25550  0.81700  0.46350  Biso   1.000  H
  C145     1.0000 0.24170  0.89040  0.48695  Biso   1.000  C
  C146     1.0000 0.19720  0.93245  0.46736  Biso   1.000  C
  H87      1.0000 0.20600  0.96310  0.49050  Biso   1.000  H
  C147     1.0000 0.13990  0.92880  0.41361  Biso   1.000  C
  H88      1.0000 0.10890  0.95760  0.40080  Biso   1.000  H
  C148     1.0000 0.46720  0.71698  0.60715  Biso   1.000  C
  H89      1.0000 0.46880  0.69070  0.57430  Biso   1.000  H
  C149     1.0000 0.43380  0.76199  0.58676  Biso   1.000  C
  H90      1.0000 0.41320  0.76640  0.54080  Biso   1.000  H
  C150     1.0000 0.43050  0.80050  0.63413  Biso   1.000  C
  C151     1.0000 0.46360  0.79260  0.70023  Biso   1.000  C
  H91      1.0000 0.46430  0.81850  0.73360  Biso   1.000  H
  C152     1.0000 0.49530  0.74644  0.71615  Biso   1.000  C
  H92      1.0000 0.51690  0.74100  0.76160  Biso   1.000  H
  C153     1.0000 0.45940  0.01960  0.76201  Biso   1.000  C
  H93      1.0000 0.49500  0.01880  0.80180  Biso   1.000  H
  C154     1.0000 0.44030  0.97527  0.72968  Biso   1.000  C
  H94      1.0000 0.46210  0.94490  0.74720  Biso   1.000  H
  C155     1.0000 0.38880  0.97568  0.67111  Biso   1.000  C
  C156     1.0000 0.35750  0.02085  0.64898  Biso   1.000  C
  H95      1.0000 0.32110  0.02260  0.60970  Biso   1.000  H
  C157     1.0000 0.37950  0.06329  0.68420  Biso   1.000  C
  H96      1.0000 0.35760  0.09400  0.66810  Biso   1.000  H
  C158     1.0000 0.30220  0.89054  0.54544  Biso   1.000  C
  C159     1.0000 0.39040  0.84811  0.61547  Biso   1.000  C
  C160     1.0000 0.36910  0.92956  0.63314  Biso   1.000  C
