data_image0
_cell_length_a       19.086
_cell_length_b       19.06
_cell_length_c       25.9042
_cell_angle_alpha    90
_cell_angle_beta     90
_cell_angle_gamma    90

_symmetry_space_group_name_H-M    "P 1"
_symmetry_int_tables_number       1

loop_
  _symmetry_equiv_pos_as_xyz
  'x, y, z'

loop_
  _atom_site_label
  _atom_site_occupancy
  _atom_site_fract_x
  _atom_site_fract_y
  _atom_site_fract_z
  _atom_site_thermal_displace_type
  _atom_site_B_iso_or_equiv
  _atom_site_type_symbol
  Ag1      1.0000 0.60262  0.38474  0.38379  Biso   1.000  Ag
  Ag2      1.0000 0.63477  0.14741  0.36625  Biso   1.000  Ag
  S1       1.0000 0.70342  0.41530  0.44736  Biso   1.000  S
  S2       1.0000 0.67671  0.27078  0.38979  Biso   1.000  S
  S3       1.0000 0.69986  0.12554  0.45319  Biso   1.000  S
  S4       1.0000 0.33469  0.45356  0.30260  Biso   1.000  S
  S5       1.0000 0.47923  0.42679  0.36030  Biso   1.000  S
  S6       1.0000 0.62450  0.44987  0.29680  Biso   1.000  S
  C1       1.0000 0.73100  0.33530  0.47650  Biso   1.000  C
  C2       1.0000 0.71570  0.27100  0.45240  Biso   1.000  C
  C3       1.0000 0.73250  0.20710  0.47580  Biso   1.000  C
  C4       1.0000 0.65660  0.46040  0.49690  Biso   1.000  C
  C5       1.0000 0.66100  0.53360  0.49650  Biso   1.000  C
  C6       1.0000 0.62130  0.56980  0.53110  Biso   1.000  C
  C7       1.0000 0.58220  0.53820  0.56670  Biso   1.000  C
  C8       1.0000 0.57560  0.46490  0.56800  Biso   1.000  C
  C9       1.0000 0.61480  0.42630  0.53170  Biso   1.000  C
  C10      1.0000 0.74810  0.29560  0.34840  Biso   1.000  C
  C11      1.0000 0.81360  0.31140  0.36570  Biso   1.000  C
  C12      1.0000 0.86310  0.33330  0.32820  Biso   1.000  C
  C13      1.0000 0.84330  0.33530  0.27700  Biso   1.000  C
  C14      1.0000 0.77970  0.31740  0.26130  Biso   1.000  C
  C15      1.0000 0.72920  0.29660  0.29590  Biso   1.000  C
  C16      1.0000 0.77290  0.08150  0.42620  Biso   1.000  C
  C17      1.0000 0.82740  0.11500  0.40160  Biso   1.000  C
  C18      1.0000 0.88020  0.07520  0.37810  Biso   1.000  C
  C19      1.0000 0.87440  0.00210  0.37840  Biso   1.000  C
  C20      1.0000 0.82050  0.97030  0.40300  Biso   1.000  C
  C21      1.0000 0.76850  0.00860  0.42670  Biso   1.000  C
  C22      1.0000 0.41500  0.48130  0.27370  Biso   1.000  C
  C23      1.0000 0.47860  0.46550  0.29720  Biso   1.000  C
  C24      1.0000 0.28930  0.59390  0.24670  Biso   1.000  C
  C25      1.0000 0.21670  0.58930  0.24670  Biso   1.000  C
  C26      1.0000 0.18040  0.62800  0.28160  Biso   1.000  C
  C27      1.0000 0.21110  0.66770  0.31590  Biso   1.000  C
  C28      1.0000 0.28520  0.67450  0.31710  Biso   1.000  C
  C29      1.0000 0.32380  0.63580  0.28150  Biso   1.000  C
  C30      1.0000 0.45450  0.49770  0.40180  Biso   1.000  C
  C31      1.0000 0.45300  0.47930  0.45400  Biso   1.000  C
  C32      1.0000 0.43180  0.53110  0.48810  Biso   1.000  C
  C33      1.0000 0.41540  0.59450  0.47300  Biso   1.000  C
  C34      1.0000 0.41790  0.61180  0.41980  Biso   1.000  C
  C35      1.0000 0.43930  0.56390  0.38450  Biso   1.000  C
  C36      1.0000 0.54320  0.48270  0.27450  Biso   1.000  C
  C37      1.0000 0.66850  0.52230  0.32320  Biso   1.000  C
  C38      1.0000 0.74110  0.51920  0.32390  Biso   1.000  C
  C39      1.0000 0.78070  0.57060  0.34740  Biso   1.000  C
  C40      1.0000 0.74820  0.62490  0.37150  Biso   1.000  C
  C41      1.0000 0.67610  0.62960  0.37280  Biso   1.000  C
  C42      1.0000 0.63520  0.57710  0.34810  Biso   1.000  C
  H1       1.0000 0.69130  0.55740  0.47270  Biso   1.000  H
  H2       1.0000 0.62160  0.61980  0.52950  Biso   1.000  H
  H3       1.0000 0.55770  0.56590  0.59130  Biso   1.000  H
  H4       1.0000 0.54610  0.44140  0.59250  Biso   1.000  H
  H5       1.0000 0.61090  0.37640  0.53100  Biso   1.000  H
  H6       1.0000 0.82620  0.30690  0.40210  Biso   1.000  H
  H7       1.0000 0.90900  0.34660  0.33800  Biso   1.000  H
  H8       1.0000 0.87650  0.34980  0.25190  Biso   1.000  H
  H9       1.0000 0.76800  0.31990  0.22530  Biso   1.000  H
  H10      1.0000 0.68350  0.28350  0.28490  Biso   1.000  H
  H11      1.0000 0.82890  0.16560  0.40140  Biso   1.000  H
  H12      1.0000 0.91990  0.09930  0.36120  Biso   1.000  H
  H13      1.0000 0.91050  0.97540  0.36090  Biso   1.000  H
  H14      1.0000 0.81910  0.92010  0.40400  Biso   1.000  H
  H15      1.0000 0.72900  0.98530  0.44340  Biso   1.000  H
  H16      1.0000 0.19280  0.55880  0.22290  Biso   1.000  H
  H17      1.0000 0.13080  0.62710  0.28100  Biso   1.000  H
  H18      1.0000 0.18310  0.69250  0.33990  Biso   1.000  H
  H19      1.0000 0.30840  0.70420  0.34170  Biso   1.000  H
  H20      1.0000 0.37380  0.63860  0.28120  Biso   1.000  H
  H21      1.0000 0.46640  0.43340  0.46540  Biso   1.000  H
  H22      1.0000 0.42770  0.51920  0.52410  Biso   1.000  H
  H23      1.0000 0.40220  0.62890  0.49780  Biso   1.000  H
  H24      1.0000 0.40570  0.65790  0.40850  Biso   1.000  H
  H25      1.0000 0.44450  0.57630  0.34820  Biso   1.000  H
  H26      1.0000 0.76480  0.47970  0.30740  Biso   1.000  H
  H27      1.0000 0.83060  0.56760  0.34640  Biso   1.000  H
  H28      1.0000 0.77530  0.66190  0.38780  Biso   1.000  H
  H29      1.0000 0.65300  0.66850  0.39120  Biso   1.000  H
  H30      1.0000 0.58490  0.57990  0.34790  Biso   1.000  H
  Ag3      1.0000 0.10262  0.88474  0.88379  Biso   1.000  Ag
  Ag4      1.0000 0.13477  0.64741  0.86625  Biso   1.000  Ag
  S7       1.0000 0.20342  0.91530  0.94736  Biso   1.000  S
  S8       1.0000 0.17671  0.77078  0.88979  Biso   1.000  S
  S9       1.0000 0.19986  0.62554  0.95319  Biso   1.000  S
  S10      1.0000 0.83469  0.95356  0.80260  Biso   1.000  S
  S11      1.0000 0.97923  0.92679  0.86030  Biso   1.000  S
  S12      1.0000 0.12450  0.94987  0.79680  Biso   1.000  S
  C43      1.0000 0.23100  0.83530  0.97650  Biso   1.000  C
  C44      1.0000 0.21570  0.77100  0.95240  Biso   1.000  C
  C45      1.0000 0.23250  0.70710  0.97580  Biso   1.000  C
  C46      1.0000 0.15660  0.96040  0.99690  Biso   1.000  C
  C47      1.0000 0.16100  0.03360  0.99650  Biso   1.000  C
  C48      1.0000 0.12130  0.06980  0.03110  Biso   1.000  C
  C49      1.0000 0.08220  0.03820  0.06670  Biso   1.000  C
  C50      1.0000 0.07560  0.96490  0.06800  Biso   1.000  C
  C51      1.0000 0.11480  0.92630  0.03170  Biso   1.000  C
  C52      1.0000 0.24810  0.79560  0.84840  Biso   1.000  C
  C53      1.0000 0.31360  0.81140  0.86570  Biso   1.000  C
  C54      1.0000 0.36310  0.83330  0.82820  Biso   1.000  C
  C55      1.0000 0.34330  0.83530  0.77700  Biso   1.000  C
  C56      1.0000 0.27970  0.81740  0.76130  Biso   1.000  C
  C57      1.0000 0.22920  0.79660  0.79590  Biso   1.000  C
  C58      1.0000 0.27290  0.58150  0.92620  Biso   1.000  C
  C59      1.0000 0.32740  0.61500  0.90160  Biso   1.000  C
  C60      1.0000 0.38020  0.57520  0.87810  Biso   1.000  C
  C61      1.0000 0.37440  0.50210  0.87840  Biso   1.000  C
  C62      1.0000 0.32050  0.47030  0.90300  Biso   1.000  C
  C63      1.0000 0.26850  0.50860  0.92670  Biso   1.000  C
  C64      1.0000 0.91500  0.98130  0.77370  Biso   1.000  C
  C65      1.0000 0.97860  0.96550  0.79720  Biso   1.000  C
  C66      1.0000 0.78930  0.09390  0.74670  Biso   1.000  C
  C67      1.0000 0.71670  0.08930  0.74670  Biso   1.000  C
  C68      1.0000 0.68040  0.12800  0.78160  Biso   1.000  C
  C69      1.0000 0.71110  0.16770  0.81590  Biso   1.000  C
  C70      1.0000 0.78520  0.17450  0.81710  Biso   1.000  C
  C71      1.0000 0.82380  0.13580  0.78150  Biso   1.000  C
  C72      1.0000 0.95450  0.99770  0.90180  Biso   1.000  C
  C73      1.0000 0.95300  0.97930  0.95400  Biso   1.000  C
  C74      1.0000 0.93180  0.03110  0.98810  Biso   1.000  C
  C75      1.0000 0.91540  0.09450  0.97300  Biso   1.000  C
  C76      1.0000 0.91790  0.11180  0.91980  Biso   1.000  C
  C77      1.0000 0.93930  0.06390  0.88450  Biso   1.000  C
  C78      1.0000 0.04320  0.98270  0.77450  Biso   1.000  C
  C79      1.0000 0.16850  0.02230  0.82320  Biso   1.000  C
  C80      1.0000 0.24110  0.01920  0.82390  Biso   1.000  C
  C81      1.0000 0.28070  0.07060  0.84740  Biso   1.000  C
  C82      1.0000 0.24820  0.12490  0.87150  Biso   1.000  C
  C83      1.0000 0.17610  0.12960  0.87280  Biso   1.000  C
  C84      1.0000 0.13520  0.07710  0.84810  Biso   1.000  C
  H31      1.0000 0.19130  0.05740  0.97270  Biso   1.000  H
  H32      1.0000 0.12160  0.11980  0.02950  Biso   1.000  H
  H33      1.0000 0.05770  0.06590  0.09130  Biso   1.000  H
  H34      1.0000 0.04610  0.94140  0.09250  Biso   1.000  H
  H35      1.0000 0.11090  0.87640  0.03100  Biso   1.000  H
  H36      1.0000 0.32620  0.80690  0.90210  Biso   1.000  H
  H37      1.0000 0.40900  0.84660  0.83800  Biso   1.000  H
  H38      1.0000 0.37650  0.84980  0.75190  Biso   1.000  H
  H39      1.0000 0.26800  0.81990  0.72530  Biso   1.000  H
  H40      1.0000 0.18350  0.78350  0.78490  Biso   1.000  H
  H41      1.0000 0.32890  0.66560  0.90140  Biso   1.000  H
  H42      1.0000 0.41990  0.59930  0.86120  Biso   1.000  H
  H43      1.0000 0.41050  0.47540  0.86090  Biso   1.000  H
  H44      1.0000 0.31910  0.42010  0.90400  Biso   1.000  H
  H45      1.0000 0.22900  0.48530  0.94340  Biso   1.000  H
  H46      1.0000 0.69280  0.05880  0.72290  Biso   1.000  H
  H47      1.0000 0.63080  0.12710  0.78100  Biso   1.000  H
  H48      1.0000 0.68310  0.19250  0.83990  Biso   1.000  H
  H49      1.0000 0.80840  0.20420  0.84170  Biso   1.000  H
  H50      1.0000 0.87380  0.13860  0.78120  Biso   1.000  H
  H51      1.0000 0.96640  0.93340  0.96540  Biso   1.000  H
  H52      1.0000 0.92770  0.01920  0.02410  Biso   1.000  H
  H53      1.0000 0.90220  0.12890  0.99780  Biso   1.000  H
  H54      1.0000 0.90570  0.15790  0.90850  Biso   1.000  H
  H55      1.0000 0.94450  0.07630  0.84820  Biso   1.000  H
  H56      1.0000 0.26480  0.97970  0.80740  Biso   1.000  H
  H57      1.0000 0.33060  0.06760  0.84640  Biso   1.000  H
  H58      1.0000 0.27530  0.16190  0.88780  Biso   1.000  H
  H59      1.0000 0.15300  0.16850  0.89120  Biso   1.000  H
  H60      1.0000 0.08490  0.07990  0.84790  Biso   1.000  H
  Ag5      1.0000 0.89738  0.61526  0.88379  Biso   1.000  Ag
  Ag6      1.0000 0.86523  0.85259  0.86625  Biso   1.000  Ag
  S13      1.0000 0.79658  0.58470  0.94736  Biso   1.000  S
  S14      1.0000 0.82329  0.72922  0.88979  Biso   1.000  S
  S15      1.0000 0.80014  0.87446  0.95319  Biso   1.000  S
  S16      1.0000 0.16531  0.54644  0.80260  Biso   1.000  S
  S17      1.0000 0.02077  0.57321  0.86030  Biso   1.000  S
  S18      1.0000 0.87550  0.55013  0.79680  Biso   1.000  S
  C85      1.0000 0.76900  0.66470  0.97650  Biso   1.000  C
  C86      1.0000 0.78430  0.72900  0.95240  Biso   1.000  C
  C87      1.0000 0.76750  0.79290  0.97580  Biso   1.000  C
  C88      1.0000 0.84340  0.53960  0.99690  Biso   1.000  C
  C89      1.0000 0.83900  0.46640  0.99650  Biso   1.000  C
  C90      1.0000 0.87870  0.43020  0.03110  Biso   1.000  C
  C91      1.0000 0.91780  0.46180  0.06670  Biso   1.000  C
  C92      1.0000 0.92440  0.53510  0.06800  Biso   1.000  C
  C93      1.0000 0.88520  0.57370  0.03170  Biso   1.000  C
  C94      1.0000 0.75190  0.70440  0.84840  Biso   1.000  C
  C95      1.0000 0.68640  0.68860  0.86570  Biso   1.000  C
  C96      1.0000 0.63690  0.66670  0.82820  Biso   1.000  C
  C97      1.0000 0.65670  0.66470  0.77700  Biso   1.000  C
  C98      1.0000 0.72030  0.68260  0.76130  Biso   1.000  C
  C99      1.0000 0.77080  0.70340  0.79590  Biso   1.000  C
  C100     1.0000 0.72710  0.91850  0.92620  Biso   1.000  C
  C101     1.0000 0.67260  0.88500  0.90160  Biso   1.000  C
  C102     1.0000 0.61980  0.92480  0.87810  Biso   1.000  C
  C103     1.0000 0.62560  0.99790  0.87840  Biso   1.000  C
  C104     1.0000 0.67950  0.02970  0.90300  Biso   1.000  C
  C105     1.0000 0.73150  0.99140  0.92670  Biso   1.000  C
  C106     1.0000 0.08500  0.51870  0.77370  Biso   1.000  C
  C107     1.0000 0.02140  0.53450  0.79720  Biso   1.000  C
  C108     1.0000 0.21070  0.40610  0.74670  Biso   1.000  C
  C109     1.0000 0.28330  0.41070  0.74670  Biso   1.000  C
  C110     1.0000 0.31960  0.37200  0.78160  Biso   1.000  C
  C111     1.0000 0.28890  0.33230  0.81590  Biso   1.000  C
  C112     1.0000 0.21480  0.32550  0.81710  Biso   1.000  C
  C113     1.0000 0.17620  0.36420  0.78150  Biso   1.000  C
  C114     1.0000 0.04550  0.50230  0.90180  Biso   1.000  C
  C115     1.0000 0.04700  0.52070  0.95400  Biso   1.000  C
  C116     1.0000 0.06820  0.46890  0.98810  Biso   1.000  C
  C117     1.0000 0.08460  0.40550  0.97300  Biso   1.000  C
  C118     1.0000 0.08210  0.38820  0.91980  Biso   1.000  C
  C119     1.0000 0.06070  0.43610  0.88450  Biso   1.000  C
  C120     1.0000 0.95680  0.51730  0.77450  Biso   1.000  C
  C121     1.0000 0.83150  0.47770  0.82320  Biso   1.000  C
  C122     1.0000 0.75890  0.48080  0.82390  Biso   1.000  C
  C123     1.0000 0.71930  0.42940  0.84740  Biso   1.000  C
  C124     1.0000 0.75180  0.37510  0.87150  Biso   1.000  C
  C125     1.0000 0.82390  0.37040  0.87280  Biso   1.000  C
  C126     1.0000 0.86480  0.42290  0.84810  Biso   1.000  C
  H61      1.0000 0.80870  0.44260  0.97270  Biso   1.000  H
  H62      1.0000 0.87840  0.38020  0.02950  Biso   1.000  H
  H63      1.0000 0.94230  0.43410  0.09130  Biso   1.000  H
  H64      1.0000 0.95390  0.55860  0.09250  Biso   1.000  H
  H65      1.0000 0.88910  0.62360  0.03100  Biso   1.000  H
  H66      1.0000 0.67380  0.69310  0.90210  Biso   1.000  H
  H67      1.0000 0.59100  0.65340  0.83800  Biso   1.000  H
  H68      1.0000 0.62350  0.65020  0.75190  Biso   1.000  H
  H69      1.0000 0.73200  0.68010  0.72530  Biso   1.000  H
  H70      1.0000 0.81650  0.71650  0.78490  Biso   1.000  H
  H71      1.0000 0.67110  0.83440  0.90140  Biso   1.000  H
  H72      1.0000 0.58010  0.90070  0.86120  Biso   1.000  H
  H73      1.0000 0.58950  0.02460  0.86090  Biso   1.000  H
  H74      1.0000 0.68090  0.07990  0.90400  Biso   1.000  H
  H75      1.0000 0.77100  0.01470  0.94340  Biso   1.000  H
  H76      1.0000 0.30720  0.44120  0.72290  Biso   1.000  H
  H77      1.0000 0.36920  0.37290  0.78100  Biso   1.000  H
  H78      1.0000 0.31690  0.30750  0.83990  Biso   1.000  H
  H79      1.0000 0.19160  0.29580  0.84170  Biso   1.000  H
  H80      1.0000 0.12620  0.36140  0.78120  Biso   1.000  H
  H81      1.0000 0.03360  0.56660  0.96540  Biso   1.000  H
  H82      1.0000 0.07230  0.48080  0.02410  Biso   1.000  H
  H83      1.0000 0.09780  0.37110  0.99780  Biso   1.000  H
  H84      1.0000 0.09430  0.34210  0.90850  Biso   1.000  H
  H85      1.0000 0.05550  0.42370  0.84820  Biso   1.000  H
  H86      1.0000 0.73520  0.52030  0.80740  Biso   1.000  H
  H87      1.0000 0.66940  0.43240  0.84640  Biso   1.000  H
  H88      1.0000 0.72470  0.33810  0.88780  Biso   1.000  H
  H89      1.0000 0.84700  0.33150  0.89120  Biso   1.000  H
  H90      1.0000 0.91510  0.42010  0.84790  Biso   1.000  H
  Ag7      1.0000 0.39738  0.11526  0.38379  Biso   1.000  Ag
  Ag8      1.0000 0.36523  0.35259  0.36625  Biso   1.000  Ag
  S19      1.0000 0.29658  0.08470  0.44736  Biso   1.000  S
  S20      1.0000 0.32329  0.22922  0.38979  Biso   1.000  S
  S21      1.0000 0.30014  0.37446  0.45319  Biso   1.000  S
  S22      1.0000 0.66531  0.04644  0.30260  Biso   1.000  S
  S23      1.0000 0.52077  0.07321  0.36030  Biso   1.000  S
  S24      1.0000 0.37550  0.05013  0.29680  Biso   1.000  S
  C127     1.0000 0.26900  0.16470  0.47650  Biso   1.000  C
  C128     1.0000 0.28430  0.22900  0.45240  Biso   1.000  C
  C129     1.0000 0.26750  0.29290  0.47580  Biso   1.000  C
  C130     1.0000 0.34340  0.03960  0.49690  Biso   1.000  C
  C131     1.0000 0.33900  0.96640  0.49650  Biso   1.000  C
  C132     1.0000 0.37870  0.93020  0.53110  Biso   1.000  C
  C133     1.0000 0.41780  0.96180  0.56670  Biso   1.000  C
  C134     1.0000 0.42440  0.03510  0.56800  Biso   1.000  C
  C135     1.0000 0.38520  0.07370  0.53170  Biso   1.000  C
  C136     1.0000 0.25190  0.20440  0.34840  Biso   1.000  C
  C137     1.0000 0.18640  0.18860  0.36570  Biso   1.000  C
  C138     1.0000 0.13690  0.16670  0.32820  Biso   1.000  C
  C139     1.0000 0.15670  0.16470  0.27700  Biso   1.000  C
  C140     1.0000 0.22030  0.18260  0.26130  Biso   1.000  C
  C141     1.0000 0.27080  0.20340  0.29590  Biso   1.000  C
  C142     1.0000 0.22710  0.41850  0.42620  Biso   1.000  C
  C143     1.0000 0.17260  0.38500  0.40160  Biso   1.000  C
  C144     1.0000 0.11980  0.42480  0.37810  Biso   1.000  C
  C145     1.0000 0.12560  0.49790  0.37840  Biso   1.000  C
  C146     1.0000 0.17950  0.52970  0.40300  Biso   1.000  C
  C147     1.0000 0.23150  0.49140  0.42670  Biso   1.000  C
  C148     1.0000 0.58500  0.01870  0.27370  Biso   1.000  C
  C149     1.0000 0.52140  0.03450  0.29720  Biso   1.000  C
  C150     1.0000 0.71070  0.90610  0.24670  Biso   1.000  C
  C151     1.0000 0.78330  0.91070  0.24670  Biso   1.000  C
  C152     1.0000 0.81960  0.87200  0.28160  Biso   1.000  C
  C153     1.0000 0.78890  0.83230  0.31590  Biso   1.000  C
  C154     1.0000 0.71480  0.82550  0.31710  Biso   1.000  C
  C155     1.0000 0.67620  0.86420  0.28150  Biso   1.000  C
  C156     1.0000 0.54550  0.00230  0.40180  Biso   1.000  C
  C157     1.0000 0.54700  0.02070  0.45400  Biso   1.000  C
  C158     1.0000 0.56820  0.96890  0.48810  Biso   1.000  C
  C159     1.0000 0.58460  0.90550  0.47300  Biso   1.000  C
  C160     1.0000 0.58210  0.88820  0.41980  Biso   1.000  C
  C161     1.0000 0.56070  0.93610  0.38450  Biso   1.000  C
  C162     1.0000 0.45680  0.01730  0.27450  Biso   1.000  C
  C163     1.0000 0.33150  0.97770  0.32320  Biso   1.000  C
  C164     1.0000 0.25890  0.98080  0.32390  Biso   1.000  C
  C165     1.0000 0.21930  0.92940  0.34740  Biso   1.000  C
  C166     1.0000 0.25180  0.87510  0.37150  Biso   1.000  C
  C167     1.0000 0.32390  0.87040  0.37280  Biso   1.000  C
  C168     1.0000 0.36480  0.92290  0.34810  Biso   1.000  C
  H91      1.0000 0.30870  0.94260  0.47270  Biso   1.000  H
  H92      1.0000 0.37840  0.88020  0.52950  Biso   1.000  H
  H93      1.0000 0.44230  0.93410  0.59130  Biso   1.000  H
  H94      1.0000 0.45390  0.05860  0.59250  Biso   1.000  H
  H95      1.0000 0.38910  0.12360  0.53100  Biso   1.000  H
  H96      1.0000 0.17380  0.19310  0.40210  Biso   1.000  H
  H97      1.0000 0.09100  0.15340  0.33800  Biso   1.000  H
  H98      1.0000 0.12350  0.15020  0.25190  Biso   1.000  H
  H99      1.0000 0.23200  0.18010  0.22530  Biso   1.000  H
  H100     1.0000 0.31650  0.21650  0.28490  Biso   1.000  H
  H101     1.0000 0.17110  0.33440  0.40140  Biso   1.000  H
  H102     1.0000 0.08010  0.40070  0.36120  Biso   1.000  H
  H103     1.0000 0.08950  0.52460  0.36090  Biso   1.000  H
  H104     1.0000 0.18090  0.57990  0.40400  Biso   1.000  H
  H105     1.0000 0.27100  0.51470  0.44340  Biso   1.000  H
  H106     1.0000 0.80720  0.94120  0.22290  Biso   1.000  H
  H107     1.0000 0.86920  0.87290  0.28100  Biso   1.000  H
  H108     1.0000 0.81690  0.80750  0.33990  Biso   1.000  H
  H109     1.0000 0.69160  0.79580  0.34170  Biso   1.000  H
  H110     1.0000 0.62620  0.86140  0.28120  Biso   1.000  H
  H111     1.0000 0.53360  0.06660  0.46540  Biso   1.000  H
  H112     1.0000 0.57230  0.98080  0.52410  Biso   1.000  H
  H113     1.0000 0.59780  0.87110  0.49780  Biso   1.000  H
  H114     1.0000 0.59430  0.84210  0.40850  Biso   1.000  H
  H115     1.0000 0.55550  0.92370  0.34820  Biso   1.000  H
  H116     1.0000 0.23520  0.02030  0.30740  Biso   1.000  H
  H117     1.0000 0.16940  0.93240  0.34640  Biso   1.000  H
  H118     1.0000 0.22470  0.83810  0.38780  Biso   1.000  H
  H119     1.0000 0.34700  0.83150  0.39120  Biso   1.000  H
  H120     1.0000 0.41510  0.92010  0.34790  Biso   1.000  H
  Ag9      1.0000 0.39738  0.88474  0.11621  Biso   1.000  Ag
  Ag10     1.0000 0.36523  0.64741  0.13375  Biso   1.000  Ag
  S25      1.0000 0.29658  0.91530  0.05264  Biso   1.000  S
  S26      1.0000 0.32329  0.77078  0.11021  Biso   1.000  S
  S27      1.0000 0.30014  0.62554  0.04681  Biso   1.000  S
  S28      1.0000 0.66531  0.95356  0.19740  Biso   1.000  S
  S29      1.0000 0.52077  0.92679  0.13970  Biso   1.000  S
  S30      1.0000 0.37550  0.94987  0.20320  Biso   1.000  S
  C169     1.0000 0.26900  0.83530  0.02350  Biso   1.000  C
  C170     1.0000 0.28430  0.77100  0.04760  Biso   1.000  C
  C171     1.0000 0.26750  0.70710  0.02420  Biso   1.000  C
  C172     1.0000 0.34340  0.96040  0.00310  Biso   1.000  C
  C173     1.0000 0.33900  0.03360  0.00350  Biso   1.000  C
  C174     1.0000 0.37870  0.06980  0.96890  Biso   1.000  C
  C175     1.0000 0.41780  0.03820  0.93330  Biso   1.000  C
  C176     1.0000 0.42440  0.96490  0.93200  Biso   1.000  C
  C177     1.0000 0.38520  0.92630  0.96830  Biso   1.000  C
  C178     1.0000 0.25190  0.79560  0.15160  Biso   1.000  C
  C179     1.0000 0.18640  0.81140  0.13430  Biso   1.000  C
  C180     1.0000 0.13690  0.83330  0.17180  Biso   1.000  C
  C181     1.0000 0.15670  0.83530  0.22300  Biso   1.000  C
  C182     1.0000 0.22030  0.81740  0.23870  Biso   1.000  C
  C183     1.0000 0.27080  0.79660  0.20410  Biso   1.000  C
  C184     1.0000 0.22710  0.58150  0.07380  Biso   1.000  C
  C185     1.0000 0.17260  0.61500  0.09840  Biso   1.000  C
  C186     1.0000 0.11980  0.57520  0.12190  Biso   1.000  C
  C187     1.0000 0.12560  0.50210  0.12160  Biso   1.000  C
  C188     1.0000 0.17950  0.47030  0.09700  Biso   1.000  C
  C189     1.0000 0.23150  0.50860  0.07330  Biso   1.000  C
  C190     1.0000 0.58500  0.98130  0.22630  Biso   1.000  C
  C191     1.0000 0.52140  0.96550  0.20280  Biso   1.000  C
  C192     1.0000 0.71070  0.09390  0.25330  Biso   1.000  C
  C193     1.0000 0.78330  0.08930  0.25330  Biso   1.000  C
  C194     1.0000 0.81960  0.12800  0.21840  Biso   1.000  C
  C195     1.0000 0.78890  0.16770  0.18410  Biso   1.000  C
  C196     1.0000 0.71480  0.17450  0.18290  Biso   1.000  C
  C197     1.0000 0.67620  0.13580  0.21850  Biso   1.000  C
  C198     1.0000 0.54550  0.99770  0.09820  Biso   1.000  C
  C199     1.0000 0.54700  0.97930  0.04600  Biso   1.000  C
  C200     1.0000 0.56820  0.03110  0.01190  Biso   1.000  C
  C201     1.0000 0.58460  0.09450  0.02700  Biso   1.000  C
  C202     1.0000 0.58210  0.11180  0.08020  Biso   1.000  C
  C203     1.0000 0.56070  0.06390  0.11550  Biso   1.000  C
  C204     1.0000 0.45680  0.98270  0.22550  Biso   1.000  C
  C205     1.0000 0.33150  0.02230  0.17680  Biso   1.000  C
  C206     1.0000 0.25890  0.01920  0.17610  Biso   1.000  C
  C207     1.0000 0.21930  0.07060  0.15260  Biso   1.000  C
  C208     1.0000 0.25180  0.12490  0.12850  Biso   1.000  C
  C209     1.0000 0.32390  0.12960  0.12720  Biso   1.000  C
  C210     1.0000 0.36480  0.07710  0.15190  Biso   1.000  C
  H121     1.0000 0.30870  0.05740  0.02730  Biso   1.000  H
  H122     1.0000 0.37840  0.11980  0.97050  Biso   1.000  H
  H123     1.0000 0.44230  0.06590  0.90870  Biso   1.000  H
  H124     1.0000 0.45390  0.94140  0.90750  Biso   1.000  H
  H125     1.0000 0.38910  0.87640  0.96900  Biso   1.000  H
  H126     1.0000 0.17380  0.80690  0.09790  Biso   1.000  H
  H127     1.0000 0.09100  0.84660  0.16200  Biso   1.000  H
  H128     1.0000 0.12350  0.84980  0.24810  Biso   1.000  H
  H129     1.0000 0.23200  0.81990  0.27470  Biso   1.000  H
  H130     1.0000 0.31650  0.78350  0.21510  Biso   1.000  H
  H131     1.0000 0.17110  0.66560  0.09860  Biso   1.000  H
  H132     1.0000 0.08010  0.59930  0.13880  Biso   1.000  H
  H133     1.0000 0.08950  0.47540  0.13910  Biso   1.000  H
  H134     1.0000 0.18090  0.42010  0.09600  Biso   1.000  H
  H135     1.0000 0.27100  0.48530  0.05660  Biso   1.000  H
  H136     1.0000 0.80720  0.05880  0.27710  Biso   1.000  H
  H137     1.0000 0.86920  0.12710  0.21900  Biso   1.000  H
  H138     1.0000 0.81690  0.19250  0.16010  Biso   1.000  H
  H139     1.0000 0.69160  0.20420  0.15830  Biso   1.000  H
  H140     1.0000 0.62620  0.13860  0.21880  Biso   1.000  H
  H141     1.0000 0.53360  0.93340  0.03460  Biso   1.000  H
  H142     1.0000 0.57230  0.01920  0.97590  Biso   1.000  H
  H143     1.0000 0.59780  0.12890  0.00220  Biso   1.000  H
  H144     1.0000 0.59430  0.15790  0.09150  Biso   1.000  H
  H145     1.0000 0.55550  0.07630  0.15180  Biso   1.000  H
  H146     1.0000 0.23520  0.97970  0.19260  Biso   1.000  H
  H147     1.0000 0.16940  0.06760  0.15360  Biso   1.000  H
  H148     1.0000 0.22470  0.16190  0.11220  Biso   1.000  H
  H149     1.0000 0.34700  0.16850  0.10880  Biso   1.000  H
  H150     1.0000 0.41510  0.07990  0.15210  Biso   1.000  H
  Ag11     1.0000 0.89738  0.38474  0.61621  Biso   1.000  Ag
  Ag12     1.0000 0.86523  0.14741  0.63375  Biso   1.000  Ag
  S31      1.0000 0.79658  0.41530  0.55264  Biso   1.000  S
  S32      1.0000 0.82329  0.27078  0.61021  Biso   1.000  S
  S33      1.0000 0.80014  0.12554  0.54681  Biso   1.000  S
  S34      1.0000 0.16531  0.45356  0.69740  Biso   1.000  S
  S35      1.0000 0.02077  0.42679  0.63970  Biso   1.000  S
  S36      1.0000 0.87550  0.44987  0.70320  Biso   1.000  S
  C211     1.0000 0.76900  0.33530  0.52350  Biso   1.000  C
  C212     1.0000 0.78430  0.27100  0.54760  Biso   1.000  C
  C213     1.0000 0.76750  0.20710  0.52420  Biso   1.000  C
  C214     1.0000 0.84340  0.46040  0.50310  Biso   1.000  C
  C215     1.0000 0.83900  0.53360  0.50350  Biso   1.000  C
  C216     1.0000 0.87870  0.56980  0.46890  Biso   1.000  C
  C217     1.0000 0.91780  0.53820  0.43330  Biso   1.000  C
  C218     1.0000 0.92440  0.46490  0.43200  Biso   1.000  C
  C219     1.0000 0.88520  0.42630  0.46830  Biso   1.000  C
  C220     1.0000 0.75190  0.29560  0.65160  Biso   1.000  C
  C221     1.0000 0.68640  0.31140  0.63430  Biso   1.000  C
  C222     1.0000 0.63690  0.33330  0.67180  Biso   1.000  C
  C223     1.0000 0.65670  0.33530  0.72300  Biso   1.000  C
  C224     1.0000 0.72030  0.31740  0.73870  Biso   1.000  C
  C225     1.0000 0.77080  0.29660  0.70410  Biso   1.000  C
  C226     1.0000 0.72710  0.08150  0.57380  Biso   1.000  C
  C227     1.0000 0.67260  0.11500  0.59840  Biso   1.000  C
  C228     1.0000 0.61980  0.07520  0.62190  Biso   1.000  C
  C229     1.0000 0.62560  0.00210  0.62160  Biso   1.000  C
  C230     1.0000 0.67950  0.97030  0.59700  Biso   1.000  C
  C231     1.0000 0.73150  0.00860  0.57330  Biso   1.000  C
  C232     1.0000 0.08500  0.48130  0.72630  Biso   1.000  C
  C233     1.0000 0.02140  0.46550  0.70280  Biso   1.000  C
  C234     1.0000 0.21070  0.59390  0.75330  Biso   1.000  C
  C235     1.0000 0.28330  0.58930  0.75330  Biso   1.000  C
  C236     1.0000 0.31960  0.62800  0.71840  Biso   1.000  C
  C237     1.0000 0.28890  0.66770  0.68410  Biso   1.000  C
  C238     1.0000 0.21480  0.67450  0.68290  Biso   1.000  C
  C239     1.0000 0.17620  0.63580  0.71850  Biso   1.000  C
  C240     1.0000 0.04550  0.49770  0.59820  Biso   1.000  C
  C241     1.0000 0.04700  0.47930  0.54600  Biso   1.000  C
  C242     1.0000 0.06820  0.53110  0.51190  Biso   1.000  C
  C243     1.0000 0.08460  0.59450  0.52700  Biso   1.000  C
  C244     1.0000 0.08210  0.61180  0.58020  Biso   1.000  C
  C245     1.0000 0.06070  0.56390  0.61550  Biso   1.000  C
  C246     1.0000 0.95680  0.48270  0.72550  Biso   1.000  C
  C247     1.0000 0.83150  0.52230  0.67680  Biso   1.000  C
  C248     1.0000 0.75890  0.51920  0.67610  Biso   1.000  C
  C249     1.0000 0.71930  0.57060  0.65260  Biso   1.000  C
  C250     1.0000 0.75180  0.62490  0.62850  Biso   1.000  C
  C251     1.0000 0.82390  0.62960  0.62720  Biso   1.000  C
  C252     1.0000 0.86480  0.57710  0.65190  Biso   1.000  C
  H151     1.0000 0.80870  0.55740  0.52730  Biso   1.000  H
  H152     1.0000 0.87840  0.61980  0.47050  Biso   1.000  H
  H153     1.0000 0.94230  0.56590  0.40870  Biso   1.000  H
  H154     1.0000 0.95390  0.44140  0.40750  Biso   1.000  H
  H155     1.0000 0.88910  0.37640  0.46900  Biso   1.000  H
  H156     1.0000 0.67380  0.30690  0.59790  Biso   1.000  H
  H157     1.0000 0.59100  0.34660  0.66200  Biso   1.000  H
  H158     1.0000 0.62350  0.34980  0.74810  Biso   1.000  H
  H159     1.0000 0.73200  0.31990  0.77470  Biso   1.000  H
  H160     1.0000 0.81650  0.28350  0.71510  Biso   1.000  H
  H161     1.0000 0.67110  0.16560  0.59860  Biso   1.000  H
  H162     1.0000 0.58010  0.09930  0.63880  Biso   1.000  H
  H163     1.0000 0.58950  0.97540  0.63910  Biso   1.000  H
  H164     1.0000 0.68090  0.92010  0.59600  Biso   1.000  H
  H165     1.0000 0.77100  0.98530  0.55660  Biso   1.000  H
  H166     1.0000 0.30720  0.55880  0.77710  Biso   1.000  H
  H167     1.0000 0.36920  0.62710  0.71900  Biso   1.000  H
  H168     1.0000 0.31690  0.69250  0.66010  Biso   1.000  H
  H169     1.0000 0.19160  0.70420  0.65830  Biso   1.000  H
  H170     1.0000 0.12620  0.63860  0.71880  Biso   1.000  H
  H171     1.0000 0.03360  0.43340  0.53460  Biso   1.000  H
  H172     1.0000 0.07230  0.51920  0.47590  Biso   1.000  H
  H173     1.0000 0.09780  0.62890  0.50220  Biso   1.000  H
  H174     1.0000 0.09430  0.65790  0.59150  Biso   1.000  H
  H175     1.0000 0.05550  0.57630  0.65180  Biso   1.000  H
  H176     1.0000 0.73520  0.47970  0.69260  Biso   1.000  H
  H177     1.0000 0.66940  0.56760  0.65360  Biso   1.000  H
  H178     1.0000 0.72470  0.66190  0.61220  Biso   1.000  H
  H179     1.0000 0.84700  0.66850  0.60880  Biso   1.000  H
  H180     1.0000 0.91510  0.57990  0.65210  Biso   1.000  H
  Ag13     1.0000 0.10262  0.11526  0.61621  Biso   1.000  Ag
  Ag14     1.0000 0.13477  0.35259  0.63375  Biso   1.000  Ag
  S37      1.0000 0.20342  0.08470  0.55264  Biso   1.000  S
  S38      1.0000 0.17671  0.22922  0.61021  Biso   1.000  S
  S39      1.0000 0.19986  0.37446  0.54681  Biso   1.000  S
  S40      1.0000 0.83469  0.04644  0.69740  Biso   1.000  S
  S41      1.0000 0.97923  0.07321  0.63970  Biso   1.000  S
  S42      1.0000 0.12450  0.05013  0.70320  Biso   1.000  S
  C253     1.0000 0.23100  0.16470  0.52350  Biso   1.000  C
  C254     1.0000 0.21570  0.22900  0.54760  Biso   1.000  C
  C255     1.0000 0.23250  0.29290  0.52420  Biso   1.000  C
  C256     1.0000 0.15660  0.03960  0.50310  Biso   1.000  C
  C257     1.0000 0.16100  0.96640  0.50350  Biso   1.000  C
  C258     1.0000 0.12130  0.93020  0.46890  Biso   1.000  C
  C259     1.0000 0.08220  0.96180  0.43330  Biso   1.000  C
  C260     1.0000 0.07560  0.03510  0.43200  Biso   1.000  C
  C261     1.0000 0.11480  0.07370  0.46830  Biso   1.000  C
  C262     1.0000 0.24810  0.20440  0.65160  Biso   1.000  C
  C263     1.0000 0.31360  0.18860  0.63430  Biso   1.000  C
  C264     1.0000 0.36310  0.16670  0.67180  Biso   1.000  C
  C265     1.0000 0.34330  0.16470  0.72300  Biso   1.000  C
  C266     1.0000 0.27970  0.18260  0.73870  Biso   1.000  C
  C267     1.0000 0.22920  0.20340  0.70410  Biso   1.000  C
  C268     1.0000 0.27290  0.41850  0.57380  Biso   1.000  C
  C269     1.0000 0.32740  0.38500  0.59840  Biso   1.000  C
  C270     1.0000 0.38020  0.42480  0.62190  Biso   1.000  C
  C271     1.0000 0.37440  0.49790  0.62160  Biso   1.000  C
  C272     1.0000 0.32050  0.52970  0.59700  Biso   1.000  C
  C273     1.0000 0.26850  0.49140  0.57330  Biso   1.000  C
  C274     1.0000 0.91500  0.01870  0.72630  Biso   1.000  C
  C275     1.0000 0.97860  0.03450  0.70280  Biso   1.000  C
  C276     1.0000 0.78930  0.90610  0.75330  Biso   1.000  C
  C277     1.0000 0.71670  0.91070  0.75330  Biso   1.000  C
  C278     1.0000 0.68040  0.87200  0.71840  Biso   1.000  C
  C279     1.0000 0.71110  0.83230  0.68410  Biso   1.000  C
  C280     1.0000 0.78520  0.82550  0.68290  Biso   1.000  C
  C281     1.0000 0.82380  0.86420  0.71850  Biso   1.000  C
  C282     1.0000 0.95450  0.00230  0.59820  Biso   1.000  C
  C283     1.0000 0.95300  0.02070  0.54600  Biso   1.000  C
  C284     1.0000 0.93180  0.96890  0.51190  Biso   1.000  C
  C285     1.0000 0.91540  0.90550  0.52700  Biso   1.000  C
  C286     1.0000 0.91790  0.88820  0.58020  Biso   1.000  C
  C287     1.0000 0.93930  0.93610  0.61550  Biso   1.000  C
  C288     1.0000 0.04320  0.01730  0.72550  Biso   1.000  C
  C289     1.0000 0.16850  0.97770  0.67680  Biso   1.000  C
  C290     1.0000 0.24110  0.98080  0.67610  Biso   1.000  C
  C291     1.0000 0.28070  0.92940  0.65260  Biso   1.000  C
  C292     1.0000 0.24820  0.87510  0.62850  Biso   1.000  C
  C293     1.0000 0.17610  0.87040  0.62720  Biso   1.000  C
  C294     1.0000 0.13520  0.92290  0.65190  Biso   1.000  C
  H181     1.0000 0.19130  0.94260  0.52730  Biso   1.000  H
  H182     1.0000 0.12160  0.88020  0.47050  Biso   1.000  H
  H183     1.0000 0.05770  0.93410  0.40870  Biso   1.000  H
  H184     1.0000 0.04610  0.05860  0.40750  Biso   1.000  H
  H185     1.0000 0.11090  0.12360  0.46900  Biso   1.000  H
  H186     1.0000 0.32620  0.19310  0.59790  Biso   1.000  H
  H187     1.0000 0.40900  0.15340  0.66200  Biso   1.000  H
  H188     1.0000 0.37650  0.15020  0.74810  Biso   1.000  H
  H189     1.0000 0.26800  0.18010  0.77470  Biso   1.000  H
  H190     1.0000 0.18350  0.21650  0.71510  Biso   1.000  H
  H191     1.0000 0.32890  0.33440  0.59860  Biso   1.000  H
  H192     1.0000 0.41990  0.40070  0.63880  Biso   1.000  H
  H193     1.0000 0.41050  0.52460  0.63910  Biso   1.000  H
  H194     1.0000 0.31910  0.57990  0.59600  Biso   1.000  H
  H195     1.0000 0.22900  0.51470  0.55660  Biso   1.000  H
  H196     1.0000 0.69280  0.94120  0.77710  Biso   1.000  H
  H197     1.0000 0.63080  0.87290  0.71900  Biso   1.000  H
  H198     1.0000 0.68310  0.80750  0.66010  Biso   1.000  H
  H199     1.0000 0.80840  0.79580  0.65830  Biso   1.000  H
  H200     1.0000 0.87380  0.86140  0.71880  Biso   1.000  H
  H201     1.0000 0.96640  0.06660  0.53460  Biso   1.000  H
  H202     1.0000 0.92770  0.98080  0.47590  Biso   1.000  H
  H203     1.0000 0.90220  0.87110  0.50220  Biso   1.000  H
  H204     1.0000 0.90570  0.84210  0.59150  Biso   1.000  H
  H205     1.0000 0.94450  0.92370  0.65180  Biso   1.000  H
  H206     1.0000 0.26480  0.02030  0.69260  Biso   1.000  H
  H207     1.0000 0.33060  0.93240  0.65360  Biso   1.000  H
  H208     1.0000 0.27530  0.83810  0.61220  Biso   1.000  H
  H209     1.0000 0.15300  0.83150  0.60880  Biso   1.000  H
  H210     1.0000 0.08490  0.92010  0.65210  Biso   1.000  H
  Ag15     1.0000 0.60262  0.61526  0.11621  Biso   1.000  Ag
  Ag16     1.0000 0.63477  0.85259  0.13375  Biso   1.000  Ag
  S43      1.0000 0.70342  0.58470  0.05264  Biso   1.000  S
  S44      1.0000 0.67671  0.72922  0.11021  Biso   1.000  S
  S45      1.0000 0.69986  0.87446  0.04681  Biso   1.000  S
  S46      1.0000 0.33469  0.54644  0.19740  Biso   1.000  S
  S47      1.0000 0.47923  0.57321  0.13970  Biso   1.000  S
  S48      1.0000 0.62450  0.55013  0.20320  Biso   1.000  S
  C295     1.0000 0.73100  0.66470  0.02350  Biso   1.000  C
  C296     1.0000 0.71570  0.72900  0.04760  Biso   1.000  C
  C297     1.0000 0.73250  0.79290  0.02420  Biso   1.000  C
  C298     1.0000 0.65660  0.53960  0.00310  Biso   1.000  C
  C299     1.0000 0.66100  0.46640  0.00350  Biso   1.000  C
  C300     1.0000 0.62130  0.43020  0.96890  Biso   1.000  C
  C301     1.0000 0.58220  0.46180  0.93330  Biso   1.000  C
  C302     1.0000 0.57560  0.53510  0.93200  Biso   1.000  C
  C303     1.0000 0.61480  0.57370  0.96830  Biso   1.000  C
  C304     1.0000 0.74810  0.70440  0.15160  Biso   1.000  C
  C305     1.0000 0.81360  0.68860  0.13430  Biso   1.000  C
  C306     1.0000 0.86310  0.66670  0.17180  Biso   1.000  C
  C307     1.0000 0.84330  0.66470  0.22300  Biso   1.000  C
  C308     1.0000 0.77970  0.68260  0.23870  Biso   1.000  C
  C309     1.0000 0.72920  0.70340  0.20410  Biso   1.000  C
  C310     1.0000 0.77290  0.91850  0.07380  Biso   1.000  C
  C311     1.0000 0.82740  0.88500  0.09840  Biso   1.000  C
  C312     1.0000 0.88020  0.92480  0.12190  Biso   1.000  C
  C313     1.0000 0.87440  0.99790  0.12160  Biso   1.000  C
  C314     1.0000 0.82050  0.02970  0.09700  Biso   1.000  C
  C315     1.0000 0.76850  0.99140  0.07330  Biso   1.000  C
  C316     1.0000 0.41500  0.51870  0.22630  Biso   1.000  C
  C317     1.0000 0.47860  0.53450  0.20280  Biso   1.000  C
  C318     1.0000 0.28930  0.40610  0.25330  Biso   1.000  C
  C319     1.0000 0.21670  0.41070  0.25330  Biso   1.000  C
  C320     1.0000 0.18040  0.37200  0.21840  Biso   1.000  C
  C321     1.0000 0.21110  0.33230  0.18410  Biso   1.000  C
  C322     1.0000 0.28520  0.32550  0.18290  Biso   1.000  C
  C323     1.0000 0.32380  0.36420  0.21850  Biso   1.000  C
  C324     1.0000 0.45450  0.50230  0.09820  Biso   1.000  C
  C325     1.0000 0.45300  0.52070  0.04600  Biso   1.000  C
  C326     1.0000 0.43180  0.46890  0.01190  Biso   1.000  C
  C327     1.0000 0.41540  0.40550  0.02700  Biso   1.000  C
  C328     1.0000 0.41790  0.38820  0.08020  Biso   1.000  C
  C329     1.0000 0.43930  0.43610  0.11550  Biso   1.000  C
  C330     1.0000 0.54320  0.51730  0.22550  Biso   1.000  C
  C331     1.0000 0.66850  0.47770  0.17680  Biso   1.000  C
  C332     1.0000 0.74110  0.48080  0.17610  Biso   1.000  C
  C333     1.0000 0.78070  0.42940  0.15260  Biso   1.000  C
  C334     1.0000 0.74820  0.37510  0.12850  Biso   1.000  C
  C335     1.0000 0.67610  0.37040  0.12720  Biso   1.000  C
  C336     1.0000 0.63520  0.42290  0.15190  Biso   1.000  C
  H211     1.0000 0.69130  0.44260  0.02730  Biso   1.000  H
  H212     1.0000 0.62160  0.38020  0.97050  Biso   1.000  H
  H213     1.0000 0.55770  0.43410  0.90870  Biso   1.000  H
  H214     1.0000 0.54610  0.55860  0.90750  Biso   1.000  H
  H215     1.0000 0.61090  0.62360  0.96900  Biso   1.000  H
  H216     1.0000 0.82620  0.69310  0.09790  Biso   1.000  H
  H217     1.0000 0.90900  0.65340  0.16200  Biso   1.000  H
  H218     1.0000 0.87650  0.65020  0.24810  Biso   1.000  H
  H219     1.0000 0.76800  0.68010  0.27470  Biso   1.000  H
  H220     1.0000 0.68350  0.71650  0.21510  Biso   1.000  H
  H221     1.0000 0.82890  0.83440  0.09860  Biso   1.000  H
  H222     1.0000 0.91990  0.90070  0.13880  Biso   1.000  H
  H223     1.0000 0.91050  0.02460  0.13910  Biso   1.000  H
  H224     1.0000 0.81910  0.07990  0.09600  Biso   1.000  H
  H225     1.0000 0.72900  0.01470  0.05660  Biso   1.000  H
  H226     1.0000 0.19280  0.44120  0.27710  Biso   1.000  H
  H227     1.0000 0.13080  0.37290  0.21900  Biso   1.000  H
  H228     1.0000 0.18310  0.30750  0.16010  Biso   1.000  H
  H229     1.0000 0.30840  0.29580  0.15830  Biso   1.000  H
  H230     1.0000 0.37380  0.36140  0.21880  Biso   1.000  H
  H231     1.0000 0.46640  0.56660  0.03460  Biso   1.000  H
  H232     1.0000 0.42770  0.48080  0.97590  Biso   1.000  H
  H233     1.0000 0.40220  0.37110  0.00220  Biso   1.000  H
  H234     1.0000 0.40570  0.34210  0.09150  Biso   1.000  H
  H235     1.0000 0.44450  0.42370  0.15180  Biso   1.000  H
  H236     1.0000 0.76480  0.52030  0.19260  Biso   1.000  H
  H237     1.0000 0.83060  0.43240  0.15360  Biso   1.000  H
  H238     1.0000 0.77530  0.33810  0.11220  Biso   1.000  H
  H239     1.0000 0.65300  0.33150  0.10880  Biso   1.000  H
  H240     1.0000 0.58490  0.42010  0.15210  Biso   1.000  H
