data_image0
_cell_length_a       10.626
_cell_length_b       10.626
_cell_length_c       25.718
_cell_angle_alpha    90
_cell_angle_beta     90
_cell_angle_gamma    90

_symmetry_space_group_name_H-M    "P 1"
_symmetry_int_tables_number       1

loop_
  _symmetry_equiv_pos_as_xyz
  'x, y, z'

loop_
  _atom_site_label
  _atom_site_occupancy
  _atom_site_fract_x
  _atom_site_fract_y
  _atom_site_fract_z
  _atom_site_thermal_displace_type
  _atom_site_B_iso_or_equiv
  _atom_site_type_symbol
  N1       1.0000 0.03950  0.08830  0.16680  Biso   1.000  N
  C1       1.0000 0.13300  0.01130  0.15410  Biso   1.000  C
  C2       1.0000 0.17370  0.91170  0.18110  Biso   1.000  C
  C3       1.0000 0.11800  0.88710  0.22800  Biso   1.000  C
  C4       1.0000 0.02200  0.96620  0.24540  Biso   1.000  C
  C5       1.0000 0.98280  0.06180  0.21350  Biso   1.000  C
  C6       1.0000 0.88220  0.14370  0.22900  Biso   1.000  C
  C7       1.0000 0.79760  0.21040  0.24240  Biso   1.000  C
  H1       1.0000 0.17550  0.02870  0.12250  Biso   1.000  H
  H2       1.0000 0.23920  0.85960  0.16810  Biso   1.000  H
  H3       1.0000 0.14460  0.81750  0.24840  Biso   1.000  H
  H4       1.0000 0.98460  0.95410  0.27860  Biso   1.000  H
  N2       1.0000 0.53950  0.58830  0.66680  Biso   1.000  N
  C8       1.0000 0.63300  0.51130  0.65410  Biso   1.000  C
  C9       1.0000 0.67370  0.41170  0.68110  Biso   1.000  C
  C10      1.0000 0.61800  0.38710  0.72800  Biso   1.000  C
  C11      1.0000 0.52200  0.46620  0.74540  Biso   1.000  C
  C12      1.0000 0.48280  0.56180  0.71350  Biso   1.000  C
  C13      1.0000 0.38220  0.64370  0.72900  Biso   1.000  C
  C14      1.0000 0.29760  0.71040  0.74240  Biso   1.000  C
  H5       1.0000 0.67550  0.52870  0.62250  Biso   1.000  H
  H6       1.0000 0.73920  0.35960  0.66810  Biso   1.000  H
  H7       1.0000 0.64460  0.31750  0.74840  Biso   1.000  H
  H8       1.0000 0.48460  0.45410  0.77860  Biso   1.000  H
  N3       1.0000 0.46050  0.91170  0.66680  Biso   1.000  N
  C15      1.0000 0.36700  0.98870  0.65410  Biso   1.000  C
  C16      1.0000 0.32630  0.08830  0.68110  Biso   1.000  C
  C17      1.0000 0.38200  0.11290  0.72800  Biso   1.000  C
  C18      1.0000 0.47800  0.03380  0.74540  Biso   1.000  C
  C19      1.0000 0.51720  0.93820  0.71350  Biso   1.000  C
  C20      1.0000 0.61780  0.85630  0.72900  Biso   1.000  C
  C21      1.0000 0.70240  0.78960  0.74240  Biso   1.000  C
  H9       1.0000 0.32450  0.97130  0.62250  Biso   1.000  H
  H10      1.0000 0.26080  0.14040  0.66810  Biso   1.000  H
  H11      1.0000 0.35540  0.18250  0.74840  Biso   1.000  H
  H12      1.0000 0.51540  0.04590  0.77860  Biso   1.000  H
  N4       1.0000 0.96050  0.41170  0.16680  Biso   1.000  N
  C22      1.0000 0.86700  0.48870  0.15410  Biso   1.000  C
  C23      1.0000 0.82630  0.58830  0.18110  Biso   1.000  C
  C24      1.0000 0.88200  0.61290  0.22800  Biso   1.000  C
  C25      1.0000 0.97800  0.53380  0.24540  Biso   1.000  C
  C26      1.0000 0.01720  0.43820  0.21350  Biso   1.000  C
  C27      1.0000 0.11780  0.35630  0.22900  Biso   1.000  C
  C28      1.0000 0.20240  0.28960  0.24240  Biso   1.000  C
  H13      1.0000 0.82450  0.47130  0.12250  Biso   1.000  H
  H14      1.0000 0.76080  0.64040  0.16810  Biso   1.000  H
  H15      1.0000 0.85540  0.68250  0.24840  Biso   1.000  H
  H16      1.0000 0.01540  0.54590  0.27860  Biso   1.000  H
  N5       1.0000 0.66170  0.28950  0.41680  Biso   1.000  N
  C29      1.0000 0.73870  0.38300  0.40410  Biso   1.000  C
  C30      1.0000 0.83830  0.42370  0.43110  Biso   1.000  C
  C31      1.0000 0.86290  0.36800  0.47800  Biso   1.000  C
  C32      1.0000 0.78380  0.27200  0.49540  Biso   1.000  C
  C33      1.0000 0.68820  0.23280  0.46350  Biso   1.000  C
  C34      1.0000 0.60630  0.13220  0.47900  Biso   1.000  C
  C35      1.0000 0.53960  0.04760  0.49240  Biso   1.000  C
  H17      1.0000 0.72130  0.42550  0.37250  Biso   1.000  H
  H18      1.0000 0.89040  0.48920  0.41810  Biso   1.000  H
  H19      1.0000 0.93250  0.39460  0.49840  Biso   1.000  H
  H20      1.0000 0.79590  0.23460  0.52860  Biso   1.000  H
  N6       1.0000 0.16170  0.78950  0.91680  Biso   1.000  N
  C36      1.0000 0.23870  0.88300  0.90410  Biso   1.000  C
  C37      1.0000 0.33830  0.92370  0.93110  Biso   1.000  C
  C38      1.0000 0.36290  0.86800  0.97800  Biso   1.000  C
  C39      1.0000 0.28380  0.77200  0.99540  Biso   1.000  C
  C40      1.0000 0.18820  0.73280  0.96350  Biso   1.000  C
  C41      1.0000 0.10630  0.63220  0.97900  Biso   1.000  C
  C42      1.0000 0.03960  0.54760  0.99240  Biso   1.000  C
  H21      1.0000 0.22130  0.92550  0.87250  Biso   1.000  H
  H22      1.0000 0.39040  0.98920  0.91810  Biso   1.000  H
  H23      1.0000 0.43250  0.89460  0.99840  Biso   1.000  H
  H24      1.0000 0.29590  0.73460  0.02860  Biso   1.000  H
  N7       1.0000 0.83830  0.71050  0.91680  Biso   1.000  N
  C43      1.0000 0.76130  0.61700  0.90410  Biso   1.000  C
  C44      1.0000 0.66170  0.57630  0.93110  Biso   1.000  C
  C45      1.0000 0.63710  0.63200  0.97800  Biso   1.000  C
  C46      1.0000 0.71620  0.72800  0.99540  Biso   1.000  C
  C47      1.0000 0.81180  0.76720  0.96350  Biso   1.000  C
  C48      1.0000 0.89370  0.86780  0.97900  Biso   1.000  C
  C49      1.0000 0.96040  0.95240  0.99240  Biso   1.000  C
  H25      1.0000 0.77870  0.57450  0.87250  Biso   1.000  H
  H26      1.0000 0.60960  0.51080  0.91810  Biso   1.000  H
  H27      1.0000 0.56750  0.60540  0.99840  Biso   1.000  H
  H28      1.0000 0.70410  0.76540  0.02860  Biso   1.000  H
  N8       1.0000 0.33830  0.21050  0.41680  Biso   1.000  N
  C50      1.0000 0.26130  0.11700  0.40410  Biso   1.000  C
  C51      1.0000 0.16170  0.07630  0.43110  Biso   1.000  C
  C52      1.0000 0.13710  0.13200  0.47800  Biso   1.000  C
  C53      1.0000 0.21620  0.22800  0.49540  Biso   1.000  C
  C54      1.0000 0.31180  0.26720  0.46350  Biso   1.000  C
  C55      1.0000 0.39370  0.36780  0.47900  Biso   1.000  C
  C56      1.0000 0.46040  0.45240  0.49240  Biso   1.000  C
  H29      1.0000 0.27870  0.07450  0.37250  Biso   1.000  H
  H30      1.0000 0.10960  0.01080  0.41810  Biso   1.000  H
  H31      1.0000 0.06750  0.10540  0.49840  Biso   1.000  H
  H32      1.0000 0.20410  0.26540  0.52860  Biso   1.000  H
  N9       1.0000 0.96050  0.91170  0.83320  Biso   1.000  N
  C57      1.0000 0.86700  0.98870  0.84590  Biso   1.000  C
  C58      1.0000 0.82630  0.08830  0.81890  Biso   1.000  C
  C59      1.0000 0.88200  0.11290  0.77200  Biso   1.000  C
  C60      1.0000 0.97800  0.03380  0.75460  Biso   1.000  C
  C61      1.0000 0.01720  0.93820  0.78650  Biso   1.000  C
  C62      1.0000 0.11780  0.85630  0.77100  Biso   1.000  C
  C63      1.0000 0.20240  0.78960  0.75760  Biso   1.000  C
  H33      1.0000 0.82450  0.97130  0.87750  Biso   1.000  H
  H34      1.0000 0.76080  0.14040  0.83190  Biso   1.000  H
  H35      1.0000 0.85540  0.18250  0.75160  Biso   1.000  H
  H36      1.0000 0.01540  0.04590  0.72140  Biso   1.000  H
  N10      1.0000 0.46050  0.41170  0.33320  Biso   1.000  N
  C64      1.0000 0.36700  0.48870  0.34590  Biso   1.000  C
  C65      1.0000 0.32630  0.58830  0.31890  Biso   1.000  C
  C66      1.0000 0.38200  0.61290  0.27200  Biso   1.000  C
  C67      1.0000 0.47800  0.53380  0.25460  Biso   1.000  C
  C68      1.0000 0.51720  0.43820  0.28650  Biso   1.000  C
  C69      1.0000 0.61780  0.35630  0.27100  Biso   1.000  C
  C70      1.0000 0.70240  0.28960  0.25760  Biso   1.000  C
  H37      1.0000 0.32450  0.47130  0.37750  Biso   1.000  H
  H38      1.0000 0.26080  0.64040  0.33190  Biso   1.000  H
  H39      1.0000 0.35540  0.68250  0.25160  Biso   1.000  H
  H40      1.0000 0.51540  0.54590  0.22140  Biso   1.000  H
  N11      1.0000 0.53950  0.08830  0.33320  Biso   1.000  N
  C71      1.0000 0.63300  0.01130  0.34590  Biso   1.000  C
  C72      1.0000 0.67370  0.91170  0.31890  Biso   1.000  C
  C73      1.0000 0.61800  0.88710  0.27200  Biso   1.000  C
  C74      1.0000 0.52200  0.96620  0.25460  Biso   1.000  C
  C75      1.0000 0.48280  0.06180  0.28650  Biso   1.000  C
  C76      1.0000 0.38220  0.14370  0.27100  Biso   1.000  C
  C77      1.0000 0.29760  0.21040  0.25760  Biso   1.000  C
  H41      1.0000 0.67550  0.02870  0.37750  Biso   1.000  H
  H42      1.0000 0.73920  0.85960  0.33190  Biso   1.000  H
  H43      1.0000 0.64460  0.81750  0.25160  Biso   1.000  H
  H44      1.0000 0.48460  0.95410  0.22140  Biso   1.000  H
  N12      1.0000 0.03950  0.58830  0.83320  Biso   1.000  N
  C78      1.0000 0.13300  0.51130  0.84590  Biso   1.000  C
  C79      1.0000 0.17370  0.41170  0.81890  Biso   1.000  C
  C80      1.0000 0.11800  0.38710  0.77200  Biso   1.000  C
  C81      1.0000 0.02200  0.46620  0.75460  Biso   1.000  C
  C82      1.0000 0.98280  0.56180  0.78650  Biso   1.000  C
  C83      1.0000 0.88220  0.64370  0.77100  Biso   1.000  C
  C84      1.0000 0.79760  0.71040  0.75760  Biso   1.000  C
  H45      1.0000 0.17550  0.52870  0.87750  Biso   1.000  H
  H46      1.0000 0.23920  0.35960  0.83190  Biso   1.000  H
  H47      1.0000 0.14460  0.31750  0.75160  Biso   1.000  H
  H48      1.0000 0.98460  0.45410  0.72140  Biso   1.000  H
  N13      1.0000 0.33830  0.71050  0.58320  Biso   1.000  N
  C85      1.0000 0.26130  0.61700  0.59590  Biso   1.000  C
  C86      1.0000 0.16170  0.57630  0.56890  Biso   1.000  C
  C87      1.0000 0.13710  0.63200  0.52200  Biso   1.000  C
  C88      1.0000 0.21620  0.72800  0.50460  Biso   1.000  C
  C89      1.0000 0.31180  0.76720  0.53650  Biso   1.000  C
  C90      1.0000 0.39370  0.86780  0.52100  Biso   1.000  C
  C91      1.0000 0.46040  0.95240  0.50760  Biso   1.000  C
  H49      1.0000 0.27870  0.57450  0.62750  Biso   1.000  H
  H50      1.0000 0.10960  0.51080  0.58190  Biso   1.000  H
  H51      1.0000 0.06750  0.60540  0.50160  Biso   1.000  H
  H52      1.0000 0.20410  0.76540  0.47140  Biso   1.000  H
  N14      1.0000 0.83830  0.21050  0.08320  Biso   1.000  N
  C92      1.0000 0.76130  0.11700  0.09590  Biso   1.000  C
  C93      1.0000 0.66170  0.07630  0.06890  Biso   1.000  C
  C94      1.0000 0.63710  0.13200  0.02200  Biso   1.000  C
  C95      1.0000 0.71620  0.22800  0.00460  Biso   1.000  C
  C96      1.0000 0.81180  0.26720  0.03650  Biso   1.000  C
  C97      1.0000 0.89370  0.36780  0.02100  Biso   1.000  C
  C98      1.0000 0.96040  0.45240  0.00760  Biso   1.000  C
  H53      1.0000 0.77870  0.07450  0.12750  Biso   1.000  H
  H54      1.0000 0.60960  0.01080  0.08190  Biso   1.000  H
  H55      1.0000 0.56750  0.10540  0.00160  Biso   1.000  H
  H56      1.0000 0.70410  0.26540  0.97140  Biso   1.000  H
  N15      1.0000 0.16170  0.28950  0.08320  Biso   1.000  N
  C99      1.0000 0.23870  0.38300  0.09590  Biso   1.000  C
  C100     1.0000 0.33830  0.42370  0.06890  Biso   1.000  C
  C101     1.0000 0.36290  0.36800  0.02200  Biso   1.000  C
  C102     1.0000 0.28380  0.27200  0.00460  Biso   1.000  C
  C103     1.0000 0.18820  0.23280  0.03650  Biso   1.000  C
  C104     1.0000 0.10630  0.13220  0.02100  Biso   1.000  C
  C105     1.0000 0.03960  0.04760  0.00760  Biso   1.000  C
  H57      1.0000 0.22130  0.42550  0.12750  Biso   1.000  H
  H58      1.0000 0.39040  0.48920  0.08190  Biso   1.000  H
  H59      1.0000 0.43250  0.39460  0.00160  Biso   1.000  H
  H60      1.0000 0.29590  0.23460  0.97140  Biso   1.000  H
  N16      1.0000 0.66170  0.78950  0.58320  Biso   1.000  N
  C106     1.0000 0.73870  0.88300  0.59590  Biso   1.000  C
  C107     1.0000 0.83830  0.92370  0.56890  Biso   1.000  C
  C108     1.0000 0.86290  0.86800  0.52200  Biso   1.000  C
  C109     1.0000 0.78380  0.77200  0.50460  Biso   1.000  C
  C110     1.0000 0.68820  0.73280  0.53650  Biso   1.000  C
  C111     1.0000 0.60630  0.63220  0.52100  Biso   1.000  C
  C112     1.0000 0.53960  0.54760  0.50760  Biso   1.000  C
  H61      1.0000 0.72130  0.92550  0.62750  Biso   1.000  H
  H62      1.0000 0.89040  0.98920  0.58190  Biso   1.000  H
  H63      1.0000 0.93250  0.89460  0.50160  Biso   1.000  H
  H64      1.0000 0.79590  0.73460  0.47140  Biso   1.000  H
  Cu1      1.0000 0.50000  0.25000  0.37500  Biso   1.000  Cu
  Cu2      1.0000 0.00000  0.75000  0.87500  Biso   1.000  Cu
  Cu3      1.0000 0.50000  0.75000  0.62500  Biso   1.000  Cu
  Cu4      1.0000 0.00000  0.25000  0.12500  Biso   1.000  Cu
