data_image0
_cell_length_a       15.1318
_cell_length_b       15.1318
_cell_length_c       12.0523
_cell_angle_alpha    90
_cell_angle_beta     90
_cell_angle_gamma    90

_symmetry_space_group_name_H-M    "P 1"
_symmetry_int_tables_number       1

loop_
  _symmetry_equiv_pos_as_xyz
  'x, y, z'

loop_
  _atom_site_label
  _atom_site_occupancy
  _atom_site_fract_x
  _atom_site_fract_y
  _atom_site_fract_z
  _atom_site_thermal_displace_type
  _atom_site_B_iso_or_equiv
  _atom_site_type_symbol
  O1       1.0000 0.60105  0.28981  0.75814  Biso   1.000  O
  O2       1.0000 0.61865  0.37972  0.60910  Biso   1.000  O
  C1       1.0000 0.59304  0.36025  0.70179  Biso   1.000  C
  C2       1.0000 0.54000  0.43078  0.75990  Biso   1.000  C
  C3       1.0000 0.54135  0.42957  0.87919  Biso   1.000  C
  H1       1.0000 0.57318  0.38162  0.90735  Biso   1.000  H
  O3       1.0000 0.10105  0.78981  0.25814  Biso   1.000  O
  O4       1.0000 0.11865  0.87972  0.10910  Biso   1.000  O
  C4       1.0000 0.09304  0.86025  0.20179  Biso   1.000  C
  C5       1.0000 0.04000  0.93078  0.25990  Biso   1.000  C
  C6       1.0000 0.04135  0.92957  0.37919  Biso   1.000  C
  H2       1.0000 0.07318  0.88162  0.40735  Biso   1.000  H
  O5       1.0000 0.89895  0.21019  0.25814  Biso   1.000  O
  O6       1.0000 0.88135  0.12028  0.10910  Biso   1.000  O
  C7       1.0000 0.90696  0.13975  0.20179  Biso   1.000  C
  C8       1.0000 0.96000  0.06922  0.25990  Biso   1.000  C
  C9       1.0000 0.95865  0.07043  0.37919  Biso   1.000  C
  H3       1.0000 0.92682  0.11838  0.40735  Biso   1.000  H
  O7       1.0000 0.39895  0.71019  0.75814  Biso   1.000  O
  O8       1.0000 0.38135  0.62028  0.60910  Biso   1.000  O
  C10      1.0000 0.40696  0.63975  0.70179  Biso   1.000  C
  C11      1.0000 0.46000  0.56922  0.75990  Biso   1.000  C
  C12      1.0000 0.45865  0.57043  0.87919  Biso   1.000  C
  H4       1.0000 0.42682  0.61838  0.90735  Biso   1.000  H
  O9       1.0000 0.71019  0.10105  0.00814  Biso   1.000  O
  O10      1.0000 0.62028  0.11865  0.85910  Biso   1.000  O
  C13      1.0000 0.63975  0.09304  0.95179  Biso   1.000  C
  C14      1.0000 0.56922  0.04000  0.00990  Biso   1.000  C
  C15      1.0000 0.57043  0.04135  0.12919  Biso   1.000  C
  H5       1.0000 0.61838  0.07318  0.15735  Biso   1.000  H
  O11      1.0000 0.21019  0.60105  0.50814  Biso   1.000  O
  O12      1.0000 0.12028  0.61865  0.35910  Biso   1.000  O
  C16      1.0000 0.13975  0.59304  0.45179  Biso   1.000  C
  C17      1.0000 0.06922  0.54000  0.50990  Biso   1.000  C
  C18      1.0000 0.07043  0.54135  0.62919  Biso   1.000  C
  H6       1.0000 0.11838  0.57318  0.65735  Biso   1.000  H
  O13      1.0000 0.78981  0.39895  0.50814  Biso   1.000  O
  O14      1.0000 0.87972  0.38135  0.35910  Biso   1.000  O
  C19      1.0000 0.86025  0.40696  0.45179  Biso   1.000  C
  C20      1.0000 0.93078  0.46000  0.50990  Biso   1.000  C
  C21      1.0000 0.92957  0.45865  0.62919  Biso   1.000  C
  H7       1.0000 0.88162  0.42682  0.65735  Biso   1.000  H
  O15      1.0000 0.28981  0.89895  0.00814  Biso   1.000  O
  O16      1.0000 0.37972  0.88135  0.85910  Biso   1.000  O
  C22      1.0000 0.36025  0.90696  0.95179  Biso   1.000  C
  C23      1.0000 0.43078  0.96000  0.00990  Biso   1.000  C
  C24      1.0000 0.42957  0.95865  0.12919  Biso   1.000  C
  H8       1.0000 0.38162  0.92682  0.15735  Biso   1.000  H
  O17      1.0000 0.89895  0.28981  0.99186  Biso   1.000  O
  O18      1.0000 0.88135  0.37972  0.14090  Biso   1.000  O
  C25      1.0000 0.90696  0.36025  0.04821  Biso   1.000  C
  C26      1.0000 0.96000  0.43078  0.99010  Biso   1.000  C
  C27      1.0000 0.95865  0.42957  0.87081  Biso   1.000  C
  H9       1.0000 0.92682  0.38162  0.84265  Biso   1.000  H
  O19      1.0000 0.39895  0.78981  0.49186  Biso   1.000  O
  O20      1.0000 0.38135  0.87972  0.64090  Biso   1.000  O
  C28      1.0000 0.40696  0.86025  0.54821  Biso   1.000  C
  C29      1.0000 0.46000  0.93078  0.49010  Biso   1.000  C
  C30      1.0000 0.45865  0.92957  0.37081  Biso   1.000  C
  H10      1.0000 0.42682  0.88162  0.34265  Biso   1.000  H
  O21      1.0000 0.60105  0.21019  0.49186  Biso   1.000  O
  O22      1.0000 0.61865  0.12028  0.64090  Biso   1.000  O
  C31      1.0000 0.59304  0.13975  0.54821  Biso   1.000  C
  C32      1.0000 0.54000  0.06922  0.49010  Biso   1.000  C
  C33      1.0000 0.54135  0.07043  0.37081  Biso   1.000  C
  H11      1.0000 0.57318  0.11838  0.34265  Biso   1.000  H
  O23      1.0000 0.10105  0.71019  0.99186  Biso   1.000  O
  O24      1.0000 0.11865  0.62028  0.14090  Biso   1.000  O
  C34      1.0000 0.09304  0.63975  0.04821  Biso   1.000  C
  C35      1.0000 0.04000  0.56922  0.99010  Biso   1.000  C
  C36      1.0000 0.04135  0.57043  0.87081  Biso   1.000  C
  H12      1.0000 0.07318  0.61838  0.84265  Biso   1.000  H
  O25      1.0000 0.78981  0.10105  0.74186  Biso   1.000  O
  O26      1.0000 0.87972  0.11865  0.89090  Biso   1.000  O
  C37      1.0000 0.86025  0.09304  0.79821  Biso   1.000  C
  C38      1.0000 0.93078  0.04000  0.74010  Biso   1.000  C
  C39      1.0000 0.92957  0.04135  0.62081  Biso   1.000  C
  H13      1.0000 0.88162  0.07318  0.59265  Biso   1.000  H
  O27      1.0000 0.28981  0.60105  0.24186  Biso   1.000  O
  O28      1.0000 0.37972  0.61865  0.39090  Biso   1.000  O
  C40      1.0000 0.36025  0.59304  0.29821  Biso   1.000  C
  C41      1.0000 0.43078  0.54000  0.24010  Biso   1.000  C
  C42      1.0000 0.42957  0.54135  0.12081  Biso   1.000  C
  H14      1.0000 0.38162  0.57318  0.09265  Biso   1.000  H
  O29      1.0000 0.71019  0.39895  0.24186  Biso   1.000  O
  O30      1.0000 0.62028  0.38135  0.39090  Biso   1.000  O
  C43      1.0000 0.63975  0.40696  0.29821  Biso   1.000  C
  C44      1.0000 0.56922  0.46000  0.24010  Biso   1.000  C
  C45      1.0000 0.57043  0.45865  0.12081  Biso   1.000  C
  H15      1.0000 0.61838  0.42682  0.09265  Biso   1.000  H
  O31      1.0000 0.21019  0.89895  0.74186  Biso   1.000  O
  O32      1.0000 0.12028  0.88135  0.89090  Biso   1.000  O
  C46      1.0000 0.13975  0.90696  0.79821  Biso   1.000  C
  C47      1.0000 0.06922  0.96000  0.74010  Biso   1.000  C
  C48      1.0000 0.07043  0.95865  0.62081  Biso   1.000  C
  H16      1.0000 0.11838  0.92682  0.59265  Biso   1.000  H
  V1       1.0000 0.69057  0.30943  0.50000  Biso   1.000  V
  V2       1.0000 0.19057  0.80943  0.00000  Biso   1.000  V
  V3       1.0000 0.80943  0.19057  0.00000  Biso   1.000  V
  V4       1.0000 0.30943  0.69057  0.50000  Biso   1.000  V
  V5       1.0000 0.69057  0.19057  0.75000  Biso   1.000  V
  V6       1.0000 0.19057  0.69057  0.25000  Biso   1.000  V
  V7       1.0000 0.80943  0.30943  0.25000  Biso   1.000  V
  V8       1.0000 0.30943  0.80943  0.75000  Biso   1.000  V
  O33      1.0000 0.74830  0.25000  0.62500  Biso   1.000  O
  H17      1.0000 0.80600  0.25000  0.62500  Biso   1.000  H
  O34      1.0000 0.24830  0.75000  0.12500  Biso   1.000  O
  H18      1.0000 0.30600  0.75000  0.12500  Biso   1.000  H
  O35      1.0000 0.75170  0.25000  0.12500  Biso   1.000  O
  H19      1.0000 0.69400  0.25000  0.12500  Biso   1.000  H
  O36      1.0000 0.25170  0.75000  0.62500  Biso   1.000  O
  H20      1.0000 0.19400  0.75000  0.62500  Biso   1.000  H
  O37      1.0000 0.75000  0.24830  0.87500  Biso   1.000  O
  H21      1.0000 0.75000  0.30600  0.87500  Biso   1.000  H
  O38      1.0000 0.25000  0.74830  0.37500  Biso   1.000  O
  H22      1.0000 0.25000  0.80600  0.37500  Biso   1.000  H
  O39      1.0000 0.75000  0.25170  0.37500  Biso   1.000  O
  H23      1.0000 0.75000  0.19400  0.37500  Biso   1.000  H
  O40      1.0000 0.25000  0.75170  0.87500  Biso   1.000  O
  H24      1.0000 0.25000  0.69400  0.87500  Biso   1.000  H
  C49      1.0000 0.50000  0.50000  0.70384  Biso   1.000  C
  C50      1.0000 0.50000  0.50000  0.93588  Biso   1.000  C
  H25      1.0000 0.50000  0.50000  0.62670  Biso   1.000  H
  C51      1.0000 0.00000  0.00000  0.20384  Biso   1.000  C
  C52      1.0000 0.00000  0.00000  0.43588  Biso   1.000  C
  H26      1.0000 0.00000  0.00000  0.12670  Biso   1.000  H
  C53      1.0000 0.50000  0.00000  0.95384  Biso   1.000  C
  C54      1.0000 0.50000  0.00000  0.18588  Biso   1.000  C
  H27      1.0000 0.50000  0.00000  0.87670  Biso   1.000  H
  C55      1.0000 0.00000  0.50000  0.45384  Biso   1.000  C
  C56      1.0000 0.00000  0.50000  0.68588  Biso   1.000  C
  H28      1.0000 0.00000  0.50000  0.37670  Biso   1.000  H
  C57      1.0000 0.00000  0.50000  0.04616  Biso   1.000  C
  C58      1.0000 0.00000  0.50000  0.81412  Biso   1.000  C
  H29      1.0000 0.00000  0.50000  0.12330  Biso   1.000  H
  C59      1.0000 0.50000  0.00000  0.54616  Biso   1.000  C
  C60      1.0000 0.50000  0.00000  0.31412  Biso   1.000  C
  H30      1.0000 0.50000  0.00000  0.62330  Biso   1.000  H
  C61      1.0000 0.00000  0.00000  0.79616  Biso   1.000  C
  C62      1.0000 0.00000  0.00000  0.56412  Biso   1.000  C
  H31      1.0000 0.00000  0.00000  0.87330  Biso   1.000  H
  C63      1.0000 0.50000  0.50000  0.29616  Biso   1.000  C
  C64      1.0000 0.50000  0.50000  0.06412  Biso   1.000  C
  H32      1.0000 0.50000  0.50000  0.37330  Biso   1.000  H
