data_image0
_cell_length_a       15.1236
_cell_length_b       15.1236
_cell_length_c       12.042
_cell_angle_alpha    90
_cell_angle_beta     90
_cell_angle_gamma    90

_symmetry_space_group_name_H-M    "P 1"
_symmetry_int_tables_number       1

loop_
  _symmetry_equiv_pos_as_xyz
  'x, y, z'

loop_
  _atom_site_label
  _atom_site_occupancy
  _atom_site_fract_x
  _atom_site_fract_y
  _atom_site_fract_z
  _atom_site_thermal_displace_type
  _atom_site_B_iso_or_equiv
  _atom_site_type_symbol
  O1       1.0000 0.60151  0.28984  0.75676  Biso   1.000  O
  O2       1.0000 0.61740  0.37927  0.60963  Biso   1.000  O
  C1       1.0000 0.59003  0.36026  0.70240  Biso   1.000  C
  C2       1.0000 0.54299  0.43307  0.76040  Biso   1.000  C
  C3       1.0000 0.54626  0.43256  0.87937  Biso   1.000  C
  H1       1.0000 0.57318  0.38162  0.90735  Biso   1.000  H
  O3       1.0000 0.10151  0.78984  0.25676  Biso   1.000  O
  O4       1.0000 0.11740  0.87927  0.10963  Biso   1.000  O
  C4       1.0000 0.09003  0.86026  0.20240  Biso   1.000  C
  C5       1.0000 0.04299  0.93307  0.26040  Biso   1.000  C
  C6       1.0000 0.04626  0.93256  0.37937  Biso   1.000  C
  H2       1.0000 0.07318  0.88162  0.40735  Biso   1.000  H
  O5       1.0000 0.89849  0.21016  0.25676  Biso   1.000  O
  O6       1.0000 0.88260  0.12073  0.10963  Biso   1.000  O
  C7       1.0000 0.90997  0.13974  0.20240  Biso   1.000  C
  C8       1.0000 0.95701  0.06693  0.26040  Biso   1.000  C
  C9       1.0000 0.95374  0.06744  0.37937  Biso   1.000  C
  H3       1.0000 0.92682  0.11838  0.40735  Biso   1.000  H
  O7       1.0000 0.39849  0.71016  0.75676  Biso   1.000  O
  O8       1.0000 0.38260  0.62073  0.60963  Biso   1.000  O
  C10      1.0000 0.40997  0.63974  0.70240  Biso   1.000  C
  C11      1.0000 0.45701  0.56693  0.76040  Biso   1.000  C
  C12      1.0000 0.45374  0.56744  0.87937  Biso   1.000  C
  H4       1.0000 0.42682  0.61838  0.90735  Biso   1.000  H
  O9       1.0000 0.71016  0.10151  0.00676  Biso   1.000  O
  O10      1.0000 0.62073  0.11740  0.85963  Biso   1.000  O
  C13      1.0000 0.63974  0.09003  0.95240  Biso   1.000  C
  C14      1.0000 0.56693  0.04299  0.01040  Biso   1.000  C
  C15      1.0000 0.56744  0.04626  0.12937  Biso   1.000  C
  H5       1.0000 0.61838  0.07318  0.15735  Biso   1.000  H
  O11      1.0000 0.21016  0.60151  0.50676  Biso   1.000  O
  O12      1.0000 0.12073  0.61740  0.35963  Biso   1.000  O
  C16      1.0000 0.13974  0.59003  0.45240  Biso   1.000  C
  C17      1.0000 0.06693  0.54299  0.51040  Biso   1.000  C
  C18      1.0000 0.06744  0.54626  0.62937  Biso   1.000  C
  H6       1.0000 0.11838  0.57318  0.65735  Biso   1.000  H
  O13      1.0000 0.78984  0.39849  0.50676  Biso   1.000  O
  O14      1.0000 0.87927  0.38260  0.35963  Biso   1.000  O
  C19      1.0000 0.86026  0.40997  0.45240  Biso   1.000  C
  C20      1.0000 0.93307  0.45701  0.51040  Biso   1.000  C
  C21      1.0000 0.93256  0.45374  0.62937  Biso   1.000  C
  H7       1.0000 0.88162  0.42682  0.65735  Biso   1.000  H
  O15      1.0000 0.28984  0.89849  0.00676  Biso   1.000  O
  O16      1.0000 0.37927  0.88260  0.85963  Biso   1.000  O
  C22      1.0000 0.36026  0.90997  0.95240  Biso   1.000  C
  C23      1.0000 0.43307  0.95701  0.01040  Biso   1.000  C
  C24      1.0000 0.43256  0.95374  0.12937  Biso   1.000  C
  H8       1.0000 0.38162  0.92682  0.15735  Biso   1.000  H
  O17      1.0000 0.89849  0.28984  0.99324  Biso   1.000  O
  O18      1.0000 0.88260  0.37927  0.14037  Biso   1.000  O
  C25      1.0000 0.90997  0.36026  0.04760  Biso   1.000  C
  C26      1.0000 0.95701  0.43307  0.98960  Biso   1.000  C
  C27      1.0000 0.95374  0.43256  0.87063  Biso   1.000  C
  H9       1.0000 0.92682  0.38162  0.84265  Biso   1.000  H
  O19      1.0000 0.39849  0.78984  0.49324  Biso   1.000  O
  O20      1.0000 0.38260  0.87927  0.64037  Biso   1.000  O
  C28      1.0000 0.40997  0.86026  0.54760  Biso   1.000  C
  C29      1.0000 0.45701  0.93307  0.48960  Biso   1.000  C
  C30      1.0000 0.45374  0.93256  0.37063  Biso   1.000  C
  H10      1.0000 0.42682  0.88162  0.34265  Biso   1.000  H
  O21      1.0000 0.60151  0.21016  0.49324  Biso   1.000  O
  O22      1.0000 0.61740  0.12073  0.64037  Biso   1.000  O
  C31      1.0000 0.59003  0.13974  0.54760  Biso   1.000  C
  C32      1.0000 0.54299  0.06693  0.48960  Biso   1.000  C
  C33      1.0000 0.54626  0.06744  0.37063  Biso   1.000  C
  H11      1.0000 0.57318  0.11838  0.34265  Biso   1.000  H
  O23      1.0000 0.10151  0.71016  0.99324  Biso   1.000  O
  O24      1.0000 0.11740  0.62073  0.14037  Biso   1.000  O
  C34      1.0000 0.09003  0.63974  0.04760  Biso   1.000  C
  C35      1.0000 0.04299  0.56693  0.98960  Biso   1.000  C
  C36      1.0000 0.04626  0.56744  0.87063  Biso   1.000  C
  H12      1.0000 0.07318  0.61838  0.84265  Biso   1.000  H
  O25      1.0000 0.78984  0.10151  0.74324  Biso   1.000  O
  O26      1.0000 0.87927  0.11740  0.89037  Biso   1.000  O
  C37      1.0000 0.86026  0.09003  0.79760  Biso   1.000  C
  C38      1.0000 0.93307  0.04299  0.73960  Biso   1.000  C
  C39      1.0000 0.93256  0.04626  0.62063  Biso   1.000  C
  H13      1.0000 0.88162  0.07318  0.59265  Biso   1.000  H
  O27      1.0000 0.28984  0.60151  0.24324  Biso   1.000  O
  O28      1.0000 0.37927  0.61740  0.39037  Biso   1.000  O
  C40      1.0000 0.36026  0.59003  0.29760  Biso   1.000  C
  C41      1.0000 0.43307  0.54299  0.23960  Biso   1.000  C
  C42      1.0000 0.43256  0.54626  0.12063  Biso   1.000  C
  H14      1.0000 0.38162  0.57318  0.09265  Biso   1.000  H
  O29      1.0000 0.71016  0.39849  0.24324  Biso   1.000  O
  O30      1.0000 0.62073  0.38260  0.39037  Biso   1.000  O
  C43      1.0000 0.63974  0.40997  0.29760  Biso   1.000  C
  C44      1.0000 0.56693  0.45701  0.23960  Biso   1.000  C
  C45      1.0000 0.56744  0.45374  0.12063  Biso   1.000  C
  H15      1.0000 0.61838  0.42682  0.09265  Biso   1.000  H
  O31      1.0000 0.21016  0.89849  0.74324  Biso   1.000  O
  O32      1.0000 0.12073  0.88260  0.89037  Biso   1.000  O
  C46      1.0000 0.13974  0.90997  0.79760  Biso   1.000  C
  C47      1.0000 0.06693  0.95701  0.73960  Biso   1.000  C
  C48      1.0000 0.06744  0.95374  0.62063  Biso   1.000  C
  H16      1.0000 0.11838  0.92682  0.59265  Biso   1.000  H
  V1       1.0000 0.69080  0.30920  0.50000  Biso   1.000  V
  V2       1.0000 0.19080  0.80920  0.00000  Biso   1.000  V
  V3       1.0000 0.80920  0.19080  0.00000  Biso   1.000  V
  V4       1.0000 0.30920  0.69080  0.50000  Biso   1.000  V
  V5       1.0000 0.69080  0.19080  0.75000  Biso   1.000  V
  V6       1.0000 0.19080  0.69080  0.25000  Biso   1.000  V
  V7       1.0000 0.80920  0.30920  0.25000  Biso   1.000  V
  V8       1.0000 0.30920  0.80920  0.75000  Biso   1.000  V
  O33      1.0000 0.74625  0.25000  0.62500  Biso   1.000  O
  H17      1.0000 0.80600  0.25000  0.62500  Biso   1.000  H
  O34      1.0000 0.24625  0.75000  0.12500  Biso   1.000  O
  H18      1.0000 0.30600  0.75000  0.12500  Biso   1.000  H
  O35      1.0000 0.75375  0.25000  0.12500  Biso   1.000  O
  H19      1.0000 0.69400  0.25000  0.12500  Biso   1.000  H
  O36      1.0000 0.25375  0.75000  0.62500  Biso   1.000  O
  H20      1.0000 0.19400  0.75000  0.62500  Biso   1.000  H
  O37      1.0000 0.75000  0.24625  0.87500  Biso   1.000  O
  H21      1.0000 0.75000  0.30600  0.87500  Biso   1.000  H
  O38      1.0000 0.25000  0.74625  0.37500  Biso   1.000  O
  H22      1.0000 0.25000  0.80600  0.37500  Biso   1.000  H
  O39      1.0000 0.75000  0.25375  0.37500  Biso   1.000  O
  H23      1.0000 0.75000  0.19400  0.37500  Biso   1.000  H
  O40      1.0000 0.25000  0.75375  0.87500  Biso   1.000  O
  H24      1.0000 0.25000  0.69400  0.87500  Biso   1.000  H
  C49      1.0000 0.50000  0.50000  0.70380  Biso   1.000  C
  C50      1.0000 0.50000  0.50000  0.93619  Biso   1.000  C
  H25      1.0000 0.50000  0.50000  0.62660  Biso   1.000  H
  C51      1.0000 0.00000  0.00000  0.20380  Biso   1.000  C
  C52      1.0000 0.00000  0.00000  0.43619  Biso   1.000  C
  H26      1.0000 0.00000  0.00000  0.12660  Biso   1.000  H
  C53      1.0000 0.50000  0.00000  0.95380  Biso   1.000  C
  C54      1.0000 0.50000  0.00000  0.18619  Biso   1.000  C
  H27      1.0000 0.50000  0.00000  0.87660  Biso   1.000  H
  C55      1.0000 0.00000  0.50000  0.45380  Biso   1.000  C
  C56      1.0000 0.00000  0.50000  0.68619  Biso   1.000  C
  H28      1.0000 0.00000  0.50000  0.37660  Biso   1.000  H
  C57      1.0000 0.00000  0.50000  0.04620  Biso   1.000  C
  C58      1.0000 0.00000  0.50000  0.81381  Biso   1.000  C
  H29      1.0000 0.00000  0.50000  0.12340  Biso   1.000  H
  C59      1.0000 0.50000  0.00000  0.54620  Biso   1.000  C
  C60      1.0000 0.50000  0.00000  0.31381  Biso   1.000  C
  H30      1.0000 0.50000  0.00000  0.62340  Biso   1.000  H
  C61      1.0000 0.00000  0.00000  0.79620  Biso   1.000  C
  C62      1.0000 0.00000  0.00000  0.56381  Biso   1.000  C
  H31      1.0000 0.00000  0.00000  0.87340  Biso   1.000  H
  C63      1.0000 0.50000  0.50000  0.29620  Biso   1.000  C
  C64      1.0000 0.50000  0.50000  0.06381  Biso   1.000  C
  H32      1.0000 0.50000  0.50000  0.37340  Biso   1.000  H
