data_image0
_cell_length_a       15.1035
_cell_length_b       15.1035
_cell_length_c       12.0247
_cell_angle_alpha    90
_cell_angle_beta     90
_cell_angle_gamma    90

_symmetry_space_group_name_H-M    "P 1"
_symmetry_int_tables_number       1

loop_
  _symmetry_equiv_pos_as_xyz
  'x, y, z'

loop_
  _atom_site_label
  _atom_site_occupancy
  _atom_site_fract_x
  _atom_site_fract_y
  _atom_site_fract_z
  _atom_site_thermal_displace_type
  _atom_site_B_iso_or_equiv
  _atom_site_type_symbol
  O1       1.0000 0.60162  0.28970  0.75592  Biso   1.000  O
  O2       1.0000 0.61804  0.38048  0.60872  Biso   1.000  O
  C1       1.0000 0.59118  0.35994  0.70153  Biso   1.000  C
  C2       1.0000 0.54461  0.43393  0.76011  Biso   1.000  C
  C3       1.0000 0.54733  0.43311  0.87925  Biso   1.000  C
  H1       1.0000 0.57318  0.38162  0.90735  Biso   1.000  H
  O3       1.0000 0.10162  0.78970  0.25592  Biso   1.000  O
  O4       1.0000 0.11804  0.88048  0.10872  Biso   1.000  O
  C4       1.0000 0.09118  0.85994  0.20153  Biso   1.000  C
  C5       1.0000 0.04461  0.93393  0.26011  Biso   1.000  C
  C6       1.0000 0.04733  0.93311  0.37925  Biso   1.000  C
  H2       1.0000 0.07318  0.88162  0.40735  Biso   1.000  H
  O5       1.0000 0.89838  0.21030  0.25592  Biso   1.000  O
  O6       1.0000 0.88196  0.11952  0.10872  Biso   1.000  O
  C7       1.0000 0.90882  0.14006  0.20153  Biso   1.000  C
  C8       1.0000 0.95539  0.06607  0.26011  Biso   1.000  C
  C9       1.0000 0.95267  0.06689  0.37925  Biso   1.000  C
  H3       1.0000 0.92682  0.11838  0.40735  Biso   1.000  H
  O7       1.0000 0.39838  0.71030  0.75592  Biso   1.000  O
  O8       1.0000 0.38196  0.61952  0.60872  Biso   1.000  O
  C10      1.0000 0.40882  0.64006  0.70153  Biso   1.000  C
  C11      1.0000 0.45539  0.56607  0.76011  Biso   1.000  C
  C12      1.0000 0.45267  0.56689  0.87925  Biso   1.000  C
  H4       1.0000 0.42682  0.61838  0.90735  Biso   1.000  H
  O9       1.0000 0.71030  0.10162  0.00592  Biso   1.000  O
  O10      1.0000 0.61952  0.11804  0.85872  Biso   1.000  O
  C13      1.0000 0.64006  0.09118  0.95153  Biso   1.000  C
  C14      1.0000 0.56607  0.04461  0.01011  Biso   1.000  C
  C15      1.0000 0.56689  0.04733  0.12925  Biso   1.000  C
  H5       1.0000 0.61838  0.07318  0.15735  Biso   1.000  H
  O11      1.0000 0.21030  0.60162  0.50592  Biso   1.000  O
  O12      1.0000 0.11952  0.61804  0.35872  Biso   1.000  O
  C16      1.0000 0.14006  0.59118  0.45153  Biso   1.000  C
  C17      1.0000 0.06607  0.54461  0.51011  Biso   1.000  C
  C18      1.0000 0.06689  0.54733  0.62925  Biso   1.000  C
  H6       1.0000 0.11838  0.57318  0.65735  Biso   1.000  H
  O13      1.0000 0.78970  0.39838  0.50592  Biso   1.000  O
  O14      1.0000 0.88048  0.38196  0.35872  Biso   1.000  O
  C19      1.0000 0.85994  0.40882  0.45153  Biso   1.000  C
  C20      1.0000 0.93393  0.45539  0.51011  Biso   1.000  C
  C21      1.0000 0.93311  0.45267  0.62925  Biso   1.000  C
  H7       1.0000 0.88162  0.42682  0.65735  Biso   1.000  H
  O15      1.0000 0.28970  0.89838  0.00592  Biso   1.000  O
  O16      1.0000 0.38048  0.88196  0.85872  Biso   1.000  O
  C22      1.0000 0.35994  0.90882  0.95153  Biso   1.000  C
  C23      1.0000 0.43393  0.95539  0.01011  Biso   1.000  C
  C24      1.0000 0.43311  0.95267  0.12925  Biso   1.000  C
  H8       1.0000 0.38162  0.92682  0.15735  Biso   1.000  H
  O17      1.0000 0.89838  0.28970  0.99408  Biso   1.000  O
  O18      1.0000 0.88196  0.38048  0.14128  Biso   1.000  O
  C25      1.0000 0.90882  0.35994  0.04847  Biso   1.000  C
  C26      1.0000 0.95539  0.43393  0.98989  Biso   1.000  C
  C27      1.0000 0.95267  0.43311  0.87075  Biso   1.000  C
  H9       1.0000 0.92682  0.38162  0.84265  Biso   1.000  H
  O19      1.0000 0.39838  0.78970  0.49408  Biso   1.000  O
  O20      1.0000 0.38196  0.88048  0.64128  Biso   1.000  O
  C28      1.0000 0.40882  0.85994  0.54847  Biso   1.000  C
  C29      1.0000 0.45539  0.93393  0.48989  Biso   1.000  C
  C30      1.0000 0.45267  0.93311  0.37075  Biso   1.000  C
  H10      1.0000 0.42682  0.88162  0.34265  Biso   1.000  H
  O21      1.0000 0.60162  0.21030  0.49408  Biso   1.000  O
  O22      1.0000 0.61804  0.11952  0.64128  Biso   1.000  O
  C31      1.0000 0.59118  0.14006  0.54847  Biso   1.000  C
  C32      1.0000 0.54461  0.06607  0.48989  Biso   1.000  C
  C33      1.0000 0.54733  0.06689  0.37075  Biso   1.000  C
  H11      1.0000 0.57318  0.11838  0.34265  Biso   1.000  H
  O23      1.0000 0.10162  0.71030  0.99408  Biso   1.000  O
  O24      1.0000 0.11804  0.61952  0.14128  Biso   1.000  O
  C34      1.0000 0.09118  0.64006  0.04847  Biso   1.000  C
  C35      1.0000 0.04461  0.56607  0.98989  Biso   1.000  C
  C36      1.0000 0.04733  0.56689  0.87075  Biso   1.000  C
  H12      1.0000 0.07318  0.61838  0.84265  Biso   1.000  H
  O25      1.0000 0.78970  0.10162  0.74408  Biso   1.000  O
  O26      1.0000 0.88048  0.11804  0.89128  Biso   1.000  O
  C37      1.0000 0.85994  0.09118  0.79847  Biso   1.000  C
  C38      1.0000 0.93393  0.04461  0.73989  Biso   1.000  C
  C39      1.0000 0.93311  0.04733  0.62075  Biso   1.000  C
  H13      1.0000 0.88162  0.07318  0.59265  Biso   1.000  H
  O27      1.0000 0.28970  0.60162  0.24408  Biso   1.000  O
  O28      1.0000 0.38048  0.61804  0.39128  Biso   1.000  O
  C40      1.0000 0.35994  0.59118  0.29847  Biso   1.000  C
  C41      1.0000 0.43393  0.54461  0.23989  Biso   1.000  C
  C42      1.0000 0.43311  0.54733  0.12075  Biso   1.000  C
  H14      1.0000 0.38162  0.57318  0.09265  Biso   1.000  H
  O29      1.0000 0.71030  0.39838  0.24408  Biso   1.000  O
  O30      1.0000 0.61952  0.38196  0.39128  Biso   1.000  O
  C43      1.0000 0.64006  0.40882  0.29847  Biso   1.000  C
  C44      1.0000 0.56607  0.45539  0.23989  Biso   1.000  C
  C45      1.0000 0.56689  0.45267  0.12075  Biso   1.000  C
  H15      1.0000 0.61838  0.42682  0.09265  Biso   1.000  H
  O31      1.0000 0.21030  0.89838  0.74408  Biso   1.000  O
  O32      1.0000 0.11952  0.88196  0.89128  Biso   1.000  O
  C46      1.0000 0.14006  0.90882  0.79847  Biso   1.000  C
  C47      1.0000 0.06607  0.95539  0.73989  Biso   1.000  C
  C48      1.0000 0.06689  0.95267  0.62075  Biso   1.000  C
  H16      1.0000 0.11838  0.92682  0.59265  Biso   1.000  H
  V1       1.0000 0.69170  0.30830  0.50000  Biso   1.000  V
  V2       1.0000 0.19170  0.80830  0.00000  Biso   1.000  V
  V3       1.0000 0.80830  0.19170  0.00000  Biso   1.000  V
  V4       1.0000 0.30830  0.69170  0.50000  Biso   1.000  V
  V5       1.0000 0.69170  0.19170  0.75000  Biso   1.000  V
  V6       1.0000 0.19170  0.69170  0.25000  Biso   1.000  V
  V7       1.0000 0.80830  0.30830  0.25000  Biso   1.000  V
  V8       1.0000 0.30830  0.80830  0.75000  Biso   1.000  V
  O33      1.0000 0.74484  0.25000  0.62500  Biso   1.000  O
  H17      1.0000 0.80600  0.25000  0.62500  Biso   1.000  H
  O34      1.0000 0.24484  0.75000  0.12500  Biso   1.000  O
  H18      1.0000 0.30600  0.75000  0.12500  Biso   1.000  H
  O35      1.0000 0.75516  0.25000  0.12500  Biso   1.000  O
  H19      1.0000 0.69400  0.25000  0.12500  Biso   1.000  H
  O36      1.0000 0.25516  0.75000  0.62500  Biso   1.000  O
  H20      1.0000 0.19400  0.75000  0.62500  Biso   1.000  H
  O37      1.0000 0.75000  0.24484  0.87500  Biso   1.000  O
  H21      1.0000 0.75000  0.30600  0.87500  Biso   1.000  H
  O38      1.0000 0.25000  0.74484  0.37500  Biso   1.000  O
  H22      1.0000 0.25000  0.80600  0.37500  Biso   1.000  H
  O39      1.0000 0.75000  0.25516  0.37500  Biso   1.000  O
  H23      1.0000 0.75000  0.19400  0.37500  Biso   1.000  H
  O40      1.0000 0.25000  0.75516  0.87500  Biso   1.000  O
  H24      1.0000 0.25000  0.69400  0.87500  Biso   1.000  H
  C49      1.0000 0.50000  0.50000  0.70346  Biso   1.000  C
  C50      1.0000 0.50000  0.50000  0.93621  Biso   1.000  C
  H25      1.0000 0.50000  0.50000  0.62610  Biso   1.000  H
  C51      1.0000 0.00000  0.00000  0.20346  Biso   1.000  C
  C52      1.0000 0.00000  0.00000  0.43621  Biso   1.000  C
  H26      1.0000 0.00000  0.00000  0.12610  Biso   1.000  H
  C53      1.0000 0.50000  0.00000  0.95346  Biso   1.000  C
  C54      1.0000 0.50000  0.00000  0.18621  Biso   1.000  C
  H27      1.0000 0.50000  0.00000  0.87610  Biso   1.000  H
  C55      1.0000 0.00000  0.50000  0.45346  Biso   1.000  C
  C56      1.0000 0.00000  0.50000  0.68621  Biso   1.000  C
  H28      1.0000 0.00000  0.50000  0.37610  Biso   1.000  H
  C57      1.0000 0.00000  0.50000  0.04654  Biso   1.000  C
  C58      1.0000 0.00000  0.50000  0.81379  Biso   1.000  C
  H29      1.0000 0.00000  0.50000  0.12390  Biso   1.000  H
  C59      1.0000 0.50000  0.00000  0.54654  Biso   1.000  C
  C60      1.0000 0.50000  0.00000  0.31379  Biso   1.000  C
  H30      1.0000 0.50000  0.00000  0.62390  Biso   1.000  H
  C61      1.0000 0.00000  0.00000  0.79654  Biso   1.000  C
  C62      1.0000 0.00000  0.00000  0.56379  Biso   1.000  C
  H31      1.0000 0.00000  0.00000  0.87390  Biso   1.000  H
  C63      1.0000 0.50000  0.50000  0.29654  Biso   1.000  C
  C64      1.0000 0.50000  0.50000  0.06379  Biso   1.000  C
  H32      1.0000 0.50000  0.50000  0.37390  Biso   1.000  H
