data_image0
_cell_length_a       15.0955
_cell_length_b       15.0955
_cell_length_c       12.0175
_cell_angle_alpha    90
_cell_angle_beta     90
_cell_angle_gamma    90

_symmetry_space_group_name_H-M    "P 1"
_symmetry_int_tables_number       1

loop_
  _symmetry_equiv_pos_as_xyz
  'x, y, z'

loop_
  _atom_site_label
  _atom_site_occupancy
  _atom_site_fract_x
  _atom_site_fract_y
  _atom_site_fract_z
  _atom_site_thermal_displace_type
  _atom_site_B_iso_or_equiv
  _atom_site_type_symbol
  O1       1.0000 0.60101  0.29063  0.75750  Biso   1.000  O
  O2       1.0000 0.61777  0.38008  0.60908  Biso   1.000  O
  C1       1.0000 0.59220  0.36020  0.70030  Biso   1.000  C
  C2       1.0000 0.54340  0.43320  0.76010  Biso   1.000  C
  C3       1.0000 0.54760  0.43320  0.87940  Biso   1.000  C
  H1       1.0000 0.57318  0.38162  0.90735  Biso   1.000  H
  O3       1.0000 0.10101  0.79063  0.25750  Biso   1.000  O
  O4       1.0000 0.11777  0.88008  0.10908  Biso   1.000  O
  C4       1.0000 0.09220  0.86020  0.20030  Biso   1.000  C
  C5       1.0000 0.04340  0.93320  0.26010  Biso   1.000  C
  C6       1.0000 0.04760  0.93320  0.37940  Biso   1.000  C
  H2       1.0000 0.07318  0.88162  0.40735  Biso   1.000  H
  O5       1.0000 0.89899  0.20937  0.25750  Biso   1.000  O
  O6       1.0000 0.88223  0.11992  0.10908  Biso   1.000  O
  C7       1.0000 0.90780  0.13980  0.20030  Biso   1.000  C
  C8       1.0000 0.95660  0.06680  0.26010  Biso   1.000  C
  C9       1.0000 0.95240  0.06680  0.37940  Biso   1.000  C
  H3       1.0000 0.92682  0.11838  0.40735  Biso   1.000  H
  O7       1.0000 0.39899  0.70937  0.75750  Biso   1.000  O
  O8       1.0000 0.38223  0.61992  0.60908  Biso   1.000  O
  C10      1.0000 0.40780  0.63980  0.70030  Biso   1.000  C
  C11      1.0000 0.45660  0.56680  0.76010  Biso   1.000  C
  C12      1.0000 0.45240  0.56680  0.87940  Biso   1.000  C
  H4       1.0000 0.42682  0.61838  0.90735  Biso   1.000  H
  O9       1.0000 0.70937  0.10101  0.00750  Biso   1.000  O
  O10      1.0000 0.61992  0.11777  0.85908  Biso   1.000  O
  C13      1.0000 0.63980  0.09220  0.95030  Biso   1.000  C
  C14      1.0000 0.56680  0.04340  0.01010  Biso   1.000  C
  C15      1.0000 0.56680  0.04760  0.12940  Biso   1.000  C
  H5       1.0000 0.61838  0.07318  0.15735  Biso   1.000  H
  O11      1.0000 0.20937  0.60101  0.50750  Biso   1.000  O
  O12      1.0000 0.11992  0.61777  0.35908  Biso   1.000  O
  C16      1.0000 0.13980  0.59220  0.45030  Biso   1.000  C
  C17      1.0000 0.06680  0.54340  0.51010  Biso   1.000  C
  C18      1.0000 0.06680  0.54760  0.62940  Biso   1.000  C
  H6       1.0000 0.11838  0.57318  0.65735  Biso   1.000  H
  O13      1.0000 0.79063  0.39899  0.50750  Biso   1.000  O
  O14      1.0000 0.88008  0.38223  0.35908  Biso   1.000  O
  C19      1.0000 0.86020  0.40780  0.45030  Biso   1.000  C
  C20      1.0000 0.93320  0.45660  0.51010  Biso   1.000  C
  C21      1.0000 0.93320  0.45240  0.62940  Biso   1.000  C
  H7       1.0000 0.88162  0.42682  0.65735  Biso   1.000  H
  O15      1.0000 0.29063  0.89899  0.00750  Biso   1.000  O
  O16      1.0000 0.38008  0.88223  0.85908  Biso   1.000  O
  C22      1.0000 0.36020  0.90780  0.95030  Biso   1.000  C
  C23      1.0000 0.43320  0.95660  0.01010  Biso   1.000  C
  C24      1.0000 0.43320  0.95240  0.12940  Biso   1.000  C
  H8       1.0000 0.38162  0.92682  0.15735  Biso   1.000  H
  O17      1.0000 0.89899  0.29063  0.99250  Biso   1.000  O
  O18      1.0000 0.88223  0.38008  0.14092  Biso   1.000  O
  C25      1.0000 0.90780  0.36020  0.04970  Biso   1.000  C
  C26      1.0000 0.95660  0.43320  0.98990  Biso   1.000  C
  C27      1.0000 0.95240  0.43320  0.87060  Biso   1.000  C
  H9       1.0000 0.92682  0.38162  0.84265  Biso   1.000  H
  O19      1.0000 0.39899  0.79063  0.49250  Biso   1.000  O
  O20      1.0000 0.38223  0.88008  0.64092  Biso   1.000  O
  C28      1.0000 0.40780  0.86020  0.54970  Biso   1.000  C
  C29      1.0000 0.45660  0.93320  0.48990  Biso   1.000  C
  C30      1.0000 0.45240  0.93320  0.37060  Biso   1.000  C
  H10      1.0000 0.42682  0.88162  0.34265  Biso   1.000  H
  O21      1.0000 0.60101  0.20937  0.49250  Biso   1.000  O
  O22      1.0000 0.61777  0.11992  0.64092  Biso   1.000  O
  C31      1.0000 0.59220  0.13980  0.54970  Biso   1.000  C
  C32      1.0000 0.54340  0.06680  0.48990  Biso   1.000  C
  C33      1.0000 0.54760  0.06680  0.37060  Biso   1.000  C
  H11      1.0000 0.57318  0.11838  0.34265  Biso   1.000  H
  O23      1.0000 0.10101  0.70937  0.99250  Biso   1.000  O
  O24      1.0000 0.11777  0.61992  0.14092  Biso   1.000  O
  C34      1.0000 0.09220  0.63980  0.04970  Biso   1.000  C
  C35      1.0000 0.04340  0.56680  0.98990  Biso   1.000  C
  C36      1.0000 0.04760  0.56680  0.87060  Biso   1.000  C
  H12      1.0000 0.07318  0.61838  0.84265  Biso   1.000  H
  O25      1.0000 0.79063  0.10101  0.74250  Biso   1.000  O
  O26      1.0000 0.88008  0.11777  0.89092  Biso   1.000  O
  C37      1.0000 0.86020  0.09220  0.79970  Biso   1.000  C
  C38      1.0000 0.93320  0.04340  0.73990  Biso   1.000  C
  C39      1.0000 0.93320  0.04760  0.62060  Biso   1.000  C
  H13      1.0000 0.88162  0.07318  0.59265  Biso   1.000  H
  O27      1.0000 0.29063  0.60101  0.24250  Biso   1.000  O
  O28      1.0000 0.38008  0.61777  0.39092  Biso   1.000  O
  C40      1.0000 0.36020  0.59220  0.29970  Biso   1.000  C
  C41      1.0000 0.43320  0.54340  0.23990  Biso   1.000  C
  C42      1.0000 0.43320  0.54760  0.12060  Biso   1.000  C
  H14      1.0000 0.38162  0.57318  0.09265  Biso   1.000  H
  O29      1.0000 0.70937  0.39899  0.24250  Biso   1.000  O
  O30      1.0000 0.61992  0.38223  0.39092  Biso   1.000  O
  C43      1.0000 0.63980  0.40780  0.29970  Biso   1.000  C
  C44      1.0000 0.56680  0.45660  0.23990  Biso   1.000  C
  C45      1.0000 0.56680  0.45240  0.12060  Biso   1.000  C
  H15      1.0000 0.61838  0.42682  0.09265  Biso   1.000  H
  O31      1.0000 0.20937  0.89899  0.74250  Biso   1.000  O
  O32      1.0000 0.11992  0.88223  0.89092  Biso   1.000  O
  C46      1.0000 0.13980  0.90780  0.79970  Biso   1.000  C
  C47      1.0000 0.06680  0.95660  0.73990  Biso   1.000  C
  C48      1.0000 0.06680  0.95240  0.62060  Biso   1.000  C
  H16      1.0000 0.11838  0.92682  0.59265  Biso   1.000  H
  V1       1.0000 0.69216  0.30784  0.50000  Biso   1.000  V
  V2       1.0000 0.19216  0.80784  0.00000  Biso   1.000  V
  V3       1.0000 0.80784  0.19216  0.00000  Biso   1.000  V
  V4       1.0000 0.30784  0.69216  0.50000  Biso   1.000  V
  V5       1.0000 0.69216  0.19216  0.75000  Biso   1.000  V
  V6       1.0000 0.19216  0.69216  0.25000  Biso   1.000  V
  V7       1.0000 0.80784  0.30784  0.25000  Biso   1.000  V
  V8       1.0000 0.30784  0.80784  0.75000  Biso   1.000  V
  O33      1.0000 0.74590  0.25000  0.62500  Biso   1.000  O
  H17      1.0000 0.80600  0.25000  0.62500  Biso   1.000  H
  O34      1.0000 0.24590  0.75000  0.12500  Biso   1.000  O
  H18      1.0000 0.30600  0.75000  0.12500  Biso   1.000  H
  O35      1.0000 0.75410  0.25000  0.12500  Biso   1.000  O
  H19      1.0000 0.69400  0.25000  0.12500  Biso   1.000  H
  O36      1.0000 0.25410  0.75000  0.62500  Biso   1.000  O
  H20      1.0000 0.19400  0.75000  0.62500  Biso   1.000  H
  O37      1.0000 0.75000  0.24590  0.87500  Biso   1.000  O
  H21      1.0000 0.75000  0.30600  0.87500  Biso   1.000  H
  O38      1.0000 0.25000  0.74590  0.37500  Biso   1.000  O
  H22      1.0000 0.25000  0.80600  0.37500  Biso   1.000  H
  O39      1.0000 0.75000  0.25410  0.37500  Biso   1.000  O
  H23      1.0000 0.75000  0.19400  0.37500  Biso   1.000  H
  O40      1.0000 0.25000  0.75410  0.87500  Biso   1.000  O
  H24      1.0000 0.25000  0.69400  0.87500  Biso   1.000  H
  C49      1.0000 0.50000  0.50000  0.70330  Biso   1.000  C
  C50      1.0000 0.50000  0.50000  0.93620  Biso   1.000  C
  H25      1.0000 0.50000  0.50000  0.62600  Biso   1.000  H
  C51      1.0000 0.00000  0.00000  0.20330  Biso   1.000  C
  C52      1.0000 0.00000  0.00000  0.43620  Biso   1.000  C
  H26      1.0000 0.00000  0.00000  0.12600  Biso   1.000  H
  C53      1.0000 0.50000  0.00000  0.95330  Biso   1.000  C
  C54      1.0000 0.50000  0.00000  0.18620  Biso   1.000  C
  H27      1.0000 0.50000  0.00000  0.87600  Biso   1.000  H
  C55      1.0000 0.00000  0.50000  0.45330  Biso   1.000  C
  C56      1.0000 0.00000  0.50000  0.68620  Biso   1.000  C
  H28      1.0000 0.00000  0.50000  0.37600  Biso   1.000  H
  C57      1.0000 0.00000  0.50000  0.04670  Biso   1.000  C
  C58      1.0000 0.00000  0.50000  0.81380  Biso   1.000  C
  H29      1.0000 0.00000  0.50000  0.12400  Biso   1.000  H
  C59      1.0000 0.50000  0.00000  0.54670  Biso   1.000  C
  C60      1.0000 0.50000  0.00000  0.31380  Biso   1.000  C
  H30      1.0000 0.50000  0.00000  0.62400  Biso   1.000  H
  C61      1.0000 0.00000  0.00000  0.79670  Biso   1.000  C
  C62      1.0000 0.00000  0.00000  0.56380  Biso   1.000  C
  H31      1.0000 0.00000  0.00000  0.87400  Biso   1.000  H
  C63      1.0000 0.50000  0.50000  0.29670  Biso   1.000  C
  C64      1.0000 0.50000  0.50000  0.06380  Biso   1.000  C
  H32      1.0000 0.50000  0.50000  0.37400  Biso   1.000  H
