data_image0
_cell_length_a       15.1267
_cell_length_b       15.1267
_cell_length_c       12.0363
_cell_angle_alpha    90
_cell_angle_beta     90
_cell_angle_gamma    90

_symmetry_space_group_name_H-M    "P 1"
_symmetry_int_tables_number       1

loop_
  _symmetry_equiv_pos_as_xyz
  'x, y, z'

loop_
  _atom_site_label
  _atom_site_occupancy
  _atom_site_fract_x
  _atom_site_fract_y
  _atom_site_fract_z
  _atom_site_thermal_displace_type
  _atom_site_B_iso_or_equiv
  _atom_site_type_symbol
  O1       1.0000 0.60130  0.29040  0.75590  Biso   1.000  O
  O2       1.0000 0.61800  0.37710  0.60850  Biso   1.000  O
  C1       1.0000 0.59580  0.36270  0.70520  Biso   1.000  C
  C2       1.0000 0.54670  0.43560  0.76040  Biso   1.000  C
  C3       1.0000 0.54760  0.43320  0.87940  Biso   1.000  C
  H1       1.0000 0.57318  0.38162  0.90735  Biso   1.000  H
  O3       1.0000 0.10130  0.79040  0.25590  Biso   1.000  O
  O4       1.0000 0.11800  0.87710  0.10850  Biso   1.000  O
  C4       1.0000 0.09580  0.86270  0.20520  Biso   1.000  C
  C5       1.0000 0.04670  0.93560  0.26040  Biso   1.000  C
  C6       1.0000 0.04760  0.93320  0.37940  Biso   1.000  C
  H2       1.0000 0.07318  0.88162  0.40735  Biso   1.000  H
  O5       1.0000 0.89870  0.20960  0.25590  Biso   1.000  O
  O6       1.0000 0.88200  0.12290  0.10850  Biso   1.000  O
  C7       1.0000 0.90420  0.13730  0.20520  Biso   1.000  C
  C8       1.0000 0.95330  0.06440  0.26040  Biso   1.000  C
  C9       1.0000 0.95240  0.06680  0.37940  Biso   1.000  C
  H3       1.0000 0.92682  0.11838  0.40735  Biso   1.000  H
  O7       1.0000 0.39870  0.70960  0.75590  Biso   1.000  O
  O8       1.0000 0.38200  0.62290  0.60850  Biso   1.000  O
  C10      1.0000 0.40420  0.63730  0.70520  Biso   1.000  C
  C11      1.0000 0.45330  0.56440  0.76040  Biso   1.000  C
  C12      1.0000 0.45240  0.56680  0.87940  Biso   1.000  C
  H4       1.0000 0.42682  0.61838  0.90735  Biso   1.000  H
  O9       1.0000 0.70960  0.10130  0.00590  Biso   1.000  O
  O10      1.0000 0.62290  0.11800  0.85850  Biso   1.000  O
  C13      1.0000 0.63730  0.09580  0.95520  Biso   1.000  C
  C14      1.0000 0.56440  0.04670  0.01040  Biso   1.000  C
  C15      1.0000 0.56680  0.04760  0.12940  Biso   1.000  C
  H5       1.0000 0.61838  0.07318  0.15735  Biso   1.000  H
  O11      1.0000 0.20960  0.60130  0.50590  Biso   1.000  O
  O12      1.0000 0.12290  0.61800  0.35850  Biso   1.000  O
  C16      1.0000 0.13730  0.59580  0.45520  Biso   1.000  C
  C17      1.0000 0.06440  0.54670  0.51040  Biso   1.000  C
  C18      1.0000 0.06680  0.54760  0.62940  Biso   1.000  C
  H6       1.0000 0.11838  0.57318  0.65735  Biso   1.000  H
  O13      1.0000 0.79040  0.39870  0.50590  Biso   1.000  O
  O14      1.0000 0.87710  0.38200  0.35850  Biso   1.000  O
  C19      1.0000 0.86270  0.40420  0.45520  Biso   1.000  C
  C20      1.0000 0.93560  0.45330  0.51040  Biso   1.000  C
  C21      1.0000 0.93320  0.45240  0.62940  Biso   1.000  C
  H7       1.0000 0.88162  0.42682  0.65735  Biso   1.000  H
  O15      1.0000 0.29040  0.89870  0.00590  Biso   1.000  O
  O16      1.0000 0.37710  0.88200  0.85850  Biso   1.000  O
  C22      1.0000 0.36270  0.90420  0.95520  Biso   1.000  C
  C23      1.0000 0.43560  0.95330  0.01040  Biso   1.000  C
  C24      1.0000 0.43320  0.95240  0.12940  Biso   1.000  C
  H8       1.0000 0.38162  0.92682  0.15735  Biso   1.000  H
  O17      1.0000 0.89870  0.29040  0.99410  Biso   1.000  O
  O18      1.0000 0.88200  0.37710  0.14150  Biso   1.000  O
  C25      1.0000 0.90420  0.36270  0.04480  Biso   1.000  C
  C26      1.0000 0.95330  0.43560  0.98960  Biso   1.000  C
  C27      1.0000 0.95240  0.43320  0.87060  Biso   1.000  C
  H9       1.0000 0.92682  0.38162  0.84265  Biso   1.000  H
  O19      1.0000 0.39870  0.79040  0.49410  Biso   1.000  O
  O20      1.0000 0.38200  0.87710  0.64150  Biso   1.000  O
  C28      1.0000 0.40420  0.86270  0.54480  Biso   1.000  C
  C29      1.0000 0.45330  0.93560  0.48960  Biso   1.000  C
  C30      1.0000 0.45240  0.93320  0.37060  Biso   1.000  C
  H10      1.0000 0.42682  0.88162  0.34265  Biso   1.000  H
  O21      1.0000 0.60130  0.20960  0.49410  Biso   1.000  O
  O22      1.0000 0.61800  0.12290  0.64150  Biso   1.000  O
  C31      1.0000 0.59580  0.13730  0.54480  Biso   1.000  C
  C32      1.0000 0.54670  0.06440  0.48960  Biso   1.000  C
  C33      1.0000 0.54760  0.06680  0.37060  Biso   1.000  C
  H11      1.0000 0.57318  0.11838  0.34265  Biso   1.000  H
  O23      1.0000 0.10130  0.70960  0.99410  Biso   1.000  O
  O24      1.0000 0.11800  0.62290  0.14150  Biso   1.000  O
  C34      1.0000 0.09580  0.63730  0.04480  Biso   1.000  C
  C35      1.0000 0.04670  0.56440  0.98960  Biso   1.000  C
  C36      1.0000 0.04760  0.56680  0.87060  Biso   1.000  C
  H12      1.0000 0.07318  0.61838  0.84265  Biso   1.000  H
  O25      1.0000 0.79040  0.10130  0.74410  Biso   1.000  O
  O26      1.0000 0.87710  0.11800  0.89150  Biso   1.000  O
  C37      1.0000 0.86270  0.09580  0.79480  Biso   1.000  C
  C38      1.0000 0.93560  0.04670  0.73960  Biso   1.000  C
  C39      1.0000 0.93320  0.04760  0.62060  Biso   1.000  C
  H13      1.0000 0.88162  0.07318  0.59265  Biso   1.000  H
  O27      1.0000 0.29040  0.60130  0.24410  Biso   1.000  O
  O28      1.0000 0.37710  0.61800  0.39150  Biso   1.000  O
  C40      1.0000 0.36270  0.59580  0.29480  Biso   1.000  C
  C41      1.0000 0.43560  0.54670  0.23960  Biso   1.000  C
  C42      1.0000 0.43320  0.54760  0.12060  Biso   1.000  C
  H14      1.0000 0.38162  0.57318  0.09265  Biso   1.000  H
  O29      1.0000 0.70960  0.39870  0.24410  Biso   1.000  O
  O30      1.0000 0.62290  0.38200  0.39150  Biso   1.000  O
  C43      1.0000 0.63730  0.40420  0.29480  Biso   1.000  C
  C44      1.0000 0.56440  0.45330  0.23960  Biso   1.000  C
  C45      1.0000 0.56680  0.45240  0.12060  Biso   1.000  C
  H15      1.0000 0.61838  0.42682  0.09265  Biso   1.000  H
  O31      1.0000 0.20960  0.89870  0.74410  Biso   1.000  O
  O32      1.0000 0.12290  0.88200  0.89150  Biso   1.000  O
  C46      1.0000 0.13730  0.90420  0.79480  Biso   1.000  C
  C47      1.0000 0.06440  0.95330  0.73960  Biso   1.000  C
  C48      1.0000 0.06680  0.95240  0.62060  Biso   1.000  C
  H16      1.0000 0.11838  0.92682  0.59265  Biso   1.000  H
  V1       1.0000 0.69016  0.30984  0.50000  Biso   1.000  V
  V2       1.0000 0.19016  0.80984  0.00000  Biso   1.000  V
  V3       1.0000 0.80984  0.19016  0.00000  Biso   1.000  V
  V4       1.0000 0.30984  0.69016  0.50000  Biso   1.000  V
  V5       1.0000 0.69016  0.19016  0.75000  Biso   1.000  V
  V6       1.0000 0.19016  0.69016  0.25000  Biso   1.000  V
  V7       1.0000 0.80984  0.30984  0.25000  Biso   1.000  V
  V8       1.0000 0.30984  0.80984  0.75000  Biso   1.000  V
  O33      1.0000 0.74630  0.25000  0.62500  Biso   1.000  O
  H17      1.0000 0.80600  0.25000  0.62500  Biso   1.000  H
  O34      1.0000 0.24630  0.75000  0.12500  Biso   1.000  O
  H18      1.0000 0.30600  0.75000  0.12500  Biso   1.000  H
  O35      1.0000 0.75370  0.25000  0.12500  Biso   1.000  O
  H19      1.0000 0.69400  0.25000  0.12500  Biso   1.000  H
  O36      1.0000 0.25370  0.75000  0.62500  Biso   1.000  O
  H20      1.0000 0.19400  0.75000  0.62500  Biso   1.000  H
  O37      1.0000 0.75000  0.24630  0.87500  Biso   1.000  O
  H21      1.0000 0.75000  0.30600  0.87500  Biso   1.000  H
  O38      1.0000 0.25000  0.74630  0.37500  Biso   1.000  O
  H22      1.0000 0.25000  0.80600  0.37500  Biso   1.000  H
  O39      1.0000 0.75000  0.25370  0.37500  Biso   1.000  O
  H23      1.0000 0.75000  0.19400  0.37500  Biso   1.000  H
  O40      1.0000 0.25000  0.75370  0.87500  Biso   1.000  O
  H24      1.0000 0.25000  0.69400  0.87500  Biso   1.000  H
  C49      1.0000 0.50000  0.50000  0.70300  Biso   1.000  C
  C50      1.0000 0.50000  0.50000  0.93620  Biso   1.000  C
  H25      1.0000 0.50000  0.50000  0.62600  Biso   1.000  H
  C51      1.0000 0.00000  0.00000  0.20300  Biso   1.000  C
  C52      1.0000 0.00000  0.00000  0.43620  Biso   1.000  C
  H26      1.0000 0.00000  0.00000  0.12600  Biso   1.000  H
  C53      1.0000 0.50000  0.00000  0.95300  Biso   1.000  C
  C54      1.0000 0.50000  0.00000  0.18620  Biso   1.000  C
  H27      1.0000 0.50000  0.00000  0.87600  Biso   1.000  H
  C55      1.0000 0.00000  0.50000  0.45300  Biso   1.000  C
  C56      1.0000 0.00000  0.50000  0.68620  Biso   1.000  C
  H28      1.0000 0.00000  0.50000  0.37600  Biso   1.000  H
  C57      1.0000 0.00000  0.50000  0.04700  Biso   1.000  C
  C58      1.0000 0.00000  0.50000  0.81380  Biso   1.000  C
  H29      1.0000 0.00000  0.50000  0.12400  Biso   1.000  H
  C59      1.0000 0.50000  0.00000  0.54700  Biso   1.000  C
  C60      1.0000 0.50000  0.00000  0.31380  Biso   1.000  C
  H30      1.0000 0.50000  0.00000  0.62400  Biso   1.000  H
  C61      1.0000 0.00000  0.00000  0.79700  Biso   1.000  C
  C62      1.0000 0.00000  0.00000  0.56380  Biso   1.000  C
  H31      1.0000 0.00000  0.00000  0.87400  Biso   1.000  H
  C63      1.0000 0.50000  0.50000  0.29700  Biso   1.000  C
  C64      1.0000 0.50000  0.50000  0.06380  Biso   1.000  C
  H32      1.0000 0.50000  0.50000  0.37400  Biso   1.000  H
