data_image0
_cell_length_a       15.1423
_cell_length_b       15.1423
_cell_length_c       12.0449
_cell_angle_alpha    90
_cell_angle_beta     90
_cell_angle_gamma    90

_symmetry_space_group_name_H-M    "P 1"
_symmetry_int_tables_number       1

loop_
  _symmetry_equiv_pos_as_xyz
  'x, y, z'

loop_
  _atom_site_label
  _atom_site_occupancy
  _atom_site_fract_x
  _atom_site_fract_y
  _atom_site_fract_z
  _atom_site_thermal_displace_type
  _atom_site_B_iso_or_equiv
  _atom_site_type_symbol
  O1       1.0000 0.60220  0.29060  0.76150  Biso   1.000  O
  O2       1.0000 0.62250  0.38070  0.61420  Biso   1.000  O
  C1       1.0000 0.59250  0.36010  0.70690  Biso   1.000  C
  C2       1.0000 0.54100  0.43200  0.76240  Biso   1.000  C
  C3       1.0000 0.54580  0.43270  0.88160  Biso   1.000  C
  H1       1.0000 0.57318  0.38162  0.90735  Biso   1.000  H
  O3       1.0000 0.10220  0.79060  0.26150  Biso   1.000  O
  O4       1.0000 0.12250  0.88070  0.11420  Biso   1.000  O
  C4       1.0000 0.09250  0.86010  0.20690  Biso   1.000  C
  C5       1.0000 0.04100  0.93200  0.26240  Biso   1.000  C
  C6       1.0000 0.04580  0.93270  0.38160  Biso   1.000  C
  H2       1.0000 0.07318  0.88162  0.40735  Biso   1.000  H
  O5       1.0000 0.89780  0.20940  0.26150  Biso   1.000  O
  O6       1.0000 0.87750  0.11930  0.11420  Biso   1.000  O
  C7       1.0000 0.90750  0.13990  0.20690  Biso   1.000  C
  C8       1.0000 0.95900  0.06800  0.26240  Biso   1.000  C
  C9       1.0000 0.95420  0.06730  0.38160  Biso   1.000  C
  H3       1.0000 0.92682  0.11838  0.40735  Biso   1.000  H
  O7       1.0000 0.39780  0.70940  0.76150  Biso   1.000  O
  O8       1.0000 0.37750  0.61930  0.61420  Biso   1.000  O
  C10      1.0000 0.40750  0.63990  0.70690  Biso   1.000  C
  C11      1.0000 0.45900  0.56800  0.76240  Biso   1.000  C
  C12      1.0000 0.45420  0.56730  0.88160  Biso   1.000  C
  H4       1.0000 0.42682  0.61838  0.90735  Biso   1.000  H
  O9       1.0000 0.70940  0.10220  0.01150  Biso   1.000  O
  O10      1.0000 0.61930  0.12250  0.86420  Biso   1.000  O
  C13      1.0000 0.63990  0.09250  0.95690  Biso   1.000  C
  C14      1.0000 0.56800  0.04100  0.01240  Biso   1.000  C
  C15      1.0000 0.56730  0.04580  0.13160  Biso   1.000  C
  H5       1.0000 0.61838  0.07318  0.15735  Biso   1.000  H
  O11      1.0000 0.20940  0.60220  0.51150  Biso   1.000  O
  O12      1.0000 0.11930  0.62250  0.36420  Biso   1.000  O
  C16      1.0000 0.13990  0.59250  0.45690  Biso   1.000  C
  C17      1.0000 0.06800  0.54100  0.51240  Biso   1.000  C
  C18      1.0000 0.06730  0.54580  0.63160  Biso   1.000  C
  H6       1.0000 0.11838  0.57318  0.65735  Biso   1.000  H
  O13      1.0000 0.79060  0.39780  0.51150  Biso   1.000  O
  O14      1.0000 0.88070  0.37750  0.36420  Biso   1.000  O
  C19      1.0000 0.86010  0.40750  0.45690  Biso   1.000  C
  C20      1.0000 0.93200  0.45900  0.51240  Biso   1.000  C
  C21      1.0000 0.93270  0.45420  0.63160  Biso   1.000  C
  H7       1.0000 0.88162  0.42682  0.65735  Biso   1.000  H
  O15      1.0000 0.29060  0.89780  0.01150  Biso   1.000  O
  O16      1.0000 0.38070  0.87750  0.86420  Biso   1.000  O
  C22      1.0000 0.36010  0.90750  0.95690  Biso   1.000  C
  C23      1.0000 0.43200  0.95900  0.01240  Biso   1.000  C
  C24      1.0000 0.43270  0.95420  0.13160  Biso   1.000  C
  H8       1.0000 0.38162  0.92682  0.15735  Biso   1.000  H
  O17      1.0000 0.89780  0.29060  0.98850  Biso   1.000  O
  O18      1.0000 0.87750  0.38070  0.13580  Biso   1.000  O
  C25      1.0000 0.90750  0.36010  0.04310  Biso   1.000  C
  C26      1.0000 0.95900  0.43200  0.98760  Biso   1.000  C
  C27      1.0000 0.95420  0.43270  0.86840  Biso   1.000  C
  H9       1.0000 0.92682  0.38162  0.84265  Biso   1.000  H
  O19      1.0000 0.39780  0.79060  0.48850  Biso   1.000  O
  O20      1.0000 0.37750  0.88070  0.63580  Biso   1.000  O
  C28      1.0000 0.40750  0.86010  0.54310  Biso   1.000  C
  C29      1.0000 0.45900  0.93200  0.48760  Biso   1.000  C
  C30      1.0000 0.45420  0.93270  0.36840  Biso   1.000  C
  H10      1.0000 0.42682  0.88162  0.34265  Biso   1.000  H
  O21      1.0000 0.60220  0.20940  0.48850  Biso   1.000  O
  O22      1.0000 0.62250  0.11930  0.63580  Biso   1.000  O
  C31      1.0000 0.59250  0.13990  0.54310  Biso   1.000  C
  C32      1.0000 0.54100  0.06800  0.48760  Biso   1.000  C
  C33      1.0000 0.54580  0.06730  0.36840  Biso   1.000  C
  H11      1.0000 0.57318  0.11838  0.34265  Biso   1.000  H
  O23      1.0000 0.10220  0.70940  0.98850  Biso   1.000  O
  O24      1.0000 0.12250  0.61930  0.13580  Biso   1.000  O
  C34      1.0000 0.09250  0.63990  0.04310  Biso   1.000  C
  C35      1.0000 0.04100  0.56800  0.98760  Biso   1.000  C
  C36      1.0000 0.04580  0.56730  0.86840  Biso   1.000  C
  H12      1.0000 0.07318  0.61838  0.84265  Biso   1.000  H
  O25      1.0000 0.79060  0.10220  0.73850  Biso   1.000  O
  O26      1.0000 0.88070  0.12250  0.88580  Biso   1.000  O
  C37      1.0000 0.86010  0.09250  0.79310  Biso   1.000  C
  C38      1.0000 0.93200  0.04100  0.73760  Biso   1.000  C
  C39      1.0000 0.93270  0.04580  0.61840  Biso   1.000  C
  H13      1.0000 0.88162  0.07318  0.59265  Biso   1.000  H
  O27      1.0000 0.29060  0.60220  0.23850  Biso   1.000  O
  O28      1.0000 0.38070  0.62250  0.38580  Biso   1.000  O
  C40      1.0000 0.36010  0.59250  0.29310  Biso   1.000  C
  C41      1.0000 0.43200  0.54100  0.23760  Biso   1.000  C
  C42      1.0000 0.43270  0.54580  0.11840  Biso   1.000  C
  H14      1.0000 0.38162  0.57318  0.09265  Biso   1.000  H
  O29      1.0000 0.70940  0.39780  0.23850  Biso   1.000  O
  O30      1.0000 0.61930  0.37750  0.38580  Biso   1.000  O
  C43      1.0000 0.63990  0.40750  0.29310  Biso   1.000  C
  C44      1.0000 0.56800  0.45900  0.23760  Biso   1.000  C
  C45      1.0000 0.56730  0.45420  0.11840  Biso   1.000  C
  H15      1.0000 0.61838  0.42682  0.09265  Biso   1.000  H
  O31      1.0000 0.20940  0.89780  0.73850  Biso   1.000  O
  O32      1.0000 0.11930  0.87750  0.88580  Biso   1.000  O
  C46      1.0000 0.13990  0.90750  0.79310  Biso   1.000  C
  C47      1.0000 0.06800  0.95900  0.73760  Biso   1.000  C
  C48      1.0000 0.06730  0.95420  0.61840  Biso   1.000  C
  H16      1.0000 0.11838  0.92682  0.59265  Biso   1.000  H
  V1       1.0000 0.68935  0.31065  0.50000  Biso   1.000  V
  V2       1.0000 0.18935  0.81065  0.00000  Biso   1.000  V
  V3       1.0000 0.81065  0.18935  0.00000  Biso   1.000  V
  V4       1.0000 0.31065  0.68935  0.50000  Biso   1.000  V
  V5       1.0000 0.68935  0.18935  0.75000  Biso   1.000  V
  V6       1.0000 0.18935  0.68935  0.25000  Biso   1.000  V
  V7       1.0000 0.81065  0.31065  0.25000  Biso   1.000  V
  V8       1.0000 0.31065  0.81065  0.75000  Biso   1.000  V
  O33      1.0000 0.74390  0.25000  0.62500  Biso   1.000  O
  H17      1.0000 0.80600  0.25000  0.62500  Biso   1.000  H
  O34      1.0000 0.24390  0.75000  0.12500  Biso   1.000  O
  H18      1.0000 0.30600  0.75000  0.12500  Biso   1.000  H
  O35      1.0000 0.75610  0.25000  0.12500  Biso   1.000  O
  H19      1.0000 0.69400  0.25000  0.12500  Biso   1.000  H
  O36      1.0000 0.25610  0.75000  0.62500  Biso   1.000  O
  H20      1.0000 0.19400  0.75000  0.62500  Biso   1.000  H
  O37      1.0000 0.75000  0.24390  0.87500  Biso   1.000  O
  H21      1.0000 0.75000  0.30600  0.87500  Biso   1.000  H
  O38      1.0000 0.25000  0.74390  0.37500  Biso   1.000  O
  H22      1.0000 0.25000  0.80600  0.37500  Biso   1.000  H
  O39      1.0000 0.75000  0.25610  0.37500  Biso   1.000  O
  H23      1.0000 0.75000  0.19400  0.37500  Biso   1.000  H
  O40      1.0000 0.25000  0.75610  0.87500  Biso   1.000  O
  H24      1.0000 0.25000  0.69400  0.87500  Biso   1.000  H
  C49      1.0000 0.50000  0.50000  0.70800  Biso   1.000  C
  C50      1.0000 0.50000  0.50000  0.93710  Biso   1.000  C
  H25      1.0000 0.50000  0.50000  0.63100  Biso   1.000  H
  C51      1.0000 0.00000  0.00000  0.20800  Biso   1.000  C
  C52      1.0000 0.00000  0.00000  0.43710  Biso   1.000  C
  H26      1.0000 0.00000  0.00000  0.13100  Biso   1.000  H
  C53      1.0000 0.50000  0.00000  0.95800  Biso   1.000  C
  C54      1.0000 0.50000  0.00000  0.18710  Biso   1.000  C
  H27      1.0000 0.50000  0.00000  0.88100  Biso   1.000  H
  C55      1.0000 0.00000  0.50000  0.45800  Biso   1.000  C
  C56      1.0000 0.00000  0.50000  0.68710  Biso   1.000  C
  H28      1.0000 0.00000  0.50000  0.38100  Biso   1.000  H
  C57      1.0000 0.00000  0.50000  0.04200  Biso   1.000  C
  C58      1.0000 0.00000  0.50000  0.81290  Biso   1.000  C
  H29      1.0000 0.00000  0.50000  0.11900  Biso   1.000  H
  C59      1.0000 0.50000  0.00000  0.54200  Biso   1.000  C
  C60      1.0000 0.50000  0.00000  0.31290  Biso   1.000  C
  H30      1.0000 0.50000  0.00000  0.61900  Biso   1.000  H
  C61      1.0000 0.00000  0.00000  0.79200  Biso   1.000  C
  C62      1.0000 0.00000  0.00000  0.56290  Biso   1.000  C
  H31      1.0000 0.00000  0.00000  0.86900  Biso   1.000  H
  C63      1.0000 0.50000  0.50000  0.29200  Biso   1.000  C
  C64      1.0000 0.50000  0.50000  0.06290  Biso   1.000  C
  H32      1.0000 0.50000  0.50000  0.36900  Biso   1.000  H
