data_image0
_cell_length_a       15.1165
_cell_length_b       15.1165
_cell_length_c       12.0355
_cell_angle_alpha    90
_cell_angle_beta     90
_cell_angle_gamma    90

_symmetry_space_group_name_H-M    "P 1"
_symmetry_int_tables_number       1

loop_
  _symmetry_equiv_pos_as_xyz
  'x, y, z'

loop_
  _atom_site_label
  _atom_site_occupancy
  _atom_site_fract_x
  _atom_site_fract_y
  _atom_site_fract_z
  _atom_site_thermal_displace_type
  _atom_site_B_iso_or_equiv
  _atom_site_type_symbol
  O1       1.0000 0.60190  0.28790  0.75710  Biso   1.000  O
  O2       1.0000 0.61910  0.37930  0.60870  Biso   1.000  O
  C1       1.0000 0.59340  0.36090  0.70780  Biso   1.000  C
  C2       1.0000 0.54760  0.43630  0.76050  Biso   1.000  C
  C3       1.0000 0.54760  0.43330  0.87960  Biso   1.000  C
  H1       1.0000 0.57318  0.38162  0.90735  Biso   1.000  H
  O3       1.0000 0.10190  0.78790  0.25710  Biso   1.000  O
  O4       1.0000 0.11910  0.87930  0.10870  Biso   1.000  O
  C4       1.0000 0.09340  0.86090  0.20780  Biso   1.000  C
  C5       1.0000 0.04760  0.93630  0.26050  Biso   1.000  C
  C6       1.0000 0.04760  0.93330  0.37960  Biso   1.000  C
  H2       1.0000 0.07318  0.88162  0.40735  Biso   1.000  H
  O5       1.0000 0.89810  0.21210  0.25710  Biso   1.000  O
  O6       1.0000 0.88090  0.12070  0.10870  Biso   1.000  O
  C7       1.0000 0.90660  0.13910  0.20780  Biso   1.000  C
  C8       1.0000 0.95240  0.06370  0.26050  Biso   1.000  C
  C9       1.0000 0.95240  0.06670  0.37960  Biso   1.000  C
  H3       1.0000 0.92682  0.11838  0.40735  Biso   1.000  H
  O7       1.0000 0.39810  0.71210  0.75710  Biso   1.000  O
  O8       1.0000 0.38090  0.62070  0.60870  Biso   1.000  O
  C10      1.0000 0.40660  0.63910  0.70780  Biso   1.000  C
  C11      1.0000 0.45240  0.56370  0.76050  Biso   1.000  C
  C12      1.0000 0.45240  0.56670  0.87960  Biso   1.000  C
  H4       1.0000 0.42682  0.61838  0.90735  Biso   1.000  H
  O9       1.0000 0.71210  0.10190  0.00710  Biso   1.000  O
  O10      1.0000 0.62070  0.11910  0.85870  Biso   1.000  O
  C13      1.0000 0.63910  0.09340  0.95780  Biso   1.000  C
  C14      1.0000 0.56370  0.04760  0.01050  Biso   1.000  C
  C15      1.0000 0.56670  0.04760  0.12960  Biso   1.000  C
  H5       1.0000 0.61838  0.07318  0.15735  Biso   1.000  H
  O11      1.0000 0.21210  0.60190  0.50710  Biso   1.000  O
  O12      1.0000 0.12070  0.61910  0.35870  Biso   1.000  O
  C16      1.0000 0.13910  0.59340  0.45780  Biso   1.000  C
  C17      1.0000 0.06370  0.54760  0.51050  Biso   1.000  C
  C18      1.0000 0.06670  0.54760  0.62960  Biso   1.000  C
  H6       1.0000 0.11838  0.57318  0.65735  Biso   1.000  H
  O13      1.0000 0.78790  0.39810  0.50710  Biso   1.000  O
  O14      1.0000 0.87930  0.38090  0.35870  Biso   1.000  O
  C19      1.0000 0.86090  0.40660  0.45780  Biso   1.000  C
  C20      1.0000 0.93630  0.45240  0.51050  Biso   1.000  C
  C21      1.0000 0.93330  0.45240  0.62960  Biso   1.000  C
  H7       1.0000 0.88162  0.42682  0.65735  Biso   1.000  H
  O15      1.0000 0.28790  0.89810  0.00710  Biso   1.000  O
  O16      1.0000 0.37930  0.88090  0.85870  Biso   1.000  O
  C22      1.0000 0.36090  0.90660  0.95780  Biso   1.000  C
  C23      1.0000 0.43630  0.95240  0.01050  Biso   1.000  C
  C24      1.0000 0.43330  0.95240  0.12960  Biso   1.000  C
  H8       1.0000 0.38162  0.92682  0.15735  Biso   1.000  H
  O17      1.0000 0.89810  0.28790  0.99290  Biso   1.000  O
  O18      1.0000 0.88090  0.37930  0.14130  Biso   1.000  O
  C25      1.0000 0.90660  0.36090  0.04220  Biso   1.000  C
  C26      1.0000 0.95240  0.43630  0.98950  Biso   1.000  C
  C27      1.0000 0.95240  0.43330  0.87040  Biso   1.000  C
  H9       1.0000 0.92682  0.38162  0.84265  Biso   1.000  H
  O19      1.0000 0.39810  0.78790  0.49290  Biso   1.000  O
  O20      1.0000 0.38090  0.87930  0.64130  Biso   1.000  O
  C28      1.0000 0.40660  0.86090  0.54220  Biso   1.000  C
  C29      1.0000 0.45240  0.93630  0.48950  Biso   1.000  C
  C30      1.0000 0.45240  0.93330  0.37040  Biso   1.000  C
  H10      1.0000 0.42682  0.88162  0.34265  Biso   1.000  H
  O21      1.0000 0.60190  0.21210  0.49290  Biso   1.000  O
  O22      1.0000 0.61910  0.12070  0.64130  Biso   1.000  O
  C31      1.0000 0.59340  0.13910  0.54220  Biso   1.000  C
  C32      1.0000 0.54760  0.06370  0.48950  Biso   1.000  C
  C33      1.0000 0.54760  0.06670  0.37040  Biso   1.000  C
  H11      1.0000 0.57318  0.11838  0.34265  Biso   1.000  H
  O23      1.0000 0.10190  0.71210  0.99290  Biso   1.000  O
  O24      1.0000 0.11910  0.62070  0.14130  Biso   1.000  O
  C34      1.0000 0.09340  0.63910  0.04220  Biso   1.000  C
  C35      1.0000 0.04760  0.56370  0.98950  Biso   1.000  C
  C36      1.0000 0.04760  0.56670  0.87040  Biso   1.000  C
  H12      1.0000 0.07318  0.61838  0.84265  Biso   1.000  H
  O25      1.0000 0.78790  0.10190  0.74290  Biso   1.000  O
  O26      1.0000 0.87930  0.11910  0.89130  Biso   1.000  O
  C37      1.0000 0.86090  0.09340  0.79220  Biso   1.000  C
  C38      1.0000 0.93630  0.04760  0.73950  Biso   1.000  C
  C39      1.0000 0.93330  0.04760  0.62040  Biso   1.000  C
  H13      1.0000 0.88162  0.07318  0.59265  Biso   1.000  H
  O27      1.0000 0.28790  0.60190  0.24290  Biso   1.000  O
  O28      1.0000 0.37930  0.61910  0.39130  Biso   1.000  O
  C40      1.0000 0.36090  0.59340  0.29220  Biso   1.000  C
  C41      1.0000 0.43630  0.54760  0.23950  Biso   1.000  C
  C42      1.0000 0.43330  0.54760  0.12040  Biso   1.000  C
  H14      1.0000 0.38162  0.57318  0.09265  Biso   1.000  H
  O29      1.0000 0.71210  0.39810  0.24290  Biso   1.000  O
  O30      1.0000 0.62070  0.38090  0.39130  Biso   1.000  O
  C43      1.0000 0.63910  0.40660  0.29220  Biso   1.000  C
  C44      1.0000 0.56370  0.45240  0.23950  Biso   1.000  C
  C45      1.0000 0.56670  0.45240  0.12040  Biso   1.000  C
  H15      1.0000 0.61838  0.42682  0.09265  Biso   1.000  H
  O31      1.0000 0.21210  0.89810  0.74290  Biso   1.000  O
  O32      1.0000 0.12070  0.88090  0.89130  Biso   1.000  O
  C46      1.0000 0.13910  0.90660  0.79220  Biso   1.000  C
  C47      1.0000 0.06370  0.95240  0.73950  Biso   1.000  C
  C48      1.0000 0.06670  0.95240  0.62040  Biso   1.000  C
  H16      1.0000 0.11838  0.92682  0.59265  Biso   1.000  H
  V1       1.0000 0.69102  0.30898  0.50000  Biso   1.000  V
  V2       1.0000 0.19102  0.80898  0.00000  Biso   1.000  V
  V3       1.0000 0.80898  0.19102  0.00000  Biso   1.000  V
  V4       1.0000 0.30898  0.69102  0.50000  Biso   1.000  V
  V5       1.0000 0.69102  0.19102  0.75000  Biso   1.000  V
  V6       1.0000 0.19102  0.69102  0.25000  Biso   1.000  V
  V7       1.0000 0.80898  0.30898  0.25000  Biso   1.000  V
  V8       1.0000 0.30898  0.80898  0.75000  Biso   1.000  V
  O33      1.0000 0.74440  0.25000  0.62500  Biso   1.000  O
  H17      1.0000 0.80600  0.25000  0.62500  Biso   1.000  H
  O34      1.0000 0.24440  0.75000  0.12500  Biso   1.000  O
  H18      1.0000 0.30600  0.75000  0.12500  Biso   1.000  H
  O35      1.0000 0.75560  0.25000  0.12500  Biso   1.000  O
  H19      1.0000 0.69400  0.25000  0.12500  Biso   1.000  H
  O36      1.0000 0.25560  0.75000  0.62500  Biso   1.000  O
  H20      1.0000 0.19400  0.75000  0.62500  Biso   1.000  H
  O37      1.0000 0.75000  0.24440  0.87500  Biso   1.000  O
  H21      1.0000 0.75000  0.30600  0.87500  Biso   1.000  H
  O38      1.0000 0.25000  0.74440  0.37500  Biso   1.000  O
  H22      1.0000 0.25000  0.80600  0.37500  Biso   1.000  H
  O39      1.0000 0.75000  0.25560  0.37500  Biso   1.000  O
  H23      1.0000 0.75000  0.19400  0.37500  Biso   1.000  H
  O40      1.0000 0.25000  0.75560  0.87500  Biso   1.000  O
  H24      1.0000 0.25000  0.69400  0.87500  Biso   1.000  H
  C49      1.0000 0.50000  0.50000  0.70370  Biso   1.000  C
  C50      1.0000 0.50000  0.50000  0.93620  Biso   1.000  C
  H25      1.0000 0.50000  0.50000  0.62600  Biso   1.000  H
  C51      1.0000 0.00000  0.00000  0.20370  Biso   1.000  C
  C52      1.0000 0.00000  0.00000  0.43620  Biso   1.000  C
  H26      1.0000 0.00000  0.00000  0.12600  Biso   1.000  H
  C53      1.0000 0.50000  0.00000  0.95370  Biso   1.000  C
  C54      1.0000 0.50000  0.00000  0.18620  Biso   1.000  C
  H27      1.0000 0.50000  0.00000  0.87600  Biso   1.000  H
  C55      1.0000 0.00000  0.50000  0.45370  Biso   1.000  C
  C56      1.0000 0.00000  0.50000  0.68620  Biso   1.000  C
  H28      1.0000 0.00000  0.50000  0.37600  Biso   1.000  H
  C57      1.0000 0.00000  0.50000  0.04630  Biso   1.000  C
  C58      1.0000 0.00000  0.50000  0.81380  Biso   1.000  C
  H29      1.0000 0.00000  0.50000  0.12400  Biso   1.000  H
  C59      1.0000 0.50000  0.00000  0.54630  Biso   1.000  C
  C60      1.0000 0.50000  0.00000  0.31380  Biso   1.000  C
  H30      1.0000 0.50000  0.00000  0.62400  Biso   1.000  H
  C61      1.0000 0.00000  0.00000  0.79630  Biso   1.000  C
  C62      1.0000 0.00000  0.00000  0.56380  Biso   1.000  C
  H31      1.0000 0.00000  0.00000  0.87400  Biso   1.000  H
  C63      1.0000 0.50000  0.50000  0.29630  Biso   1.000  C
  C64      1.0000 0.50000  0.50000  0.06380  Biso   1.000  C
  H32      1.0000 0.50000  0.50000  0.37400  Biso   1.000  H
