data_image0
_cell_length_a       6.843
_cell_length_b       10.978
_cell_length_c       12.687
_cell_angle_alpha    90
_cell_angle_beta     90
_cell_angle_gamma    90

_symmetry_space_group_name_H-M    "P 1"
_symmetry_int_tables_number       1

loop_
  _symmetry_equiv_pos_as_xyz
  'x, y, z'

loop_
  _atom_site_label
  _atom_site_occupancy
  _atom_site_fract_x
  _atom_site_fract_y
  _atom_site_fract_z
  _atom_site_thermal_displace_type
  _atom_site_B_iso_or_equiv
  _atom_site_type_symbol
  N1       1.0000 0.98400  0.89020  0.79180  Biso   1.000  N
  N2       1.0000 0.86520  0.91070  0.53250  Biso   1.000  N
  C1       1.0000 0.98650  0.92410  0.70670  Biso   1.000  C
  C2       1.0000 0.99250  0.96410  0.59840  Biso   1.000  C
  C3       1.0000 0.87390  0.94780  0.43280  Biso   1.000  C
  H1       1.0000 0.78100  0.91210  0.37870  Biso   1.000  H
  N3       1.0000 0.01600  0.39020  0.20820  Biso   1.000  N
  N4       1.0000 0.13480  0.41070  0.46750  Biso   1.000  N
  C4       1.0000 0.01350  0.42410  0.29330  Biso   1.000  C
  C5       1.0000 0.00750  0.46410  0.40160  Biso   1.000  C
  C6       1.0000 0.12610  0.44780  0.56720  Biso   1.000  C
  H2       1.0000 0.21900  0.41210  0.62130  Biso   1.000  H
  N5       1.0000 0.01600  0.10980  0.20820  Biso   1.000  N
  N6       1.0000 0.13480  0.08930  0.46750  Biso   1.000  N
  C7       1.0000 0.01350  0.07590  0.29330  Biso   1.000  C
  C8       1.0000 0.00750  0.03590  0.40160  Biso   1.000  C
  C9       1.0000 0.12610  0.05220  0.56720  Biso   1.000  C
  H3       1.0000 0.21900  0.08790  0.62130  Biso   1.000  H
  N7       1.0000 0.98400  0.60980  0.79180  Biso   1.000  N
  N8       1.0000 0.86520  0.58930  0.53250  Biso   1.000  N
  C10      1.0000 0.98650  0.57590  0.70670  Biso   1.000  C
  C11      1.0000 0.99250  0.53590  0.59840  Biso   1.000  C
  C12      1.0000 0.87390  0.55220  0.43280  Biso   1.000  C
  H4       1.0000 0.78100  0.58790  0.37870  Biso   1.000  H
  Ag1      1.0000 0.87213  0.25000  0.08328  Biso   1.000  Ag
  Ag2      1.0000 0.12787  0.75000  0.91672  Biso   1.000  Ag
  N9       1.0000 0.51600  0.10980  0.29180  Biso   1.000  N
  N10      1.0000 0.63480  0.08930  0.03250  Biso   1.000  N
  C13      1.0000 0.51350  0.07590  0.20670  Biso   1.000  C
  C14      1.0000 0.50750  0.03590  0.09840  Biso   1.000  C
  C15      1.0000 0.62610  0.05220  0.93280  Biso   1.000  C
  H5       1.0000 0.71900  0.08790  0.87870  Biso   1.000  H
  N11      1.0000 0.48400  0.60980  0.70820  Biso   1.000  N
  N12      1.0000 0.36520  0.58930  0.96750  Biso   1.000  N
  C16      1.0000 0.48650  0.57590  0.79330  Biso   1.000  C
  C17      1.0000 0.49250  0.53590  0.90160  Biso   1.000  C
  C18      1.0000 0.37390  0.55220  0.06720  Biso   1.000  C
  H6       1.0000 0.28100  0.58790  0.12130  Biso   1.000  H
  N13      1.0000 0.48400  0.89020  0.70820  Biso   1.000  N
  N14      1.0000 0.36520  0.91070  0.96750  Biso   1.000  N
  C19      1.0000 0.48650  0.92410  0.79330  Biso   1.000  C
  C20      1.0000 0.49250  0.96410  0.90160  Biso   1.000  C
  C21      1.0000 0.37390  0.94780  0.06720  Biso   1.000  C
  H7       1.0000 0.28100  0.91210  0.12130  Biso   1.000  H
  N15      1.0000 0.51600  0.39020  0.29180  Biso   1.000  N
  N16      1.0000 0.63480  0.41070  0.03250  Biso   1.000  N
  C22      1.0000 0.51350  0.42410  0.20670  Biso   1.000  C
  C23      1.0000 0.50750  0.46410  0.09840  Biso   1.000  C
  C24      1.0000 0.62610  0.44780  0.93280  Biso   1.000  C
  H8       1.0000 0.71900  0.41210  0.87870  Biso   1.000  H
  Ag3      1.0000 0.62787  0.75000  0.58328  Biso   1.000  Ag
  Ag4      1.0000 0.37213  0.25000  0.41672  Biso   1.000  Ag
