data_image0
_cell_length_a       27.0083
_cell_length_b       27.0121
_cell_length_c       27.8161
_cell_angle_alpha    90
_cell_angle_beta     90
_cell_angle_gamma    90

_symmetry_space_group_name_H-M    "P 1"
_symmetry_int_tables_number       1

loop_
  _symmetry_equiv_pos_as_xyz
  'x, y, z'

loop_
  _atom_site_label
  _atom_site_occupancy
  _atom_site_fract_x
  _atom_site_fract_y
  _atom_site_fract_z
  _atom_site_thermal_displace_type
  _atom_site_B_iso_or_equiv
  _atom_site_type_symbol
  Mo1      1.0000 0.89929  0.46297  0.03322  Biso   1.000  Mo
  Mo2      1.0000 0.90681  0.51417  0.11279  Biso   1.000  Mo
  Mo3      1.0000 0.94048  0.63620  0.11562  Biso   1.000  Mo
  Mo4      1.0000 0.96458  0.68576  0.01460  Biso   1.000  Mo
  Mo5      1.0000 0.95315  0.61027  0.91561  Biso   1.000  Mo
  Mo6      1.0000 0.92551  0.51719  0.92096  Biso   1.000  Mo
  Mo7      1.0000 0.80707  0.48015  0.94905  Biso   1.000  Mo
  Mo8      1.0000 0.72891  0.56581  0.97266  Biso   1.000  Mo
  Mo9      1.0000 0.77465  0.68350  0.96488  Biso   1.000  Mo
  Mo10     1.0000 0.86491  0.70681  0.94220  Biso   1.000  Mo
  Mo11     1.0000 0.74618  0.62938  0.07855  Biso   1.000  Mo
  Mo12     1.0000 0.81831  0.61074  0.13788  Biso   1.000  Mo
  Zn1      1.0000 0.99472  0.55948  0.02701  Biso   1.000  Zn
  Zn2      1.0000 0.85263  0.71709  0.07045  Biso   1.000  Zn
  Zn3      1.0000 0.82163  0.59015  0.88677  Biso   1.000  Zn
  Zn4      1.0000 0.77900  0.50155  0.06999  Biso   1.000  Zn
  O1       1.0000 0.74160  0.44790  0.09892  Biso   1.000  O
  O2       1.0000 0.77196  0.47477  0.16884  Biso   1.000  O
  O3       1.0000 0.66383  0.28068  0.09811  Biso   1.000  O
  O4       1.0000 0.60648  0.26861  0.15380  Biso   1.000  O
  O5       1.0000 0.69330  0.40755  0.31863  Biso   1.000  O
  O6       1.0000 0.63278  0.35121  0.31180  Biso   1.000  O
  O7       1.0000 0.94834  0.51124  0.05515  Biso   1.000  O
  O8       1.0000 0.84957  0.48574  0.07966  Biso   1.000  O
  O9       1.0000 0.93663  0.46405  0.97068  Biso   1.000  O
  O10      1.0000 0.83867  0.44340  0.99500  Biso   1.000  O
  O11      1.0000 0.94930  0.57137  0.13083  Biso   1.000  O
  O12      1.0000 0.85275  0.54499  0.15683  Biso   1.000  O
  O13      1.0000 0.88292  0.64416  0.14953  Biso   1.000  O
  O14      1.0000 0.91844  0.68920  0.07038  Biso   1.000  O
  O15      1.0000 0.97719  0.62426  0.05374  Biso   1.000  O
  O16      1.0000 0.98914  0.65324  0.96248  Biso   1.000  O
  O17      1.0000 0.92316  0.72720  0.98147  Biso   1.000  O
  O18      1.0000 0.97074  0.55712  0.96000  Biso   1.000  O
  O19      1.0000 0.89297  0.57609  0.89386  Biso   1.000  O
  O20      1.0000 0.91510  0.67394  0.89553  Biso   1.000  O
  O21      1.0000 0.85892  0.48536  0.90780  Biso   1.000  O
  O22      1.0000 0.76368  0.50794  0.00195  Biso   1.000  O
  O23      1.0000 0.78092  0.54526  0.92468  Biso   1.000  O
  O24      1.0000 0.73054  0.62721  0.94520  Biso   1.000  O
  O25      1.0000 0.70976  0.58581  0.03266  Biso   1.000  O
  O26      1.0000 0.81897  0.65754  0.91544  Biso   1.000  O
  O27      1.0000 0.82782  0.71480  0.00261  Biso   1.000  O
  O28      1.0000 0.73494  0.68432  0.02837  Biso   1.000  O
  O29      1.0000 0.77433  0.56700  0.10133  Biso   1.000  O
  O30      1.0000 0.80415  0.66853  0.09736  Biso   1.000  O
  C1       1.0000 0.71448  0.40776  0.16952  Biso   1.000  C
  C2       1.0000 0.69261  0.36982  0.14281  Biso   1.000  C
  H1       1.0000 0.69830  0.36790  0.10920  Biso   1.000  H
  C3       1.0000 0.66260  0.33487  0.16500  Biso   1.000  C
  C4       1.0000 0.65244  0.33930  0.21394  Biso   1.000  C
  H2       1.0000 0.62960  0.31730  0.22870  Biso   1.000  H
  C5       1.0000 0.67560  0.37591  0.24146  Biso   1.000  C
  C6       1.0000 0.70738  0.40924  0.21923  Biso   1.000  C
  H3       1.0000 0.72440  0.43320  0.23800  Biso   1.000  H
  C7       1.0000 0.74561  0.44665  0.14537  Biso   1.000  C
  C8       1.0000 0.64110  0.29164  0.13797  Biso   1.000  C
  C9       1.0000 0.66571  0.37797  0.29459  Biso   1.000  C
  Mo13     1.0000 0.60071  0.53703  0.53322  Biso   1.000  Mo
  Mo14     1.0000 0.59319  0.48583  0.61279  Biso   1.000  Mo
  Mo15     1.0000 0.55952  0.36380  0.61562  Biso   1.000  Mo
  Mo16     1.0000 0.53542  0.31424  0.51460  Biso   1.000  Mo
  Mo17     1.0000 0.54685  0.38973  0.41561  Biso   1.000  Mo
  Mo18     1.0000 0.57449  0.48281  0.42096  Biso   1.000  Mo
  Mo19     1.0000 0.69293  0.51985  0.44905  Biso   1.000  Mo
  Mo20     1.0000 0.77109  0.43419  0.47266  Biso   1.000  Mo
  Mo21     1.0000 0.72535  0.31650  0.46488  Biso   1.000  Mo
  Mo22     1.0000 0.63509  0.29319  0.44220  Biso   1.000  Mo
  Mo23     1.0000 0.75382  0.37062  0.57855  Biso   1.000  Mo
  Mo24     1.0000 0.68169  0.38926  0.63788  Biso   1.000  Mo
  Zn5      1.0000 0.50528  0.44052  0.52701  Biso   1.000  Zn
  Zn6      1.0000 0.64737  0.28291  0.57045  Biso   1.000  Zn
  Zn7      1.0000 0.67837  0.40985  0.38677  Biso   1.000  Zn
  Zn8      1.0000 0.72100  0.49845  0.56999  Biso   1.000  Zn
  O31      1.0000 0.75840  0.55210  0.59892  Biso   1.000  O
  O32      1.0000 0.72804  0.52523  0.66884  Biso   1.000  O
  O33      1.0000 0.83617  0.71932  0.59811  Biso   1.000  O
  O34      1.0000 0.89352  0.73139  0.65380  Biso   1.000  O
  O35      1.0000 0.80670  0.59245  0.81863  Biso   1.000  O
  O36      1.0000 0.86722  0.64879  0.81180  Biso   1.000  O
  O37      1.0000 0.55166  0.48876  0.55515  Biso   1.000  O
  O38      1.0000 0.65043  0.51426  0.57966  Biso   1.000  O
  O39      1.0000 0.56337  0.53595  0.47068  Biso   1.000  O
  O40      1.0000 0.66133  0.55660  0.49500  Biso   1.000  O
  O41      1.0000 0.55070  0.42863  0.63083  Biso   1.000  O
  O42      1.0000 0.64725  0.45501  0.65683  Biso   1.000  O
  O43      1.0000 0.61708  0.35584  0.64953  Biso   1.000  O
  O44      1.0000 0.58156  0.31080  0.57038  Biso   1.000  O
  O45      1.0000 0.52281  0.37574  0.55374  Biso   1.000  O
  O46      1.0000 0.51086  0.34676  0.46248  Biso   1.000  O
  O47      1.0000 0.57684  0.27280  0.48147  Biso   1.000  O
  O48      1.0000 0.52926  0.44288  0.46000  Biso   1.000  O
  O49      1.0000 0.60703  0.42391  0.39386  Biso   1.000  O
  O50      1.0000 0.58490  0.32606  0.39553  Biso   1.000  O
  O51      1.0000 0.64108  0.51464  0.40780  Biso   1.000  O
  O52      1.0000 0.73632  0.49206  0.50195  Biso   1.000  O
  O53      1.0000 0.71908  0.45474  0.42468  Biso   1.000  O
  O54      1.0000 0.76946  0.37279  0.44520  Biso   1.000  O
  O55      1.0000 0.79024  0.41419  0.53266  Biso   1.000  O
  O56      1.0000 0.68103  0.34246  0.41544  Biso   1.000  O
  O57      1.0000 0.67218  0.28520  0.50261  Biso   1.000  O
  O58      1.0000 0.76506  0.31568  0.52837  Biso   1.000  O
  O59      1.0000 0.72567  0.43300  0.60133  Biso   1.000  O
  O60      1.0000 0.69585  0.33147  0.59736  Biso   1.000  O
  C10      1.0000 0.78552  0.59224  0.66952  Biso   1.000  C
  C11      1.0000 0.80739  0.63018  0.64281  Biso   1.000  C
  H4       1.0000 0.80170  0.63210  0.60920  Biso   1.000  H
  C12      1.0000 0.83740  0.66513  0.66500  Biso   1.000  C
  C13      1.0000 0.84756  0.66070  0.71394  Biso   1.000  C
  H5       1.0000 0.87040  0.68270  0.72870  Biso   1.000  H
  C14      1.0000 0.82440  0.62409  0.74146  Biso   1.000  C
  C15      1.0000 0.79262  0.59076  0.71923  Biso   1.000  C
  H6       1.0000 0.77560  0.56680  0.73800  Biso   1.000  H
  C16      1.0000 0.75439  0.55335  0.64537  Biso   1.000  C
  C17      1.0000 0.85890  0.70836  0.63797  Biso   1.000  C
  C18      1.0000 0.83429  0.62203  0.79459  Biso   1.000  C
  Mo25     1.0000 0.10071  0.96297  0.46678  Biso   1.000  Mo
  Mo26     1.0000 0.09319  0.01417  0.38721  Biso   1.000  Mo
  Mo27     1.0000 0.05952  0.13620  0.38438  Biso   1.000  Mo
  Mo28     1.0000 0.03542  0.18576  0.48540  Biso   1.000  Mo
  Mo29     1.0000 0.04685  0.11027  0.58439  Biso   1.000  Mo
  Mo30     1.0000 0.07449  0.01719  0.57904  Biso   1.000  Mo
  Mo31     1.0000 0.19293  0.98015  0.55095  Biso   1.000  Mo
  Mo32     1.0000 0.27109  0.06581  0.52734  Biso   1.000  Mo
  Mo33     1.0000 0.22535  0.18350  0.53512  Biso   1.000  Mo
  Mo34     1.0000 0.13509  0.20681  0.55780  Biso   1.000  Mo
  Mo35     1.0000 0.25382  0.12938  0.42145  Biso   1.000  Mo
  Mo36     1.0000 0.18169  0.11074  0.36212  Biso   1.000  Mo
  Zn9      1.0000 0.00528  0.05948  0.47299  Biso   1.000  Zn
  Zn10     1.0000 0.14737  0.21709  0.42955  Biso   1.000  Zn
  Zn11     1.0000 0.17837  0.09015  0.61323  Biso   1.000  Zn
  Zn12     1.0000 0.22100  0.00155  0.43001  Biso   1.000  Zn
  O61      1.0000 0.25840  0.94790  0.40108  Biso   1.000  O
  O62      1.0000 0.22804  0.97477  0.33116  Biso   1.000  O
  O63      1.0000 0.33617  0.78068  0.40189  Biso   1.000  O
  O64      1.0000 0.39352  0.76861  0.34620  Biso   1.000  O
  O65      1.0000 0.30670  0.90755  0.18137  Biso   1.000  O
  O66      1.0000 0.36722  0.85121  0.18820  Biso   1.000  O
  O67      1.0000 0.05166  0.01124  0.44485  Biso   1.000  O
  O68      1.0000 0.15043  0.98574  0.42034  Biso   1.000  O
  O69      1.0000 0.06337  0.96405  0.52932  Biso   1.000  O
  O70      1.0000 0.16133  0.94340  0.50500  Biso   1.000  O
  O71      1.0000 0.05070  0.07137  0.36917  Biso   1.000  O
  O72      1.0000 0.14725  0.04499  0.34317  Biso   1.000  O
  O73      1.0000 0.11708  0.14416  0.35047  Biso   1.000  O
  O74      1.0000 0.08156  0.18920  0.42962  Biso   1.000  O
  O75      1.0000 0.02281  0.12426  0.44626  Biso   1.000  O
  O76      1.0000 0.01086  0.15324  0.53752  Biso   1.000  O
  O77      1.0000 0.07684  0.22720  0.51853  Biso   1.000  O
  O78      1.0000 0.02926  0.05712  0.54000  Biso   1.000  O
  O79      1.0000 0.10703  0.07609  0.60614  Biso   1.000  O
  O80      1.0000 0.08490  0.17394  0.60447  Biso   1.000  O
  O81      1.0000 0.14108  0.98536  0.59220  Biso   1.000  O
  O82      1.0000 0.23632  0.00794  0.49805  Biso   1.000  O
  O83      1.0000 0.21908  0.04526  0.57532  Biso   1.000  O
  O84      1.0000 0.26946  0.12721  0.55480  Biso   1.000  O
  O85      1.0000 0.29024  0.08581  0.46734  Biso   1.000  O
  O86      1.0000 0.18103  0.15754  0.58456  Biso   1.000  O
  O87      1.0000 0.17218  0.21480  0.49739  Biso   1.000  O
  O88      1.0000 0.26506  0.18432  0.47163  Biso   1.000  O
  O89      1.0000 0.22567  0.06700  0.39867  Biso   1.000  O
  O90      1.0000 0.19585  0.16853  0.40264  Biso   1.000  O
  C19      1.0000 0.28552  0.90776  0.33048  Biso   1.000  C
  C20      1.0000 0.30739  0.86982  0.35719  Biso   1.000  C
  H7       1.0000 0.30170  0.86790  0.39080  Biso   1.000  H
  C21      1.0000 0.33740  0.83487  0.33500  Biso   1.000  C
  C22      1.0000 0.34756  0.83930  0.28606  Biso   1.000  C
  H8       1.0000 0.37040  0.81730  0.27130  Biso   1.000  H
  C23      1.0000 0.32440  0.87591  0.25854  Biso   1.000  C
  C24      1.0000 0.29262  0.90924  0.28077  Biso   1.000  C
  H9       1.0000 0.27560  0.93320  0.26200  Biso   1.000  H
  C25      1.0000 0.25439  0.94665  0.35463  Biso   1.000  C
  C26      1.0000 0.35890  0.79164  0.36203  Biso   1.000  C
  C27      1.0000 0.33429  0.87797  0.20541  Biso   1.000  C
  Mo37     1.0000 0.39929  0.03703  0.96678  Biso   1.000  Mo
  Mo38     1.0000 0.40681  0.98583  0.88721  Biso   1.000  Mo
  Mo39     1.0000 0.44048  0.86380  0.88438  Biso   1.000  Mo
  Mo40     1.0000 0.46458  0.81424  0.98540  Biso   1.000  Mo
  Mo41     1.0000 0.45315  0.88973  0.08439  Biso   1.000  Mo
  Mo42     1.0000 0.42551  0.98281  0.07904  Biso   1.000  Mo
  Mo43     1.0000 0.30707  0.01985  0.05095  Biso   1.000  Mo
  Mo44     1.0000 0.22891  0.93419  0.02734  Biso   1.000  Mo
  Mo45     1.0000 0.27465  0.81650  0.03512  Biso   1.000  Mo
  Mo46     1.0000 0.36491  0.79319  0.05780  Biso   1.000  Mo
  Mo47     1.0000 0.24618  0.87062  0.92145  Biso   1.000  Mo
  Mo48     1.0000 0.31831  0.88926  0.86212  Biso   1.000  Mo
  Zn13     1.0000 0.49472  0.94052  0.97299  Biso   1.000  Zn
  Zn14     1.0000 0.35263  0.78291  0.92955  Biso   1.000  Zn
  Zn15     1.0000 0.32163  0.90985  0.11323  Biso   1.000  Zn
  Zn16     1.0000 0.27900  0.99845  0.93001  Biso   1.000  Zn
  O91      1.0000 0.24160  0.05210  0.90108  Biso   1.000  O
  O92      1.0000 0.27196  0.02523  0.83116  Biso   1.000  O
  O93      1.0000 0.16383  0.21932  0.90189  Biso   1.000  O
  O94      1.0000 0.10648  0.23139  0.84620  Biso   1.000  O
  O95      1.0000 0.19330  0.09245  0.68137  Biso   1.000  O
  O96      1.0000 0.13278  0.14879  0.68820  Biso   1.000  O
  O97      1.0000 0.44834  0.98876  0.94485  Biso   1.000  O
  O98      1.0000 0.34957  0.01426  0.92034  Biso   1.000  O
  O99      1.0000 0.43663  0.03595  0.02932  Biso   1.000  O
  O100     1.0000 0.33867  0.05660  0.00500  Biso   1.000  O
  O101     1.0000 0.44930  0.92863  0.86917  Biso   1.000  O
  O102     1.0000 0.35275  0.95501  0.84317  Biso   1.000  O
  O103     1.0000 0.38292  0.85584  0.85047  Biso   1.000  O
  O104     1.0000 0.41844  0.81080  0.92962  Biso   1.000  O
  O105     1.0000 0.47719  0.87574  0.94626  Biso   1.000  O
  O106     1.0000 0.48914  0.84676  0.03752  Biso   1.000  O
  O107     1.0000 0.42316  0.77280  0.01853  Biso   1.000  O
  O108     1.0000 0.47074  0.94288  0.04000  Biso   1.000  O
  O109     1.0000 0.39297  0.92391  0.10614  Biso   1.000  O
  O110     1.0000 0.41510  0.82606  0.10447  Biso   1.000  O
  O111     1.0000 0.35892  0.01464  0.09220  Biso   1.000  O
  O112     1.0000 0.26368  0.99206  0.99805  Biso   1.000  O
  O113     1.0000 0.28092  0.95474  0.07532  Biso   1.000  O
  O114     1.0000 0.23054  0.87279  0.05480  Biso   1.000  O
  O115     1.0000 0.20976  0.91419  0.96734  Biso   1.000  O
  O116     1.0000 0.31897  0.84246  0.08456  Biso   1.000  O
  O117     1.0000 0.32782  0.78520  0.99739  Biso   1.000  O
  O118     1.0000 0.23494  0.81568  0.97163  Biso   1.000  O
  O119     1.0000 0.27433  0.93300  0.89867  Biso   1.000  O
  O120     1.0000 0.30415  0.83147  0.90264  Biso   1.000  O
  C28      1.0000 0.21448  0.09224  0.83048  Biso   1.000  C
  C29      1.0000 0.19261  0.13018  0.85719  Biso   1.000  C
  H10      1.0000 0.19830  0.13210  0.89080  Biso   1.000  H
  C30      1.0000 0.16260  0.16513  0.83500  Biso   1.000  C
  C31      1.0000 0.15244  0.16070  0.78606  Biso   1.000  C
  H11      1.0000 0.12960  0.18270  0.77130  Biso   1.000  H
  C32      1.0000 0.17560  0.12409  0.75854  Biso   1.000  C
  C33      1.0000 0.20738  0.09076  0.78077  Biso   1.000  C
  H12      1.0000 0.22440  0.06680  0.76200  Biso   1.000  H
  C34      1.0000 0.24561  0.05335  0.85463  Biso   1.000  C
  C35      1.0000 0.14110  0.20836  0.86203  Biso   1.000  C
  C36      1.0000 0.16571  0.12203  0.70541  Biso   1.000  C
  Mo49     1.0000 0.10071  0.53703  0.96678  Biso   1.000  Mo
  Mo50     1.0000 0.09319  0.48583  0.88721  Biso   1.000  Mo
  Mo51     1.0000 0.05952  0.36380  0.88438  Biso   1.000  Mo
  Mo52     1.0000 0.03542  0.31424  0.98540  Biso   1.000  Mo
  Mo53     1.0000 0.04685  0.38973  0.08439  Biso   1.000  Mo
  Mo54     1.0000 0.07449  0.48281  0.07904  Biso   1.000  Mo
  Mo55     1.0000 0.19293  0.51985  0.05095  Biso   1.000  Mo
  Mo56     1.0000 0.27109  0.43419  0.02734  Biso   1.000  Mo
  Mo57     1.0000 0.22535  0.31650  0.03512  Biso   1.000  Mo
  Mo58     1.0000 0.13509  0.29319  0.05780  Biso   1.000  Mo
  Mo59     1.0000 0.25382  0.37062  0.92145  Biso   1.000  Mo
  Mo60     1.0000 0.18169  0.38926  0.86212  Biso   1.000  Mo
  Zn17     1.0000 0.00528  0.44052  0.97299  Biso   1.000  Zn
  Zn18     1.0000 0.14737  0.28291  0.92955  Biso   1.000  Zn
  Zn19     1.0000 0.17837  0.40985  0.11323  Biso   1.000  Zn
  Zn20     1.0000 0.22100  0.49845  0.93001  Biso   1.000  Zn
  O121     1.0000 0.25840  0.55210  0.90108  Biso   1.000  O
  O122     1.0000 0.22804  0.52523  0.83116  Biso   1.000  O
  O123     1.0000 0.33617  0.71932  0.90189  Biso   1.000  O
  O124     1.0000 0.39352  0.73139  0.84620  Biso   1.000  O
  O125     1.0000 0.30670  0.59245  0.68137  Biso   1.000  O
  O126     1.0000 0.36722  0.64879  0.68820  Biso   1.000  O
  O127     1.0000 0.05166  0.48876  0.94485  Biso   1.000  O
  O128     1.0000 0.15043  0.51426  0.92034  Biso   1.000  O
  O129     1.0000 0.06337  0.53595  0.02932  Biso   1.000  O
  O130     1.0000 0.16133  0.55660  0.00500  Biso   1.000  O
  O131     1.0000 0.05070  0.42863  0.86917  Biso   1.000  O
  O132     1.0000 0.14725  0.45501  0.84317  Biso   1.000  O
  O133     1.0000 0.11708  0.35584  0.85047  Biso   1.000  O
  O134     1.0000 0.08156  0.31080  0.92962  Biso   1.000  O
  O135     1.0000 0.02281  0.37574  0.94626  Biso   1.000  O
  O136     1.0000 0.01086  0.34676  0.03752  Biso   1.000  O
  O137     1.0000 0.07684  0.27280  0.01853  Biso   1.000  O
  O138     1.0000 0.02926  0.44288  0.04000  Biso   1.000  O
  O139     1.0000 0.10703  0.42391  0.10614  Biso   1.000  O
  O140     1.0000 0.08490  0.32606  0.10447  Biso   1.000  O
  O141     1.0000 0.14108  0.51464  0.09220  Biso   1.000  O
  O142     1.0000 0.23632  0.49206  0.99805  Biso   1.000  O
  O143     1.0000 0.21908  0.45474  0.07532  Biso   1.000  O
  O144     1.0000 0.26946  0.37279  0.05480  Biso   1.000  O
  O145     1.0000 0.29024  0.41419  0.96734  Biso   1.000  O
  O146     1.0000 0.18103  0.34246  0.08456  Biso   1.000  O
  O147     1.0000 0.17218  0.28520  0.99739  Biso   1.000  O
  O148     1.0000 0.26506  0.31568  0.97163  Biso   1.000  O
  O149     1.0000 0.22567  0.43300  0.89867  Biso   1.000  O
  O150     1.0000 0.19585  0.33147  0.90264  Biso   1.000  O
  C37      1.0000 0.28552  0.59224  0.83048  Biso   1.000  C
  C38      1.0000 0.30739  0.63018  0.85719  Biso   1.000  C
  H13      1.0000 0.30170  0.63210  0.89080  Biso   1.000  H
  C39      1.0000 0.33740  0.66513  0.83500  Biso   1.000  C
  C40      1.0000 0.34756  0.66070  0.78606  Biso   1.000  C
  H14      1.0000 0.37040  0.68270  0.77130  Biso   1.000  H
  C41      1.0000 0.32440  0.62409  0.75854  Biso   1.000  C
  C42      1.0000 0.29262  0.59076  0.78077  Biso   1.000  C
  H15      1.0000 0.27560  0.56680  0.76200  Biso   1.000  H
  C43      1.0000 0.25439  0.55335  0.85463  Biso   1.000  C
  C44      1.0000 0.35890  0.70836  0.86203  Biso   1.000  C
  C45      1.0000 0.33429  0.62203  0.70541  Biso   1.000  C
  Mo61     1.0000 0.39929  0.46297  0.46678  Biso   1.000  Mo
  Mo62     1.0000 0.40681  0.51417  0.38721  Biso   1.000  Mo
  Mo63     1.0000 0.44048  0.63620  0.38438  Biso   1.000  Mo
  Mo64     1.0000 0.46458  0.68576  0.48540  Biso   1.000  Mo
  Mo65     1.0000 0.45315  0.61027  0.58439  Biso   1.000  Mo
  Mo66     1.0000 0.42551  0.51719  0.57904  Biso   1.000  Mo
  Mo67     1.0000 0.30707  0.48015  0.55095  Biso   1.000  Mo
  Mo68     1.0000 0.22891  0.56581  0.52734  Biso   1.000  Mo
  Mo69     1.0000 0.27465  0.68350  0.53512  Biso   1.000  Mo
  Mo70     1.0000 0.36491  0.70681  0.55780  Biso   1.000  Mo
  Mo71     1.0000 0.24618  0.62938  0.42145  Biso   1.000  Mo
  Mo72     1.0000 0.31831  0.61074  0.36212  Biso   1.000  Mo
  Zn21     1.0000 0.49472  0.55948  0.47299  Biso   1.000  Zn
  Zn22     1.0000 0.35263  0.71709  0.42955  Biso   1.000  Zn
  Zn23     1.0000 0.32163  0.59015  0.61323  Biso   1.000  Zn
  Zn24     1.0000 0.27900  0.50155  0.43001  Biso   1.000  Zn
  O151     1.0000 0.24160  0.44790  0.40108  Biso   1.000  O
  O152     1.0000 0.27196  0.47477  0.33116  Biso   1.000  O
  O153     1.0000 0.16383  0.28068  0.40189  Biso   1.000  O
  O154     1.0000 0.10648  0.26861  0.34620  Biso   1.000  O
  O155     1.0000 0.19330  0.40755  0.18137  Biso   1.000  O
  O156     1.0000 0.13278  0.35121  0.18820  Biso   1.000  O
  O157     1.0000 0.44834  0.51124  0.44485  Biso   1.000  O
  O158     1.0000 0.34957  0.48574  0.42034  Biso   1.000  O
  O159     1.0000 0.43663  0.46405  0.52932  Biso   1.000  O
  O160     1.0000 0.33867  0.44340  0.50500  Biso   1.000  O
  O161     1.0000 0.44930  0.57137  0.36917  Biso   1.000  O
  O162     1.0000 0.35275  0.54499  0.34317  Biso   1.000  O
  O163     1.0000 0.38292  0.64416  0.35047  Biso   1.000  O
  O164     1.0000 0.41844  0.68920  0.42962  Biso   1.000  O
  O165     1.0000 0.47719  0.62426  0.44626  Biso   1.000  O
  O166     1.0000 0.48914  0.65324  0.53752  Biso   1.000  O
  O167     1.0000 0.42316  0.72720  0.51853  Biso   1.000  O
  O168     1.0000 0.47074  0.55712  0.54000  Biso   1.000  O
  O169     1.0000 0.39297  0.57609  0.60614  Biso   1.000  O
  O170     1.0000 0.41510  0.67394  0.60447  Biso   1.000  O
  O171     1.0000 0.35892  0.48536  0.59220  Biso   1.000  O
  O172     1.0000 0.26368  0.50794  0.49805  Biso   1.000  O
  O173     1.0000 0.28092  0.54526  0.57532  Biso   1.000  O
  O174     1.0000 0.23054  0.62721  0.55480  Biso   1.000  O
  O175     1.0000 0.20976  0.58581  0.46734  Biso   1.000  O
  O176     1.0000 0.31897  0.65754  0.58456  Biso   1.000  O
  O177     1.0000 0.32782  0.71480  0.49739  Biso   1.000  O
  O178     1.0000 0.23494  0.68432  0.47163  Biso   1.000  O
  O179     1.0000 0.27433  0.56700  0.39867  Biso   1.000  O
  O180     1.0000 0.30415  0.66853  0.40264  Biso   1.000  O
  C46      1.0000 0.21448  0.40776  0.33048  Biso   1.000  C
  C47      1.0000 0.19261  0.36982  0.35719  Biso   1.000  C
  H16      1.0000 0.19830  0.36790  0.39080  Biso   1.000  H
  C48      1.0000 0.16260  0.33487  0.33500  Biso   1.000  C
  C49      1.0000 0.15244  0.33930  0.28606  Biso   1.000  C
  H17      1.0000 0.12960  0.31730  0.27130  Biso   1.000  H
  C50      1.0000 0.17560  0.37591  0.25854  Biso   1.000  C
  C51      1.0000 0.20738  0.40924  0.28077  Biso   1.000  C
  H18      1.0000 0.22440  0.43320  0.26200  Biso   1.000  H
  C52      1.0000 0.24561  0.44665  0.35463  Biso   1.000  C
  C53      1.0000 0.14110  0.29164  0.36203  Biso   1.000  C
  C54      1.0000 0.16571  0.37797  0.20541  Biso   1.000  C
  Mo73     1.0000 0.89929  0.03703  0.53322  Biso   1.000  Mo
  Mo74     1.0000 0.90681  0.98583  0.61279  Biso   1.000  Mo
  Mo75     1.0000 0.94048  0.86380  0.61562  Biso   1.000  Mo
  Mo76     1.0000 0.96458  0.81424  0.51460  Biso   1.000  Mo
  Mo77     1.0000 0.95315  0.88973  0.41561  Biso   1.000  Mo
  Mo78     1.0000 0.92551  0.98281  0.42096  Biso   1.000  Mo
  Mo79     1.0000 0.80707  0.01985  0.44905  Biso   1.000  Mo
  Mo80     1.0000 0.72891  0.93419  0.47266  Biso   1.000  Mo
  Mo81     1.0000 0.77465  0.81650  0.46488  Biso   1.000  Mo
  Mo82     1.0000 0.86491  0.79319  0.44220  Biso   1.000  Mo
  Mo83     1.0000 0.74618  0.87062  0.57855  Biso   1.000  Mo
  Mo84     1.0000 0.81831  0.88926  0.63788  Biso   1.000  Mo
  Zn25     1.0000 0.99472  0.94052  0.52701  Biso   1.000  Zn
  Zn26     1.0000 0.85263  0.78291  0.57045  Biso   1.000  Zn
  Zn27     1.0000 0.82163  0.90985  0.38677  Biso   1.000  Zn
  Zn28     1.0000 0.77900  0.99845  0.56999  Biso   1.000  Zn
  O181     1.0000 0.74160  0.05210  0.59892  Biso   1.000  O
  O182     1.0000 0.77196  0.02523  0.66884  Biso   1.000  O
  O183     1.0000 0.66383  0.21932  0.59811  Biso   1.000  O
  O184     1.0000 0.60648  0.23139  0.65380  Biso   1.000  O
  O185     1.0000 0.69330  0.09245  0.81863  Biso   1.000  O
  O186     1.0000 0.63278  0.14879  0.81180  Biso   1.000  O
  O187     1.0000 0.94834  0.98876  0.55515  Biso   1.000  O
  O188     1.0000 0.84957  0.01426  0.57966  Biso   1.000  O
  O189     1.0000 0.93663  0.03595  0.47068  Biso   1.000  O
  O190     1.0000 0.83867  0.05660  0.49500  Biso   1.000  O
  O191     1.0000 0.94930  0.92863  0.63083  Biso   1.000  O
  O192     1.0000 0.85275  0.95501  0.65683  Biso   1.000  O
  O193     1.0000 0.88292  0.85584  0.64953  Biso   1.000  O
  O194     1.0000 0.91844  0.81080  0.57038  Biso   1.000  O
  O195     1.0000 0.97719  0.87574  0.55374  Biso   1.000  O
  O196     1.0000 0.98914  0.84676  0.46248  Biso   1.000  O
  O197     1.0000 0.92316  0.77280  0.48147  Biso   1.000  O
  O198     1.0000 0.97074  0.94288  0.46000  Biso   1.000  O
  O199     1.0000 0.89297  0.92391  0.39386  Biso   1.000  O
  O200     1.0000 0.91510  0.82606  0.39553  Biso   1.000  O
  O201     1.0000 0.85892  0.01464  0.40780  Biso   1.000  O
  O202     1.0000 0.76368  0.99206  0.50195  Biso   1.000  O
  O203     1.0000 0.78092  0.95474  0.42468  Biso   1.000  O
  O204     1.0000 0.73054  0.87279  0.44520  Biso   1.000  O
  O205     1.0000 0.70976  0.91419  0.53266  Biso   1.000  O
  O206     1.0000 0.81897  0.84246  0.41544  Biso   1.000  O
  O207     1.0000 0.82782  0.78520  0.50261  Biso   1.000  O
  O208     1.0000 0.73494  0.81568  0.52837  Biso   1.000  O
  O209     1.0000 0.77433  0.93300  0.60133  Biso   1.000  O
  O210     1.0000 0.80415  0.83147  0.59736  Biso   1.000  O
  C55      1.0000 0.71448  0.09224  0.66952  Biso   1.000  C
  C56      1.0000 0.69261  0.13018  0.64281  Biso   1.000  C
  H19      1.0000 0.69830  0.13210  0.60920  Biso   1.000  H
  C57      1.0000 0.66260  0.16513  0.66500  Biso   1.000  C
  C58      1.0000 0.65244  0.16070  0.71394  Biso   1.000  C
  H20      1.0000 0.62960  0.18270  0.72870  Biso   1.000  H
  C59      1.0000 0.67560  0.12409  0.74146  Biso   1.000  C
  C60      1.0000 0.70738  0.09076  0.71923  Biso   1.000  C
  H21      1.0000 0.72440  0.06680  0.73800  Biso   1.000  H
  C61      1.0000 0.74561  0.05335  0.64537  Biso   1.000  C
  C62      1.0000 0.64110  0.20836  0.63797  Biso   1.000  C
  C63      1.0000 0.66571  0.12203  0.79459  Biso   1.000  C
  Mo85     1.0000 0.60071  0.96297  0.03322  Biso   1.000  Mo
  Mo86     1.0000 0.59319  0.01417  0.11279  Biso   1.000  Mo
  Mo87     1.0000 0.55952  0.13620  0.11562  Biso   1.000  Mo
  Mo88     1.0000 0.53542  0.18576  0.01460  Biso   1.000  Mo
  Mo89     1.0000 0.54685  0.11027  0.91561  Biso   1.000  Mo
  Mo90     1.0000 0.57449  0.01719  0.92096  Biso   1.000  Mo
  Mo91     1.0000 0.69293  0.98015  0.94905  Biso   1.000  Mo
  Mo92     1.0000 0.77109  0.06581  0.97266  Biso   1.000  Mo
  Mo93     1.0000 0.72535  0.18350  0.96488  Biso   1.000  Mo
  Mo94     1.0000 0.63509  0.20681  0.94220  Biso   1.000  Mo
  Mo95     1.0000 0.75382  0.12938  0.07855  Biso   1.000  Mo
  Mo96     1.0000 0.68169  0.11074  0.13788  Biso   1.000  Mo
  Zn29     1.0000 0.50528  0.05948  0.02701  Biso   1.000  Zn
  Zn30     1.0000 0.64737  0.21709  0.07045  Biso   1.000  Zn
  Zn31     1.0000 0.67837  0.09015  0.88677  Biso   1.000  Zn
  Zn32     1.0000 0.72100  0.00155  0.06999  Biso   1.000  Zn
  O211     1.0000 0.75840  0.94790  0.09892  Biso   1.000  O
  O212     1.0000 0.72804  0.97477  0.16884  Biso   1.000  O
  O213     1.0000 0.83617  0.78068  0.09811  Biso   1.000  O
  O214     1.0000 0.89352  0.76861  0.15380  Biso   1.000  O
  O215     1.0000 0.80670  0.90755  0.31863  Biso   1.000  O
  O216     1.0000 0.86722  0.85121  0.31180  Biso   1.000  O
  O217     1.0000 0.55166  0.01124  0.05515  Biso   1.000  O
  O218     1.0000 0.65043  0.98574  0.07966  Biso   1.000  O
  O219     1.0000 0.56337  0.96405  0.97068  Biso   1.000  O
  O220     1.0000 0.66133  0.94340  0.99500  Biso   1.000  O
  O221     1.0000 0.55070  0.07137  0.13083  Biso   1.000  O
  O222     1.0000 0.64725  0.04499  0.15683  Biso   1.000  O
  O223     1.0000 0.61708  0.14416  0.14953  Biso   1.000  O
  O224     1.0000 0.58156  0.18920  0.07038  Biso   1.000  O
  O225     1.0000 0.52281  0.12426  0.05374  Biso   1.000  O
  O226     1.0000 0.51086  0.15324  0.96248  Biso   1.000  O
  O227     1.0000 0.57684  0.22720  0.98147  Biso   1.000  O
  O228     1.0000 0.52926  0.05712  0.96000  Biso   1.000  O
  O229     1.0000 0.60703  0.07609  0.89386  Biso   1.000  O
  O230     1.0000 0.58490  0.17394  0.89553  Biso   1.000  O
  O231     1.0000 0.64108  0.98536  0.90780  Biso   1.000  O
  O232     1.0000 0.73632  0.00794  0.00195  Biso   1.000  O
  O233     1.0000 0.71908  0.04526  0.92468  Biso   1.000  O
  O234     1.0000 0.76946  0.12721  0.94520  Biso   1.000  O
  O235     1.0000 0.79024  0.08581  0.03266  Biso   1.000  O
  O236     1.0000 0.68103  0.15754  0.91544  Biso   1.000  O
  O237     1.0000 0.67218  0.21480  0.00261  Biso   1.000  O
  O238     1.0000 0.76506  0.18432  0.02837  Biso   1.000  O
  O239     1.0000 0.72567  0.06700  0.10133  Biso   1.000  O
  O240     1.0000 0.69585  0.16853  0.09736  Biso   1.000  O
  C64      1.0000 0.78552  0.90776  0.16952  Biso   1.000  C
  C65      1.0000 0.80739  0.86982  0.14281  Biso   1.000  C
  H22      1.0000 0.80170  0.86790  0.10920  Biso   1.000  H
  C66      1.0000 0.83740  0.83487  0.16500  Biso   1.000  C
  C67      1.0000 0.84756  0.83930  0.21394  Biso   1.000  C
  H23      1.0000 0.87040  0.81730  0.22870  Biso   1.000  H
  C68      1.0000 0.82440  0.87591  0.24146  Biso   1.000  C
  C69      1.0000 0.79262  0.90924  0.21923  Biso   1.000  C
  H24      1.0000 0.77560  0.93320  0.23800  Biso   1.000  H
  C70      1.0000 0.75439  0.94665  0.14537  Biso   1.000  C
  C71      1.0000 0.85890  0.79164  0.13797  Biso   1.000  C
  C72      1.0000 0.83429  0.87797  0.29459  Biso   1.000  C
