data_image0
_cell_length_a       7.434
_cell_length_b       11.927
_cell_length_c       13.255
_cell_angle_alpha    90
_cell_angle_beta     90
_cell_angle_gamma    90

_symmetry_space_group_name_H-M    "P 1"
_symmetry_int_tables_number       1

loop_
  _symmetry_equiv_pos_as_xyz
  'x, y, z'

loop_
  _atom_site_label
  _atom_site_occupancy
  _atom_site_fract_x
  _atom_site_fract_y
  _atom_site_fract_z
  _atom_site_thermal_displace_type
  _atom_site_B_iso_or_equiv
  _atom_site_type_symbol
  N1       1.0000 0.90970  0.40750  0.04060  Biso   1.000  N
  C1       1.0000 0.86300  0.44910  0.95200  Biso   1.000  C
  C2       1.0000 0.04610  0.45790  0.08710  Biso   1.000  C
  N2       1.0000 0.85600  0.87740  0.74120  Biso   1.000  N
  C3       1.0000 0.90090  0.91380  0.81500  Biso   1.000  C
  N3       1.0000 0.09030  0.90750  0.95940  Biso   1.000  N
  C4       1.0000 0.13700  0.94910  0.04800  Biso   1.000  C
  C5       1.0000 0.95390  0.95790  0.91290  Biso   1.000  C
  N4       1.0000 0.14400  0.37740  0.25880  Biso   1.000  N
  C6       1.0000 0.09910  0.41380  0.18500  Biso   1.000  C
  N5       1.0000 0.09030  0.59250  0.95940  Biso   1.000  N
  C7       1.0000 0.13700  0.55090  0.04800  Biso   1.000  C
  C8       1.0000 0.95390  0.54210  0.91290  Biso   1.000  C
  N6       1.0000 0.14400  0.12260  0.25880  Biso   1.000  N
  C9       1.0000 0.09910  0.08620  0.18500  Biso   1.000  C
  N7       1.0000 0.90970  0.09250  0.04060  Biso   1.000  N
  C10      1.0000 0.86300  0.05090  0.95200  Biso   1.000  C
  C11      1.0000 0.04610  0.04210  0.08710  Biso   1.000  C
  N8       1.0000 0.85600  0.62260  0.74120  Biso   1.000  N
  C12      1.0000 0.90090  0.58620  0.81500  Biso   1.000  C
  Ag1      1.0000 0.76617  0.75000  0.60999  Biso   1.000  Ag
  Ag2      1.0000 0.23383  0.25000  0.39001  Biso   1.000  Ag
  N9       1.0000 0.64400  0.12260  0.24120  Biso   1.000  N
  C13      1.0000 0.59910  0.08620  0.31500  Biso   1.000  C
  N10      1.0000 0.59030  0.59250  0.54060  Biso   1.000  N
  C14      1.0000 0.63700  0.55090  0.45200  Biso   1.000  C
  C15      1.0000 0.45390  0.54210  0.58710  Biso   1.000  C
  N11      1.0000 0.35600  0.62260  0.75880  Biso   1.000  N
  C16      1.0000 0.40090  0.58620  0.68500  Biso   1.000  C
  N12      1.0000 0.40970  0.09250  0.45940  Biso   1.000  N
  C17      1.0000 0.36300  0.05090  0.54800  Biso   1.000  C
  C18      1.0000 0.54610  0.04210  0.41290  Biso   1.000  C
  N13      1.0000 0.35600  0.87740  0.75880  Biso   1.000  N
  C19      1.0000 0.40090  0.91380  0.68500  Biso   1.000  C
  N14      1.0000 0.40970  0.40750  0.45940  Biso   1.000  N
  C20      1.0000 0.36300  0.44910  0.54800  Biso   1.000  C
  C21      1.0000 0.54610  0.45790  0.41290  Biso   1.000  C
  N15      1.0000 0.64400  0.37740  0.24120  Biso   1.000  N
  C22      1.0000 0.59910  0.41380  0.31500  Biso   1.000  C
  N16      1.0000 0.59030  0.90750  0.54060  Biso   1.000  N
  C23      1.0000 0.63700  0.94910  0.45200  Biso   1.000  C
  C24      1.0000 0.45390  0.95790  0.58710  Biso   1.000  C
  Ag3      1.0000 0.73383  0.25000  0.10999  Biso   1.000  Ag
  Ag4      1.0000 0.26617  0.75000  0.89001  Biso   1.000  Ag
