data_image0
_cell_length_a       27.0584
_cell_length_b       27.2448
_cell_length_c       27.8802
_cell_angle_alpha    90
_cell_angle_beta     90
_cell_angle_gamma    90

_symmetry_space_group_name_H-M    "P 1"
_symmetry_int_tables_number       1

loop_
  _symmetry_equiv_pos_as_xyz
  'x, y, z'

loop_
  _atom_site_label
  _atom_site_occupancy
  _atom_site_fract_x
  _atom_site_fract_y
  _atom_site_fract_z
  _atom_site_thermal_displace_type
  _atom_site_B_iso_or_equiv
  _atom_site_type_symbol
  O1       1.0000 0.60560  0.89400  0.07460  Biso   1.000  O
  O2       1.0000 0.68360  0.81110  0.09160  Biso   1.000  O
  O3       1.0000 0.90410  0.75120  0.06440  Biso   1.000  O
  O4       1.0000 0.68640  0.86060  0.15480  Biso   1.000  O
  O5       1.0000 0.90340  0.81610  0.23350  Biso   1.000  O
  O6       1.0000 0.83210  0.72150  0.03880  Biso   1.000  O
  C1       1.0000 0.70550  0.83110  0.12760  Biso   1.000  C
  C2       1.0000 0.83180  0.77420  0.10570  Biso   1.000  C
  C3       1.0000 0.85660  0.74660  0.06680  Biso   1.000  C
  C4       1.0000 0.78260  0.82670  0.17800  Biso   1.000  C
  C5       1.0000 0.75770  0.81370  0.13470  Biso   1.000  C
  C6       1.0000 0.85630  0.78780  0.14720  Biso   1.000  C
  H1       1.0000 0.89020  0.77970  0.15090  Biso   1.000  H
  C7       1.0000 0.83200  0.81320  0.18390  Biso   1.000  C
  C8       1.0000 0.78140  0.78680  0.10080  Biso   1.000  C
  H2       1.0000 0.76370  0.77620  0.07320  Biso   1.000  H
  C9       1.0000 0.85630  0.82840  0.23050  Biso   1.000  C
  O7       1.0000 0.83450  0.85050  0.26150  Biso   1.000  O
  H3       1.0000 0.76500  0.85100  0.20500  Biso   1.000  H
  Mo1      1.0000 0.57909  0.92850  0.01875  Biso   1.000  Mo
  Mo2      1.0000 0.57979  0.95035  0.10993  Biso   1.000  Mo
  Mo3      1.0000 0.53328  0.73221  0.05283  Biso   1.000  Mo
  Mo4      1.0000 0.53258  0.76798  0.17123  Biso   1.000  Mo
  Mo5      1.0000 0.42280  0.74146  0.11191  Biso   1.000  Mo
  Mo6      1.0000 0.46770  0.90361  0.96024  Biso   1.000  Mo
  Mo7      1.0000 0.55608  0.81383  0.97370  Biso   1.000  Mo
  Mo8      1.0000 0.35738  0.81056  0.09440  Biso   1.000  Mo
  Mo9      1.0000 0.55284  0.85825  0.19835  Biso   1.000  Mo
  Mo10     1.0000 0.38417  0.90553  0.00797  Biso   1.000  Mo
  Mo11     1.0000 0.37466  0.93161  0.12743  Biso   1.000  Mo
  Mo12     1.0000 0.47554  0.95614  0.17975  Biso   1.000  Mo
  Zn1      1.0000 0.46676  0.99211  0.05993  Biso   1.000  Zn
  Zn2      1.0000 0.43318  0.78174  0.99027  Biso   1.000  Zn
  Zn3      1.0000 0.42121  0.83997  0.20226  Biso   1.000  Zn
  Zn4      1.0000 0.61357  0.82307  0.08666  Biso   1.000  Zn
  P1       1.0000 0.48491  0.85935  0.08328  Biso   1.000  P
  O8       1.0000 0.44190  0.94890  0.00860  Biso   1.000  O
  O9       1.0000 0.47120  0.73120  0.16180  Biso   1.000  O
  O10      1.0000 0.42080  0.85200  0.97750  Biso   1.000  O
  O11      1.0000 0.53200  0.94070  0.96420  Biso   1.000  O
  O12      1.0000 0.50980  0.87140  0.03390  Biso   1.000  O
  O13      1.0000 0.42890  0.87170  0.07920  Biso   1.000  O
  O14      1.0000 0.60080  0.91060  0.16980  Biso   1.000  O
  O15      1.0000 0.59730  0.86650  0.98350  Biso   1.000  O
  O16      1.0000 0.39820  0.79550  0.15120  Biso   1.000  O
  O17      1.0000 0.49260  0.81930  0.20130  Biso   1.000  O
  O18      1.0000 0.39950  0.77130  0.05150  Biso   1.000  O
  O19      1.0000 0.50960  0.84610  0.93870  Biso   1.000  O
  O20      1.0000 0.50350  0.76760  0.99630  Biso   1.000  O
  O21      1.0000 0.34010  0.84870  0.03260  Biso   1.000  O
  O22      1.0000 0.49080  0.80490  0.09540  Biso   1.000  O
  O23      1.0000 0.41950  0.90790  0.17900  Biso   1.000  O
  O24      1.0000 0.53620  0.97050  0.05760  Biso   1.000  O
  O25      1.0000 0.43750  0.97150  0.12030  Biso   1.000  O
  O26      1.0000 0.47200  0.70940  0.06720  Biso   1.000  O
  O27      1.0000 0.58040  0.78670  0.03640  Biso   1.000  O
  O28      1.0000 0.58230  0.81540  0.14940  Biso   1.000  O
  O29      1.0000 0.36170  0.94550  0.06440  Biso   1.000  O
  O30      1.0000 0.52980  0.98470  0.15220  Biso   1.000  O
  O31      1.0000 0.50880  0.91410  0.21890  Biso   1.000  O
  O32      1.0000 0.55860  0.73090  0.11300  Biso   1.000  O
  O33      1.0000 0.34300  0.87370  0.12980  Biso   1.000  O
  O34      1.0000 0.51100  0.89080  0.12260  Biso   1.000  O
  O35      1.0000 0.89440  0.10600  0.57460  Biso   1.000  O
  O36      1.0000 0.81640  0.18890  0.59160  Biso   1.000  O
  O37      1.0000 0.59590  0.24880  0.56440  Biso   1.000  O
  O38      1.0000 0.81360  0.13940  0.65480  Biso   1.000  O
  O39      1.0000 0.59660  0.18390  0.73350  Biso   1.000  O
  O40      1.0000 0.66790  0.27850  0.53880  Biso   1.000  O
  C10      1.0000 0.79450  0.16890  0.62760  Biso   1.000  C
  C11      1.0000 0.66820  0.22580  0.60570  Biso   1.000  C
  C12      1.0000 0.64340  0.25340  0.56680  Biso   1.000  C
  C13      1.0000 0.71740  0.17330  0.67800  Biso   1.000  C
  C14      1.0000 0.74230  0.18630  0.63470  Biso   1.000  C
  C15      1.0000 0.64370  0.21220  0.64720  Biso   1.000  C
  H4       1.0000 0.60980  0.22030  0.65090  Biso   1.000  H
  C16      1.0000 0.66800  0.18680  0.68390  Biso   1.000  C
  C17      1.0000 0.71860  0.21320  0.60080  Biso   1.000  C
  H5       1.0000 0.73630  0.22380  0.57320  Biso   1.000  H
  C18      1.0000 0.64370  0.17160  0.73050  Biso   1.000  C
  O41      1.0000 0.66550  0.14950  0.76150  Biso   1.000  O
  H6       1.0000 0.73500  0.14900  0.70500  Biso   1.000  H
  Mo13     1.0000 0.92091  0.07150  0.51875  Biso   1.000  Mo
  Mo14     1.0000 0.92021  0.04965  0.60993  Biso   1.000  Mo
  Mo15     1.0000 0.96672  0.26779  0.55283  Biso   1.000  Mo
  Mo16     1.0000 0.96742  0.23202  0.67123  Biso   1.000  Mo
  Mo17     1.0000 0.07720  0.25854  0.61191  Biso   1.000  Mo
  Mo18     1.0000 0.03230  0.09639  0.46024  Biso   1.000  Mo
  Mo19     1.0000 0.94392  0.18617  0.47370  Biso   1.000  Mo
  Mo20     1.0000 0.14262  0.18944  0.59440  Biso   1.000  Mo
  Mo21     1.0000 0.94716  0.14175  0.69835  Biso   1.000  Mo
  Mo22     1.0000 0.11583  0.09447  0.50797  Biso   1.000  Mo
  Mo23     1.0000 0.12534  0.06839  0.62743  Biso   1.000  Mo
  Mo24     1.0000 0.02446  0.04386  0.67975  Biso   1.000  Mo
  Zn5      1.0000 0.03324  0.00789  0.55993  Biso   1.000  Zn
  Zn6      1.0000 0.06682  0.21826  0.49027  Biso   1.000  Zn
  Zn7      1.0000 0.07879  0.16003  0.70226  Biso   1.000  Zn
  Zn8      1.0000 0.88643  0.17693  0.58666  Biso   1.000  Zn
  P2       1.0000 0.01509  0.14065  0.58328  Biso   1.000  P
  O42      1.0000 0.05810  0.05110  0.50860  Biso   1.000  O
  O43      1.0000 0.02880  0.26880  0.66180  Biso   1.000  O
  O44      1.0000 0.07920  0.14800  0.47750  Biso   1.000  O
  O45      1.0000 0.96800  0.05930  0.46420  Biso   1.000  O
  O46      1.0000 0.99020  0.12860  0.53390  Biso   1.000  O
  O47      1.0000 0.07110  0.12830  0.57920  Biso   1.000  O
  O48      1.0000 0.89920  0.08940  0.66980  Biso   1.000  O
  O49      1.0000 0.90270  0.13350  0.48350  Biso   1.000  O
  O50      1.0000 0.10180  0.20450  0.65120  Biso   1.000  O
  O51      1.0000 0.00740  0.18070  0.70130  Biso   1.000  O
  O52      1.0000 0.10050  0.22870  0.55150  Biso   1.000  O
  O53      1.0000 0.99040  0.15390  0.43870  Biso   1.000  O
  O54      1.0000 0.99650  0.23240  0.49630  Biso   1.000  O
  O55      1.0000 0.15990  0.15130  0.53260  Biso   1.000  O
  O56      1.0000 0.00920  0.19510  0.59540  Biso   1.000  O
  O57      1.0000 0.08050  0.09210  0.67900  Biso   1.000  O
  O58      1.0000 0.96380  0.02950  0.55760  Biso   1.000  O
  O59      1.0000 0.06250  0.02850  0.62030  Biso   1.000  O
  O60      1.0000 0.02800  0.29060  0.56720  Biso   1.000  O
  O61      1.0000 0.91960  0.21330  0.53640  Biso   1.000  O
  O62      1.0000 0.91770  0.18460  0.64940  Biso   1.000  O
  O63      1.0000 0.13830  0.05450  0.56440  Biso   1.000  O
  O64      1.0000 0.97020  0.01530  0.65220  Biso   1.000  O
  O65      1.0000 0.99120  0.08590  0.71890  Biso   1.000  O
  O66      1.0000 0.94140  0.26910  0.61300  Biso   1.000  O
  O67      1.0000 0.15700  0.12630  0.62980  Biso   1.000  O
  O68      1.0000 0.98900  0.10920  0.62260  Biso   1.000  O
  O69      1.0000 0.39440  0.39400  0.42540  Biso   1.000  O
  O70      1.0000 0.31640  0.31110  0.40840  Biso   1.000  O
  O71      1.0000 0.09590  0.25120  0.43560  Biso   1.000  O
  O72      1.0000 0.31360  0.36060  0.34520  Biso   1.000  O
  O73      1.0000 0.09660  0.31610  0.26650  Biso   1.000  O
  O74      1.0000 0.16790  0.22150  0.46120  Biso   1.000  O
  C19      1.0000 0.29450  0.33110  0.37240  Biso   1.000  C
  C20      1.0000 0.16820  0.27420  0.39430  Biso   1.000  C
  C21      1.0000 0.14340  0.24660  0.43320  Biso   1.000  C
  C22      1.0000 0.21740  0.32670  0.32200  Biso   1.000  C
  C23      1.0000 0.24230  0.31370  0.36530  Biso   1.000  C
  C24      1.0000 0.14370  0.28780  0.35280  Biso   1.000  C
  H7       1.0000 0.10980  0.27970  0.34910  Biso   1.000  H
  C25      1.0000 0.16800  0.31320  0.31610  Biso   1.000  C
  C26      1.0000 0.21860  0.28680  0.39920  Biso   1.000  C
  H8       1.0000 0.23630  0.27620  0.42680  Biso   1.000  H
  C27      1.0000 0.14370  0.32840  0.26950  Biso   1.000  C
  O75      1.0000 0.16550  0.35050  0.23850  Biso   1.000  O
  H9       1.0000 0.23500  0.35100  0.29500  Biso   1.000  H
  Mo25     1.0000 0.42091  0.42850  0.48125  Biso   1.000  Mo
  Mo26     1.0000 0.42021  0.45035  0.39007  Biso   1.000  Mo
  Mo27     1.0000 0.46672  0.23221  0.44717  Biso   1.000  Mo
  Mo28     1.0000 0.46742  0.26798  0.32877  Biso   1.000  Mo
  Mo29     1.0000 0.57720  0.24146  0.38809  Biso   1.000  Mo
  Mo30     1.0000 0.53230  0.40361  0.53976  Biso   1.000  Mo
  Mo31     1.0000 0.44392  0.31383  0.52630  Biso   1.000  Mo
  Mo32     1.0000 0.64262  0.31056  0.40560  Biso   1.000  Mo
  Mo33     1.0000 0.44716  0.35825  0.30165  Biso   1.000  Mo
  Mo34     1.0000 0.61583  0.40553  0.49203  Biso   1.000  Mo
  Mo35     1.0000 0.62534  0.43161  0.37257  Biso   1.000  Mo
  Mo36     1.0000 0.52446  0.45614  0.32025  Biso   1.000  Mo
  Zn9      1.0000 0.53324  0.49211  0.44007  Biso   1.000  Zn
  Zn10     1.0000 0.56682  0.28174  0.50973  Biso   1.000  Zn
  Zn11     1.0000 0.57879  0.33997  0.29774  Biso   1.000  Zn
  Zn12     1.0000 0.38643  0.32307  0.41334  Biso   1.000  Zn
  P3       1.0000 0.51509  0.35935  0.41672  Biso   1.000  P
  O76      1.0000 0.55810  0.44890  0.49140  Biso   1.000  O
  O77      1.0000 0.52880  0.23120  0.33820  Biso   1.000  O
  O78      1.0000 0.57920  0.35200  0.52250  Biso   1.000  O
  O79      1.0000 0.46800  0.44070  0.53580  Biso   1.000  O
  O80      1.0000 0.49020  0.37140  0.46610  Biso   1.000  O
  O81      1.0000 0.57110  0.37170  0.42080  Biso   1.000  O
  O82      1.0000 0.39920  0.41060  0.33020  Biso   1.000  O
  O83      1.0000 0.40270  0.36650  0.51650  Biso   1.000  O
  O84      1.0000 0.60180  0.29550  0.34880  Biso   1.000  O
  O85      1.0000 0.50740  0.31930  0.29870  Biso   1.000  O
  O86      1.0000 0.60050  0.27130  0.44850  Biso   1.000  O
  O87      1.0000 0.49040  0.34610  0.56130  Biso   1.000  O
  O88      1.0000 0.49650  0.26760  0.50370  Biso   1.000  O
  O89      1.0000 0.65990  0.34870  0.46740  Biso   1.000  O
  O90      1.0000 0.50920  0.30490  0.40460  Biso   1.000  O
  O91      1.0000 0.58050  0.40790  0.32100  Biso   1.000  O
  O92      1.0000 0.46380  0.47050  0.44240  Biso   1.000  O
  O93      1.0000 0.56250  0.47150  0.37970  Biso   1.000  O
  O94      1.0000 0.52800  0.20940  0.43280  Biso   1.000  O
  O95      1.0000 0.41960  0.28670  0.46360  Biso   1.000  O
  O96      1.0000 0.41770  0.31540  0.35060  Biso   1.000  O
  O97      1.0000 0.63830  0.44550  0.43560  Biso   1.000  O
  O98      1.0000 0.47020  0.48470  0.34780  Biso   1.000  O
  O99      1.0000 0.49120  0.41410  0.28110  Biso   1.000  O
  O100     1.0000 0.44140  0.23090  0.38700  Biso   1.000  O
  O101     1.0000 0.65700  0.37370  0.37020  Biso   1.000  O
  O102     1.0000 0.48900  0.39080  0.37740  Biso   1.000  O
  O103     1.0000 0.10560  0.60600  0.92540  Biso   1.000  O
  O104     1.0000 0.18360  0.68890  0.90840  Biso   1.000  O
  O105     1.0000 0.40410  0.74880  0.93560  Biso   1.000  O
  O106     1.0000 0.18640  0.63940  0.84520  Biso   1.000  O
  O107     1.0000 0.40340  0.68390  0.76650  Biso   1.000  O
  O108     1.0000 0.33210  0.77850  0.96120  Biso   1.000  O
  C28      1.0000 0.20550  0.66890  0.87240  Biso   1.000  C
  C29      1.0000 0.33180  0.72580  0.89430  Biso   1.000  C
  C30      1.0000 0.35660  0.75340  0.93320  Biso   1.000  C
  C31      1.0000 0.28260  0.67330  0.82200  Biso   1.000  C
  C32      1.0000 0.25770  0.68630  0.86530  Biso   1.000  C
  C33      1.0000 0.35630  0.71220  0.85280  Biso   1.000  C
  H10      1.0000 0.39020  0.72030  0.84910  Biso   1.000  H
  C34      1.0000 0.33200  0.68680  0.81610  Biso   1.000  C
  C35      1.0000 0.28140  0.71320  0.89920  Biso   1.000  C
  H11      1.0000 0.26370  0.72380  0.92680  Biso   1.000  H
  C36      1.0000 0.35630  0.67160  0.76950  Biso   1.000  C
  O109     1.0000 0.33450  0.64950  0.73850  Biso   1.000  O
  H12      1.0000 0.26500  0.64900  0.79500  Biso   1.000  H
  Mo37     1.0000 0.07909  0.57150  0.98125  Biso   1.000  Mo
  Mo38     1.0000 0.07979  0.54965  0.89007  Biso   1.000  Mo
  Mo39     1.0000 0.03328  0.76779  0.94717  Biso   1.000  Mo
  Mo40     1.0000 0.03258  0.73202  0.82877  Biso   1.000  Mo
  Mo41     1.0000 0.92280  0.75854  0.88809  Biso   1.000  Mo
  Mo42     1.0000 0.96770  0.59639  0.03976  Biso   1.000  Mo
  Mo43     1.0000 0.05608  0.68617  0.02630  Biso   1.000  Mo
  Mo44     1.0000 0.85738  0.68944  0.90560  Biso   1.000  Mo
  Mo45     1.0000 0.05284  0.64175  0.80165  Biso   1.000  Mo
  Mo46     1.0000 0.88417  0.59447  0.99203  Biso   1.000  Mo
  Mo47     1.0000 0.87466  0.56839  0.87257  Biso   1.000  Mo
  Mo48     1.0000 0.97554  0.54386  0.82025  Biso   1.000  Mo
  Zn13     1.0000 0.96676  0.50789  0.94007  Biso   1.000  Zn
  Zn14     1.0000 0.93318  0.71826  0.00973  Biso   1.000  Zn
  Zn15     1.0000 0.92121  0.66003  0.79774  Biso   1.000  Zn
  Zn16     1.0000 0.11357  0.67693  0.91334  Biso   1.000  Zn
  P4       1.0000 0.98491  0.64065  0.91672  Biso   1.000  P
  O110     1.0000 0.94190  0.55110  0.99140  Biso   1.000  O
  O111     1.0000 0.97120  0.76880  0.83820  Biso   1.000  O
  O112     1.0000 0.92080  0.64800  0.02250  Biso   1.000  O
  O113     1.0000 0.03200  0.55930  0.03580  Biso   1.000  O
  O114     1.0000 0.00980  0.62860  0.96610  Biso   1.000  O
  O115     1.0000 0.92890  0.62830  0.92080  Biso   1.000  O
  O116     1.0000 0.10080  0.58940  0.83020  Biso   1.000  O
  O117     1.0000 0.09730  0.63350  0.01650  Biso   1.000  O
  O118     1.0000 0.89820  0.70450  0.84880  Biso   1.000  O
  O119     1.0000 0.99260  0.68070  0.79870  Biso   1.000  O
  O120     1.0000 0.89950  0.72870  0.94850  Biso   1.000  O
  O121     1.0000 0.00960  0.65390  0.06130  Biso   1.000  O
  O122     1.0000 0.00350  0.73240  0.00370  Biso   1.000  O
  O123     1.0000 0.84010  0.65130  0.96740  Biso   1.000  O
  O124     1.0000 0.99080  0.69510  0.90460  Biso   1.000  O
  O125     1.0000 0.91950  0.59210  0.82100  Biso   1.000  O
  O126     1.0000 0.03620  0.52950  0.94240  Biso   1.000  O
  O127     1.0000 0.93750  0.52850  0.87970  Biso   1.000  O
  O128     1.0000 0.97200  0.79060  0.93280  Biso   1.000  O
  O129     1.0000 0.08040  0.71330  0.96360  Biso   1.000  O
  O130     1.0000 0.08230  0.68460  0.85060  Biso   1.000  O
  O131     1.0000 0.86170  0.55450  0.93560  Biso   1.000  O
  O132     1.0000 0.02980  0.51530  0.84780  Biso   1.000  O
  O133     1.0000 0.00880  0.58590  0.78110  Biso   1.000  O
  O134     1.0000 0.05860  0.76910  0.88700  Biso   1.000  O
  O135     1.0000 0.84300  0.62630  0.87020  Biso   1.000  O
  O136     1.0000 0.01100  0.60920  0.87740  Biso   1.000  O
  O137     1.0000 0.39440  0.10600  0.92540  Biso   1.000  O
  O138     1.0000 0.31640  0.18890  0.90840  Biso   1.000  O
  O139     1.0000 0.09590  0.24880  0.93560  Biso   1.000  O
  O140     1.0000 0.31360  0.13940  0.84520  Biso   1.000  O
  O141     1.0000 0.09660  0.18390  0.76650  Biso   1.000  O
  O142     1.0000 0.16790  0.27850  0.96120  Biso   1.000  O
  C37      1.0000 0.29450  0.16890  0.87240  Biso   1.000  C
  C38      1.0000 0.16820  0.22580  0.89430  Biso   1.000  C
  C39      1.0000 0.14340  0.25340  0.93320  Biso   1.000  C
  C40      1.0000 0.21740  0.17330  0.82200  Biso   1.000  C
  C41      1.0000 0.24230  0.18630  0.86530  Biso   1.000  C
  C42      1.0000 0.14370  0.21220  0.85280  Biso   1.000  C
  H13      1.0000 0.10980  0.22030  0.84910  Biso   1.000  H
  C43      1.0000 0.16800  0.18680  0.81610  Biso   1.000  C
  C44      1.0000 0.21860  0.21320  0.89920  Biso   1.000  C
  H14      1.0000 0.23630  0.22380  0.92680  Biso   1.000  H
  C45      1.0000 0.14370  0.17160  0.76950  Biso   1.000  C
  O143     1.0000 0.16550  0.14950  0.73850  Biso   1.000  O
  H15      1.0000 0.23500  0.14900  0.79500  Biso   1.000  H
  Mo49     1.0000 0.42091  0.07150  0.98125  Biso   1.000  Mo
  Mo50     1.0000 0.42021  0.04965  0.89007  Biso   1.000  Mo
  Mo51     1.0000 0.46672  0.26779  0.94717  Biso   1.000  Mo
  Mo52     1.0000 0.46742  0.23202  0.82877  Biso   1.000  Mo
  Mo53     1.0000 0.57720  0.25854  0.88809  Biso   1.000  Mo
  Mo54     1.0000 0.53230  0.09639  0.03976  Biso   1.000  Mo
  Mo55     1.0000 0.44392  0.18617  0.02630  Biso   1.000  Mo
  Mo56     1.0000 0.64262  0.18944  0.90560  Biso   1.000  Mo
  Mo57     1.0000 0.44716  0.14175  0.80165  Biso   1.000  Mo
  Mo58     1.0000 0.61583  0.09447  0.99203  Biso   1.000  Mo
  Mo59     1.0000 0.62534  0.06839  0.87257  Biso   1.000  Mo
  Mo60     1.0000 0.52446  0.04386  0.82025  Biso   1.000  Mo
  Zn17     1.0000 0.53324  0.00789  0.94007  Biso   1.000  Zn
  Zn18     1.0000 0.56682  0.21826  0.00973  Biso   1.000  Zn
  Zn19     1.0000 0.57879  0.16003  0.79774  Biso   1.000  Zn
  Zn20     1.0000 0.38643  0.17693  0.91334  Biso   1.000  Zn
  P5       1.0000 0.51509  0.14065  0.91672  Biso   1.000  P
  O144     1.0000 0.55810  0.05110  0.99140  Biso   1.000  O
  O145     1.0000 0.52880  0.26880  0.83820  Biso   1.000  O
  O146     1.0000 0.57920  0.14800  0.02250  Biso   1.000  O
  O147     1.0000 0.46800  0.05930  0.03580  Biso   1.000  O
  O148     1.0000 0.49020  0.12860  0.96610  Biso   1.000  O
  O149     1.0000 0.57110  0.12830  0.92080  Biso   1.000  O
  O150     1.0000 0.39920  0.08940  0.83020  Biso   1.000  O
  O151     1.0000 0.40270  0.13350  0.01650  Biso   1.000  O
  O152     1.0000 0.60180  0.20450  0.84880  Biso   1.000  O
  O153     1.0000 0.50740  0.18070  0.79870  Biso   1.000  O
  O154     1.0000 0.60050  0.22870  0.94850  Biso   1.000  O
  O155     1.0000 0.49040  0.15390  0.06130  Biso   1.000  O
  O156     1.0000 0.49650  0.23240  0.00370  Biso   1.000  O
  O157     1.0000 0.65990  0.15130  0.96740  Biso   1.000  O
  O158     1.0000 0.50920  0.19510  0.90460  Biso   1.000  O
  O159     1.0000 0.58050  0.09210  0.82100  Biso   1.000  O
  O160     1.0000 0.46380  0.02950  0.94240  Biso   1.000  O
  O161     1.0000 0.56250  0.02850  0.87970  Biso   1.000  O
  O162     1.0000 0.52800  0.29060  0.93280  Biso   1.000  O
  O163     1.0000 0.41960  0.21330  0.96360  Biso   1.000  O
  O164     1.0000 0.41770  0.18460  0.85060  Biso   1.000  O
  O165     1.0000 0.63830  0.05450  0.93560  Biso   1.000  O
  O166     1.0000 0.47020  0.01530  0.84780  Biso   1.000  O
  O167     1.0000 0.49120  0.08590  0.78110  Biso   1.000  O
  O168     1.0000 0.44140  0.26910  0.88700  Biso   1.000  O
  O169     1.0000 0.65700  0.12630  0.87020  Biso   1.000  O
  O170     1.0000 0.48900  0.10920  0.87740  Biso   1.000  O
  O171     1.0000 0.10560  0.89400  0.42540  Biso   1.000  O
  O172     1.0000 0.18360  0.81110  0.40840  Biso   1.000  O
  O173     1.0000 0.40410  0.75120  0.43560  Biso   1.000  O
  O174     1.0000 0.18640  0.86060  0.34520  Biso   1.000  O
  O175     1.0000 0.40340  0.81610  0.26650  Biso   1.000  O
  O176     1.0000 0.33210  0.72150  0.46120  Biso   1.000  O
  C46      1.0000 0.20550  0.83110  0.37240  Biso   1.000  C
  C47      1.0000 0.33180  0.77420  0.39430  Biso   1.000  C
  C48      1.0000 0.35660  0.74660  0.43320  Biso   1.000  C
  C49      1.0000 0.28260  0.82670  0.32200  Biso   1.000  C
  C50      1.0000 0.25770  0.81370  0.36530  Biso   1.000  C
  C51      1.0000 0.35630  0.78780  0.35280  Biso   1.000  C
  H16      1.0000 0.39020  0.77970  0.34910  Biso   1.000  H
  C52      1.0000 0.33200  0.81320  0.31610  Biso   1.000  C
  C53      1.0000 0.28140  0.78680  0.39920  Biso   1.000  C
  H17      1.0000 0.26370  0.77620  0.42680  Biso   1.000  H
  C54      1.0000 0.35630  0.82840  0.26950  Biso   1.000  C
  O177     1.0000 0.33450  0.85050  0.23850  Biso   1.000  O
  H18      1.0000 0.26500  0.85100  0.29500  Biso   1.000  H
  Mo61     1.0000 0.07909  0.92850  0.48125  Biso   1.000  Mo
  Mo62     1.0000 0.07979  0.95035  0.39007  Biso   1.000  Mo
  Mo63     1.0000 0.03328  0.73221  0.44717  Biso   1.000  Mo
  Mo64     1.0000 0.03258  0.76798  0.32877  Biso   1.000  Mo
  Mo65     1.0000 0.92280  0.74146  0.38809  Biso   1.000  Mo
  Mo66     1.0000 0.96770  0.90361  0.53976  Biso   1.000  Mo
  Mo67     1.0000 0.05608  0.81383  0.52630  Biso   1.000  Mo
  Mo68     1.0000 0.85738  0.81056  0.40560  Biso   1.000  Mo
  Mo69     1.0000 0.05284  0.85825  0.30165  Biso   1.000  Mo
  Mo70     1.0000 0.88417  0.90553  0.49203  Biso   1.000  Mo
  Mo71     1.0000 0.87466  0.93161  0.37257  Biso   1.000  Mo
  Mo72     1.0000 0.97554  0.95614  0.32025  Biso   1.000  Mo
  Zn21     1.0000 0.96676  0.99211  0.44007  Biso   1.000  Zn
  Zn22     1.0000 0.93318  0.78174  0.50973  Biso   1.000  Zn
  Zn23     1.0000 0.92121  0.83997  0.29774  Biso   1.000  Zn
  Zn24     1.0000 0.11357  0.82307  0.41334  Biso   1.000  Zn
  P6       1.0000 0.98491  0.85935  0.41672  Biso   1.000  P
  O178     1.0000 0.94190  0.94890  0.49140  Biso   1.000  O
  O179     1.0000 0.97120  0.73120  0.33820  Biso   1.000  O
  O180     1.0000 0.92080  0.85200  0.52250  Biso   1.000  O
  O181     1.0000 0.03200  0.94070  0.53580  Biso   1.000  O
  O182     1.0000 0.00980  0.87140  0.46610  Biso   1.000  O
  O183     1.0000 0.92890  0.87170  0.42080  Biso   1.000  O
  O184     1.0000 0.10080  0.91060  0.33020  Biso   1.000  O
  O185     1.0000 0.09730  0.86650  0.51650  Biso   1.000  O
  O186     1.0000 0.89820  0.79550  0.34880  Biso   1.000  O
  O187     1.0000 0.99260  0.81930  0.29870  Biso   1.000  O
  O188     1.0000 0.89950  0.77130  0.44850  Biso   1.000  O
  O189     1.0000 0.00960  0.84610  0.56130  Biso   1.000  O
  O190     1.0000 0.00350  0.76760  0.50370  Biso   1.000  O
  O191     1.0000 0.84010  0.84870  0.46740  Biso   1.000  O
  O192     1.0000 0.99080  0.80490  0.40460  Biso   1.000  O
  O193     1.0000 0.91950  0.90790  0.32100  Biso   1.000  O
  O194     1.0000 0.03620  0.97050  0.44240  Biso   1.000  O
  O195     1.0000 0.93750  0.97150  0.37970  Biso   1.000  O
  O196     1.0000 0.97200  0.70940  0.43280  Biso   1.000  O
  O197     1.0000 0.08040  0.78670  0.46360  Biso   1.000  O
  O198     1.0000 0.08230  0.81540  0.35060  Biso   1.000  O
  O199     1.0000 0.86170  0.94550  0.43560  Biso   1.000  O
  O200     1.0000 0.02980  0.98470  0.34780  Biso   1.000  O
  O201     1.0000 0.00880  0.91410  0.28110  Biso   1.000  O
  O202     1.0000 0.05860  0.73090  0.38700  Biso   1.000  O
  O203     1.0000 0.84300  0.87370  0.37020  Biso   1.000  O
  O204     1.0000 0.01100  0.89080  0.37740  Biso   1.000  O
  O205     1.0000 0.60560  0.60600  0.57460  Biso   1.000  O
  O206     1.0000 0.68360  0.68890  0.59160  Biso   1.000  O
  O207     1.0000 0.90410  0.74880  0.56440  Biso   1.000  O
  O208     1.0000 0.68640  0.63940  0.65480  Biso   1.000  O
  O209     1.0000 0.90340  0.68390  0.73350  Biso   1.000  O
  O210     1.0000 0.83210  0.77850  0.53880  Biso   1.000  O
  C55      1.0000 0.70550  0.66890  0.62760  Biso   1.000  C
  C56      1.0000 0.83180  0.72580  0.60570  Biso   1.000  C
  C57      1.0000 0.85660  0.75340  0.56680  Biso   1.000  C
  C58      1.0000 0.78260  0.67330  0.67800  Biso   1.000  C
  C59      1.0000 0.75770  0.68630  0.63470  Biso   1.000  C
  C60      1.0000 0.85630  0.71220  0.64720  Biso   1.000  C
  H19      1.0000 0.89020  0.72030  0.65090  Biso   1.000  H
  C61      1.0000 0.83200  0.68680  0.68390  Biso   1.000  C
  C62      1.0000 0.78140  0.71320  0.60080  Biso   1.000  C
  H20      1.0000 0.76370  0.72380  0.57320  Biso   1.000  H
  C63      1.0000 0.85630  0.67160  0.73050  Biso   1.000  C
  O211     1.0000 0.83450  0.64950  0.76150  Biso   1.000  O
  H21      1.0000 0.76500  0.64900  0.70500  Biso   1.000  H
  Mo73     1.0000 0.57909  0.57150  0.51875  Biso   1.000  Mo
  Mo74     1.0000 0.57979  0.54965  0.60993  Biso   1.000  Mo
  Mo75     1.0000 0.53328  0.76779  0.55283  Biso   1.000  Mo
  Mo76     1.0000 0.53258  0.73202  0.67123  Biso   1.000  Mo
  Mo77     1.0000 0.42280  0.75854  0.61191  Biso   1.000  Mo
  Mo78     1.0000 0.46770  0.59639  0.46024  Biso   1.000  Mo
  Mo79     1.0000 0.55608  0.68617  0.47370  Biso   1.000  Mo
  Mo80     1.0000 0.35738  0.68944  0.59440  Biso   1.000  Mo
  Mo81     1.0000 0.55284  0.64175  0.69835  Biso   1.000  Mo
  Mo82     1.0000 0.38417  0.59447  0.50797  Biso   1.000  Mo
  Mo83     1.0000 0.37466  0.56839  0.62743  Biso   1.000  Mo
  Mo84     1.0000 0.47554  0.54386  0.67975  Biso   1.000  Mo
  Zn25     1.0000 0.46676  0.50789  0.55993  Biso   1.000  Zn
  Zn26     1.0000 0.43318  0.71826  0.49027  Biso   1.000  Zn
  Zn27     1.0000 0.42121  0.66003  0.70226  Biso   1.000  Zn
  Zn28     1.0000 0.61357  0.67693  0.58666  Biso   1.000  Zn
  P7       1.0000 0.48491  0.64065  0.58328  Biso   1.000  P
  O212     1.0000 0.44190  0.55110  0.50860  Biso   1.000  O
  O213     1.0000 0.47120  0.76880  0.66180  Biso   1.000  O
  O214     1.0000 0.42080  0.64800  0.47750  Biso   1.000  O
  O215     1.0000 0.53200  0.55930  0.46420  Biso   1.000  O
  O216     1.0000 0.50980  0.62860  0.53390  Biso   1.000  O
  O217     1.0000 0.42890  0.62830  0.57920  Biso   1.000  O
  O218     1.0000 0.60080  0.58940  0.66980  Biso   1.000  O
  O219     1.0000 0.59730  0.63350  0.48350  Biso   1.000  O
  O220     1.0000 0.39820  0.70450  0.65120  Biso   1.000  O
  O221     1.0000 0.49260  0.68070  0.70130  Biso   1.000  O
  O222     1.0000 0.39950  0.72870  0.55150  Biso   1.000  O
  O223     1.0000 0.50960  0.65390  0.43870  Biso   1.000  O
  O224     1.0000 0.50350  0.73240  0.49630  Biso   1.000  O
  O225     1.0000 0.34010  0.65130  0.53260  Biso   1.000  O
  O226     1.0000 0.49080  0.69510  0.59540  Biso   1.000  O
  O227     1.0000 0.41950  0.59210  0.67900  Biso   1.000  O
  O228     1.0000 0.53620  0.52950  0.55760  Biso   1.000  O
  O229     1.0000 0.43750  0.52850  0.62030  Biso   1.000  O
  O230     1.0000 0.47200  0.79060  0.56720  Biso   1.000  O
  O231     1.0000 0.58040  0.71330  0.53640  Biso   1.000  O
  O232     1.0000 0.58230  0.68460  0.64940  Biso   1.000  O
  O233     1.0000 0.36170  0.55450  0.56440  Biso   1.000  O
  O234     1.0000 0.52980  0.51530  0.65220  Biso   1.000  O
  O235     1.0000 0.50880  0.58590  0.71890  Biso   1.000  O
  O236     1.0000 0.55860  0.76910  0.61300  Biso   1.000  O
  O237     1.0000 0.34300  0.62630  0.62980  Biso   1.000  O
  O238     1.0000 0.51100  0.60920  0.62260  Biso   1.000  O
  O239     1.0000 0.89440  0.39400  0.07460  Biso   1.000  O
  O240     1.0000 0.81640  0.31110  0.09160  Biso   1.000  O
  O241     1.0000 0.59590  0.25120  0.06440  Biso   1.000  O
  O242     1.0000 0.81360  0.36060  0.15480  Biso   1.000  O
  O243     1.0000 0.59660  0.31610  0.23350  Biso   1.000  O
  O244     1.0000 0.66790  0.22150  0.03880  Biso   1.000  O
  C64      1.0000 0.79450  0.33110  0.12760  Biso   1.000  C
  C65      1.0000 0.66820  0.27420  0.10570  Biso   1.000  C
  C66      1.0000 0.64340  0.24660  0.06680  Biso   1.000  C
  C67      1.0000 0.71740  0.32670  0.17800  Biso   1.000  C
  C68      1.0000 0.74230  0.31370  0.13470  Biso   1.000  C
  C69      1.0000 0.64370  0.28780  0.14720  Biso   1.000  C
  H22      1.0000 0.60980  0.27970  0.15090  Biso   1.000  H
  C70      1.0000 0.66800  0.31320  0.18390  Biso   1.000  C
  C71      1.0000 0.71860  0.28680  0.10080  Biso   1.000  C
  H23      1.0000 0.73630  0.27620  0.07320  Biso   1.000  H
  C72      1.0000 0.64370  0.32840  0.23050  Biso   1.000  C
  O245     1.0000 0.66550  0.35050  0.26150  Biso   1.000  O
  H24      1.0000 0.73500  0.35100  0.20500  Biso   1.000  H
  Mo85     1.0000 0.92091  0.42850  0.01875  Biso   1.000  Mo
  Mo86     1.0000 0.92021  0.45035  0.10993  Biso   1.000  Mo
  Mo87     1.0000 0.96672  0.23221  0.05283  Biso   1.000  Mo
  Mo88     1.0000 0.96742  0.26798  0.17123  Biso   1.000  Mo
  Mo89     1.0000 0.07720  0.24146  0.11191  Biso   1.000  Mo
  Mo90     1.0000 0.03230  0.40361  0.96024  Biso   1.000  Mo
  Mo91     1.0000 0.94392  0.31383  0.97370  Biso   1.000  Mo
  Mo92     1.0000 0.14262  0.31056  0.09440  Biso   1.000  Mo
  Mo93     1.0000 0.94716  0.35825  0.19835  Biso   1.000  Mo
  Mo94     1.0000 0.11583  0.40553  0.00797  Biso   1.000  Mo
  Mo95     1.0000 0.12534  0.43161  0.12743  Biso   1.000  Mo
  Mo96     1.0000 0.02446  0.45614  0.17975  Biso   1.000  Mo
  Zn29     1.0000 0.03324  0.49211  0.05993  Biso   1.000  Zn
  Zn30     1.0000 0.06682  0.28174  0.99027  Biso   1.000  Zn
  Zn31     1.0000 0.07879  0.33997  0.20226  Biso   1.000  Zn
  Zn32     1.0000 0.88643  0.32307  0.08666  Biso   1.000  Zn
  P8       1.0000 0.01509  0.35935  0.08328  Biso   1.000  P
  O246     1.0000 0.05810  0.44890  0.00860  Biso   1.000  O
  O247     1.0000 0.02880  0.23120  0.16180  Biso   1.000  O
  O248     1.0000 0.07920  0.35200  0.97750  Biso   1.000  O
  O249     1.0000 0.96800  0.44070  0.96420  Biso   1.000  O
  O250     1.0000 0.99020  0.37140  0.03390  Biso   1.000  O
  O251     1.0000 0.07110  0.37170  0.07920  Biso   1.000  O
  O252     1.0000 0.89920  0.41060  0.16980  Biso   1.000  O
  O253     1.0000 0.90270  0.36650  0.98350  Biso   1.000  O
  O254     1.0000 0.10180  0.29550  0.15120  Biso   1.000  O
  O255     1.0000 0.00740  0.31930  0.20130  Biso   1.000  O
  O256     1.0000 0.10050  0.27130  0.05150  Biso   1.000  O
  O257     1.0000 0.99040  0.34610  0.93870  Biso   1.000  O
  O258     1.0000 0.99650  0.26760  0.99630  Biso   1.000  O
  O259     1.0000 0.15990  0.34870  0.03260  Biso   1.000  O
  O260     1.0000 0.00920  0.30490  0.09540  Biso   1.000  O
  O261     1.0000 0.08050  0.40790  0.17900  Biso   1.000  O
  O262     1.0000 0.96380  0.47050  0.05760  Biso   1.000  O
  O263     1.0000 0.06250  0.47150  0.12030  Biso   1.000  O
  O264     1.0000 0.02800  0.20940  0.06720  Biso   1.000  O
  O265     1.0000 0.91960  0.28670  0.03640  Biso   1.000  O
  O266     1.0000 0.91770  0.31540  0.14940  Biso   1.000  O
  O267     1.0000 0.13830  0.44550  0.06440  Biso   1.000  O
  O268     1.0000 0.97020  0.48470  0.15220  Biso   1.000  O
  O269     1.0000 0.99120  0.41410  0.21890  Biso   1.000  O
  O270     1.0000 0.94140  0.23090  0.11300  Biso   1.000  O
  O271     1.0000 0.15700  0.37370  0.12980  Biso   1.000  O
  O272     1.0000 0.98900  0.39080  0.12260  Biso   1.000  O
