data_image0
_cell_length_a       9.506
_cell_length_b       15.482
_cell_length_c       12.498
_cell_angle_alpha    90
_cell_angle_beta     94.954
_cell_angle_gamma    90

_symmetry_space_group_name_H-M    "P 1"
_symmetry_int_tables_number       1

loop_
  _symmetry_equiv_pos_as_xyz
  'x, y, z'

loop_
  _atom_site_label
  _atom_site_occupancy
  _atom_site_fract_x
  _atom_site_fract_y
  _atom_site_fract_z
  _atom_site_thermal_displace_type
  _atom_site_B_iso_or_equiv
  _atom_site_type_symbol
  Zn1      1.0000 0.14014  0.08367  0.45719  Biso   1.000  Zn
  C1       1.0000 0.27180  0.88980  0.68540  Biso   1.000  C
  C2       1.0000 0.41020  0.90210  0.66160  Biso   1.000  C
  H1       1.0000 0.43110  0.94430  0.61240  Biso   1.000  H
  C3       1.0000 0.51830  0.85140  0.71160  Biso   1.000  C
  C4       1.0000 0.48700  0.79090  0.78790  Biso   1.000  C
  H2       1.0000 0.55910  0.75780  0.82200  Biso   1.000  H
  C5       1.0000 0.34840  0.77910  0.81410  Biso   1.000  C
  C6       1.0000 0.24170  0.82840  0.76180  Biso   1.000  C
  H3       1.0000 0.14880  0.82040  0.77790  Biso   1.000  H
  C7       1.0000 0.15250  0.93600  0.62060  Biso   1.000  C
  C8       1.0000 0.66600  0.85850  0.67560  Biso   1.000  C
  C9       1.0000 0.31270  0.71030  0.89280  Biso   1.000  C
  O1       1.0000 0.18690  0.97960  0.54330  Biso   1.000  O
  O2       1.0000 0.02920  0.92380  0.64530  Biso   1.000  O
  O3       1.0000 0.18950  0.68940  0.89910  Biso   1.000  O
  O4       1.0000 0.41630  0.67580  0.94830  Biso   1.000  O
  O5       1.0000 0.75190  0.79960  0.69830  Biso   1.000  O
  O6       1.0000 0.69040  0.92290  0.61920  Biso   1.000  O
  Zn2      1.0000 0.35986  0.58367  0.04281  Biso   1.000  Zn
  C10      1.0000 0.22820  0.38980  0.81460  Biso   1.000  C
  C11      1.0000 0.08980  0.40210  0.83840  Biso   1.000  C
  H4       1.0000 0.06890  0.44430  0.88760  Biso   1.000  H
  C12      1.0000 0.98170  0.35140  0.78840  Biso   1.000  C
  C13      1.0000 0.01300  0.29090  0.71210  Biso   1.000  C
  H5       1.0000 0.94090  0.25780  0.67800  Biso   1.000  H
  C14      1.0000 0.15160  0.27910  0.68590  Biso   1.000  C
  C15      1.0000 0.25830  0.32840  0.73820  Biso   1.000  C
  H6       1.0000 0.35120  0.32040  0.72210  Biso   1.000  H
  C16      1.0000 0.34750  0.43600  0.87940  Biso   1.000  C
  C17      1.0000 0.83400  0.35850  0.82440  Biso   1.000  C
  C18      1.0000 0.18730  0.21030  0.60720  Biso   1.000  C
  O7       1.0000 0.31310  0.47960  0.95670  Biso   1.000  O
  O8       1.0000 0.47080  0.42380  0.85470  Biso   1.000  O
  O9       1.0000 0.31050  0.18940  0.60090  Biso   1.000  O
  O10      1.0000 0.08370  0.17580  0.55170  Biso   1.000  O
  O11      1.0000 0.74810  0.29960  0.80170  Biso   1.000  O
  O12      1.0000 0.80960  0.42290  0.88080  Biso   1.000  O
  Zn3      1.0000 0.85986  0.91633  0.54281  Biso   1.000  Zn
  C19      1.0000 0.72820  0.11020  0.31460  Biso   1.000  C
  C20      1.0000 0.58980  0.09790  0.33840  Biso   1.000  C
  H7       1.0000 0.56890  0.05570  0.38760  Biso   1.000  H
  C21      1.0000 0.48170  0.14860  0.28840  Biso   1.000  C
  C22      1.0000 0.51300  0.20910  0.21210  Biso   1.000  C
  H8       1.0000 0.44090  0.24220  0.17800  Biso   1.000  H
  C23      1.0000 0.65160  0.22090  0.18590  Biso   1.000  C
  C24      1.0000 0.75830  0.17160  0.23820  Biso   1.000  C
  H9       1.0000 0.85120  0.17960  0.22210  Biso   1.000  H
  C25      1.0000 0.84750  0.06400  0.37940  Biso   1.000  C
  C26      1.0000 0.33400  0.14150  0.32440  Biso   1.000  C
  C27      1.0000 0.68730  0.28970  0.10720  Biso   1.000  C
  O13      1.0000 0.81310  0.02040  0.45670  Biso   1.000  O
  O14      1.0000 0.97080  0.07620  0.35470  Biso   1.000  O
  O15      1.0000 0.81050  0.31060  0.10090  Biso   1.000  O
  O16      1.0000 0.58370  0.32420  0.05170  Biso   1.000  O
  O17      1.0000 0.24810  0.20040  0.30170  Biso   1.000  O
  O18      1.0000 0.30960  0.07710  0.38080  Biso   1.000  O
  Zn4      1.0000 0.64014  0.41633  0.95719  Biso   1.000  Zn
  C28      1.0000 0.77180  0.61020  0.18540  Biso   1.000  C
  C29      1.0000 0.91020  0.59790  0.16160  Biso   1.000  C
  H10      1.0000 0.93110  0.55570  0.11240  Biso   1.000  H
  C30      1.0000 0.01830  0.64860  0.21160  Biso   1.000  C
  C31      1.0000 0.98700  0.70910  0.28790  Biso   1.000  C
  H11      1.0000 0.05910  0.74220  0.32200  Biso   1.000  H
  C32      1.0000 0.84840  0.72090  0.31410  Biso   1.000  C
  C33      1.0000 0.74170  0.67160  0.26180  Biso   1.000  C
  H12      1.0000 0.64880  0.67960  0.27790  Biso   1.000  H
  C34      1.0000 0.65250  0.56400  0.12060  Biso   1.000  C
  C35      1.0000 0.16600  0.64150  0.17560  Biso   1.000  C
  C36      1.0000 0.81270  0.78970  0.39280  Biso   1.000  C
  O19      1.0000 0.68690  0.52040  0.04330  Biso   1.000  O
  O20      1.0000 0.52920  0.57620  0.14530  Biso   1.000  O
  O21      1.0000 0.68950  0.81060  0.39910  Biso   1.000  O
  O22      1.0000 0.91630  0.82420  0.44830  Biso   1.000  O
  O23      1.0000 0.25190  0.70040  0.19830  Biso   1.000  O
  O24      1.0000 0.19040  0.57710  0.11920  Biso   1.000  O
