data_image0
_cell_length_a       11.279
_cell_length_b       10.679
_cell_length_c       15.428
_cell_angle_alpha    90
_cell_angle_beta     95.276
_cell_angle_gamma    90

_symmetry_space_group_name_H-M    "P 1"
_symmetry_int_tables_number       1

loop_
  _symmetry_equiv_pos_as_xyz
  'x, y, z'

loop_
  _atom_site_label
  _atom_site_occupancy
  _atom_site_fract_x
  _atom_site_fract_y
  _atom_site_fract_z
  _atom_site_thermal_displace_type
  _atom_site_B_iso_or_equiv
  _atom_site_type_symbol
  Co1      1.0000 0.84900  0.54034  0.01117  Biso   1.000  Co
  O1       1.0000 0.91110  0.41260  0.09665  Biso   1.000  O
  O2       1.0000 0.10980  0.38740  0.10118  Biso   1.000  O
  O3       1.0000 0.22750  0.07870  0.44710  Biso   1.000  O
  O4       1.0000 0.32450  0.15050  0.33640  Biso   1.000  O
  O5       1.0000 0.78640  0.11890  0.43131  Biso   1.000  O
  O6       1.0000 0.70620  0.27900  0.35090  Biso   1.000  O
  C1       1.0000 0.01080  0.29980  0.21410  Biso   1.000  C
  C2       1.0000 0.11580  0.25040  0.25420  Biso   1.000  C
  H1       1.0000 0.18660  0.26170  0.22870  Biso   1.000  H
  C3       1.0000 0.11660  0.18440  0.33180  Biso   1.000  C
  C4       1.0000 0.01020  0.16670  0.36920  Biso   1.000  C
  H2       1.0000 0.01010  0.12000  0.42010  Biso   1.000  H
  C5       1.0000 0.90350  0.21770  0.33160  Biso   1.000  C
  C6       1.0000 0.90490  0.28240  0.25320  Biso   1.000  C
  H3       1.0000 0.83420  0.31460  0.22640  Biso   1.000  H
  C7       1.0000 0.00970  0.37150  0.12990  Biso   1.000  C
  C8       1.0000 0.23290  0.13480  0.37440  Biso   1.000  C
  C9       1.0000 0.78800  0.20480  0.37360  Biso   1.000  C
  Co2      1.0000 0.65100  0.04034  0.48883  Biso   1.000  Co
  O7       1.0000 0.58890  0.91260  0.40335  Biso   1.000  O
  O8       1.0000 0.39020  0.88740  0.39882  Biso   1.000  O
  O9       1.0000 0.27250  0.57870  0.05290  Biso   1.000  O
  O10      1.0000 0.17550  0.65050  0.16360  Biso   1.000  O
  O11      1.0000 0.71360  0.61890  0.06869  Biso   1.000  O
  O12      1.0000 0.79380  0.77900  0.14910  Biso   1.000  O
  C10      1.0000 0.48920  0.79980  0.28590  Biso   1.000  C
  C11      1.0000 0.38420  0.75040  0.24580  Biso   1.000  C
  H4       1.0000 0.31340  0.76170  0.27130  Biso   1.000  H
  C12      1.0000 0.38340  0.68440  0.16820  Biso   1.000  C
  C13      1.0000 0.48980  0.66670  0.13080  Biso   1.000  C
  H5       1.0000 0.48990  0.62000  0.07990  Biso   1.000  H
  C14      1.0000 0.59650  0.71770  0.16840  Biso   1.000  C
  C15      1.0000 0.59510  0.78240  0.24680  Biso   1.000  C
  H6       1.0000 0.66580  0.81460  0.27360  Biso   1.000  H
  C16      1.0000 0.49030  0.87150  0.37010  Biso   1.000  C
  C17      1.0000 0.26710  0.63480  0.12560  Biso   1.000  C
  C18      1.0000 0.71200  0.70480  0.12640  Biso   1.000  C
  Co3      1.0000 0.15100  0.45966  0.98883  Biso   1.000  Co
  O13      1.0000 0.08890  0.58740  0.90335  Biso   1.000  O
  O14      1.0000 0.89020  0.61260  0.89882  Biso   1.000  O
  O15      1.0000 0.77250  0.92130  0.55290  Biso   1.000  O
  O16      1.0000 0.67550  0.84950  0.66360  Biso   1.000  O
  O17      1.0000 0.21360  0.88110  0.56869  Biso   1.000  O
  O18      1.0000 0.29380  0.72100  0.64910  Biso   1.000  O
  C19      1.0000 0.98920  0.70020  0.78590  Biso   1.000  C
  C20      1.0000 0.88420  0.74960  0.74580  Biso   1.000  C
  H7       1.0000 0.81340  0.73830  0.77130  Biso   1.000  H
  C21      1.0000 0.88340  0.81560  0.66820  Biso   1.000  C
  C22      1.0000 0.98980  0.83330  0.63080  Biso   1.000  C
  H8       1.0000 0.98990  0.88000  0.57990  Biso   1.000  H
  C23      1.0000 0.09650  0.78230  0.66840  Biso   1.000  C
  C24      1.0000 0.09510  0.71760  0.74680  Biso   1.000  C
  H9       1.0000 0.16580  0.68540  0.77360  Biso   1.000  H
  C25      1.0000 0.99030  0.62850  0.87010  Biso   1.000  C
  C26      1.0000 0.76710  0.86520  0.62560  Biso   1.000  C
  C27      1.0000 0.21200  0.79520  0.62640  Biso   1.000  C
  Co4      1.0000 0.34900  0.95966  0.51117  Biso   1.000  Co
  O19      1.0000 0.41110  0.08740  0.59665  Biso   1.000  O
  O20      1.0000 0.60980  0.11260  0.60118  Biso   1.000  O
  O21      1.0000 0.72750  0.42130  0.94710  Biso   1.000  O
  O22      1.0000 0.82450  0.34950  0.83640  Biso   1.000  O
  O23      1.0000 0.28640  0.38110  0.93131  Biso   1.000  O
  O24      1.0000 0.20620  0.22100  0.85090  Biso   1.000  O
  C28      1.0000 0.51080  0.20020  0.71410  Biso   1.000  C
  C29      1.0000 0.61580  0.24960  0.75420  Biso   1.000  C
  H10      1.0000 0.68660  0.23830  0.72870  Biso   1.000  H
  C30      1.0000 0.61660  0.31560  0.83180  Biso   1.000  C
  C31      1.0000 0.51020  0.33330  0.86920  Biso   1.000  C
  H11      1.0000 0.51010  0.38000  0.92010  Biso   1.000  H
  C32      1.0000 0.40350  0.28230  0.83160  Biso   1.000  C
  C33      1.0000 0.40490  0.21760  0.75320  Biso   1.000  C
  H12      1.0000 0.33420  0.18540  0.72640  Biso   1.000  H
  C34      1.0000 0.50970  0.12850  0.62990  Biso   1.000  C
  C35      1.0000 0.73290  0.36520  0.87440  Biso   1.000  C
  C36      1.0000 0.28800  0.29520  0.87360  Biso   1.000  C
