data_image0
_cell_length_a       17.4164
_cell_length_b       14.2453
_cell_length_c       20.4424
_cell_angle_alpha    90
_cell_angle_beta     114.512
_cell_angle_gamma    90

_symmetry_space_group_name_H-M    "P 1"
_symmetry_int_tables_number       1

loop_
  _symmetry_equiv_pos_as_xyz
  'x, y, z'

loop_
  _atom_site_label
  _atom_site_occupancy
  _atom_site_fract_x
  _atom_site_fract_y
  _atom_site_fract_z
  _atom_site_thermal_displace_type
  _atom_site_B_iso_or_equiv
  _atom_site_type_symbol
  Eu1      1.0000 0.20785  0.88692  0.20392  Biso   1.000  Eu
  C1       1.0000 0.35710  0.46570  0.24170  Biso   1.000  C
  C2       1.0000 0.47480  0.39000  0.21950  Biso   1.000  C
  H1       1.0000 0.50700  0.44360  0.23830  Biso   1.000  H
  O1       1.0000 0.64190  0.38950  0.23500  Biso   1.000  O
  N1       1.0000 0.25900  0.02150  0.14730  Biso   1.000  N
  O2       1.0000 0.40570  0.52920  0.27720  Biso   1.000  O
  O3       1.0000 0.27970  0.46400  0.22780  Biso   1.000  O
  C3       1.0000 0.39330  0.38560  0.21350  Biso   1.000  C
  O4       1.0000 0.24980  0.79700  0.12490  Biso   1.000  O
  C4       1.0000 0.25370  0.56170  0.05940  Biso   1.000  C
  H2       1.0000 0.25620  0.52850  0.09940  Biso   1.000  H
  C5       1.0000 0.29280  0.10000  0.17890  Biso   1.000  C
  H3       1.0000 0.28880  0.12290  0.21990  Biso   1.000  H
  N2       1.0000 0.33430  0.14370  0.14510  Biso   1.000  N
  C6       1.0000 0.25390  0.66010  0.06010  Biso   1.000  C
  C7       1.0000 0.34420  0.30550  0.18620  Biso   1.000  C
  H4       1.0000 0.28860  0.30290  0.18080  Biso   1.000  H
  O5       1.0000 0.62720  0.24590  0.18780  Biso   1.000  O
  C8       1.0000 0.32240  0.08750  0.08860  Biso   1.000  C
  H5       1.0000 0.34310  0.10010  0.05430  Biso   1.000  H
  N3       1.0000 0.21630  0.26720  0.01050  Biso   1.000  N
  C9       1.0000 0.46290  0.23360  0.17180  Biso   1.000  C
  H6       1.0000 0.48590  0.18250  0.15800  Biso   1.000  H
  O6       1.0000 0.27230  0.65920  0.18060  Biso   1.000  O
  C10      1.0000 0.50940  0.31480  0.19730  Biso   1.000  C
  C11      1.0000 0.25850  0.70920  0.12690  Biso   1.000  C
  C12      1.0000 0.38120  0.22980  0.16720  Biso   1.000  C
  C13      1.0000 0.60090  0.31800  0.20850  Biso   1.000  C
  N4       1.0000 0.27870  0.01400  0.08820  Biso   1.000  N
  C14      1.0000 0.19930  0.35340  0.01620  Biso   1.000  C
  H7       1.0000 0.15720  0.37310  0.02990  Biso   1.000  H
  Eu2      1.0000 0.70785  0.38692  0.70392  Biso   1.000  Eu
  C15      1.0000 0.85710  0.96570  0.74170  Biso   1.000  C
  C16      1.0000 0.97480  0.89000  0.71950  Biso   1.000  C
  H8       1.0000 0.00700  0.94360  0.73830  Biso   1.000  H
  O7       1.0000 0.14190  0.88950  0.73500  Biso   1.000  O
  N5       1.0000 0.75900  0.52150  0.64730  Biso   1.000  N
  O8       1.0000 0.90570  0.02920  0.77720  Biso   1.000  O
  O9       1.0000 0.77970  0.96400  0.72780  Biso   1.000  O
  C17      1.0000 0.89330  0.88560  0.71350  Biso   1.000  C
  O10      1.0000 0.74980  0.29700  0.62490  Biso   1.000  O
  C18      1.0000 0.75370  0.06170  0.55940  Biso   1.000  C
  H9       1.0000 0.75620  0.02850  0.59940  Biso   1.000  H
  C19      1.0000 0.79280  0.60000  0.67890  Biso   1.000  C
  H10      1.0000 0.78880  0.62290  0.71990  Biso   1.000  H
  N6       1.0000 0.83430  0.64370  0.64510  Biso   1.000  N
  C20      1.0000 0.75390  0.16010  0.56010  Biso   1.000  C
  C21      1.0000 0.84420  0.80550  0.68620  Biso   1.000  C
  H11      1.0000 0.78860  0.80290  0.68080  Biso   1.000  H
  O11      1.0000 0.12720  0.74590  0.68780  Biso   1.000  O
  C22      1.0000 0.82240  0.58750  0.58860  Biso   1.000  C
  H12      1.0000 0.84310  0.60010  0.55430  Biso   1.000  H
  N7       1.0000 0.71630  0.76720  0.51050  Biso   1.000  N
  C23      1.0000 0.96290  0.73360  0.67180  Biso   1.000  C
  H13      1.0000 0.98590  0.68250  0.65800  Biso   1.000  H
  O12      1.0000 0.77230  0.15920  0.68060  Biso   1.000  O
  C24      1.0000 0.00940  0.81480  0.69730  Biso   1.000  C
  C25      1.0000 0.75850  0.20920  0.62690  Biso   1.000  C
  C26      1.0000 0.88120  0.72980  0.66720  Biso   1.000  C
  C27      1.0000 0.10090  0.81800  0.70850  Biso   1.000  C
  N8       1.0000 0.77870  0.51400  0.58820  Biso   1.000  N
  C28      1.0000 0.69930  0.85340  0.51620  Biso   1.000  C
  H14      1.0000 0.65720  0.87310  0.52990  Biso   1.000  H
  Eu3      1.0000 0.29215  0.88692  0.79608  Biso   1.000  Eu
  C29      1.0000 0.14290  0.46570  0.75830  Biso   1.000  C
  C30      1.0000 0.02520  0.39000  0.78050  Biso   1.000  C
  H15      1.0000 0.99300  0.44360  0.76170  Biso   1.000  H
  O13      1.0000 0.85810  0.38950  0.76500  Biso   1.000  O
  N9       1.0000 0.24100  0.02150  0.85270  Biso   1.000  N
  O14      1.0000 0.09430  0.52920  0.72280  Biso   1.000  O
  O15      1.0000 0.22030  0.46400  0.77220  Biso   1.000  O
  C31      1.0000 0.10670  0.38560  0.78650  Biso   1.000  C
  O16      1.0000 0.25020  0.79700  0.87510  Biso   1.000  O
  C32      1.0000 0.24630  0.56170  0.94060  Biso   1.000  C
  H16      1.0000 0.24380  0.52850  0.90060  Biso   1.000  H
  C33      1.0000 0.20720  0.10000  0.82110  Biso   1.000  C
  H17      1.0000 0.21120  0.12290  0.78010  Biso   1.000  H
  N10      1.0000 0.16570  0.14370  0.85490  Biso   1.000  N
  C34      1.0000 0.24610  0.66010  0.93990  Biso   1.000  C
  C35      1.0000 0.15580  0.30550  0.81380  Biso   1.000  C
  H18      1.0000 0.21140  0.30290  0.81920  Biso   1.000  H
  O17      1.0000 0.87280  0.24590  0.81220  Biso   1.000  O
  C36      1.0000 0.17760  0.08750  0.91140  Biso   1.000  C
  H19      1.0000 0.15690  0.10010  0.94570  Biso   1.000  H
  N11      1.0000 0.28370  0.26720  0.98950  Biso   1.000  N
  C37      1.0000 0.03710  0.23360  0.82820  Biso   1.000  C
  H20      1.0000 0.01410  0.18250  0.84200  Biso   1.000  H
  O18      1.0000 0.22770  0.65920  0.81940  Biso   1.000  O
  C38      1.0000 0.99060  0.31480  0.80270  Biso   1.000  C
  C39      1.0000 0.24150  0.70920  0.87310  Biso   1.000  C
  C40      1.0000 0.11880  0.22980  0.83280  Biso   1.000  C
  C41      1.0000 0.89910  0.31800  0.79150  Biso   1.000  C
  N12      1.0000 0.22130  0.01400  0.91180  Biso   1.000  N
  C42      1.0000 0.30070  0.35340  0.98380  Biso   1.000  C
  H21      1.0000 0.34280  0.37310  0.97010  Biso   1.000  H
  Eu4      1.0000 0.79215  0.38692  0.29608  Biso   1.000  Eu
  C43      1.0000 0.64290  0.96570  0.25830  Biso   1.000  C
  C44      1.0000 0.52520  0.89000  0.28050  Biso   1.000  C
  H22      1.0000 0.49300  0.94360  0.26170  Biso   1.000  H
  O19      1.0000 0.35810  0.88950  0.26500  Biso   1.000  O
  N13      1.0000 0.74100  0.52150  0.35270  Biso   1.000  N
  O20      1.0000 0.59430  0.02920  0.22280  Biso   1.000  O
  O21      1.0000 0.72030  0.96400  0.27220  Biso   1.000  O
  C45      1.0000 0.60670  0.88560  0.28650  Biso   1.000  C
  O22      1.0000 0.75020  0.29700  0.37510  Biso   1.000  O
  C46      1.0000 0.74630  0.06170  0.44060  Biso   1.000  C
  H23      1.0000 0.74380  0.02850  0.40060  Biso   1.000  H
  C47      1.0000 0.70720  0.60000  0.32110  Biso   1.000  C
  H24      1.0000 0.71120  0.62290  0.28010  Biso   1.000  H
  N14      1.0000 0.66570  0.64370  0.35490  Biso   1.000  N
  C48      1.0000 0.74610  0.16010  0.43990  Biso   1.000  C
  C49      1.0000 0.65580  0.80550  0.31380  Biso   1.000  C
  H25      1.0000 0.71140  0.80290  0.31920  Biso   1.000  H
  O23      1.0000 0.37280  0.74590  0.31220  Biso   1.000  O
  C50      1.0000 0.67760  0.58750  0.41140  Biso   1.000  C
  H26      1.0000 0.65690  0.60010  0.44570  Biso   1.000  H
  N15      1.0000 0.78370  0.76720  0.48950  Biso   1.000  N
  C51      1.0000 0.53710  0.73360  0.32820  Biso   1.000  C
  H27      1.0000 0.51410  0.68250  0.34200  Biso   1.000  H
  O24      1.0000 0.72770  0.15920  0.31940  Biso   1.000  O
  C52      1.0000 0.49060  0.81480  0.30270  Biso   1.000  C
  C53      1.0000 0.74150  0.20920  0.37310  Biso   1.000  C
  C54      1.0000 0.61880  0.72980  0.33280  Biso   1.000  C
  C55      1.0000 0.39910  0.81800  0.29150  Biso   1.000  C
  N16      1.0000 0.72130  0.51400  0.41180  Biso   1.000  N
  C56      1.0000 0.80070  0.85340  0.48380  Biso   1.000  C
  H28      1.0000 0.84280  0.87310  0.47010  Biso   1.000  H
  Eu5      1.0000 0.79215  0.11308  0.79608  Biso   1.000  Eu
  C57      1.0000 0.64290  0.53430  0.75830  Biso   1.000  C
  C58      1.0000 0.52520  0.61000  0.78050  Biso   1.000  C
  H29      1.0000 0.49300  0.55640  0.76170  Biso   1.000  H
  O25      1.0000 0.35810  0.61050  0.76500  Biso   1.000  O
  N17      1.0000 0.74100  0.97850  0.85270  Biso   1.000  N
  O26      1.0000 0.59430  0.47080  0.72280  Biso   1.000  O
  O27      1.0000 0.72030  0.53600  0.77220  Biso   1.000  O
  C59      1.0000 0.60670  0.61440  0.78650  Biso   1.000  C
  O28      1.0000 0.75020  0.20300  0.87510  Biso   1.000  O
  C60      1.0000 0.74630  0.43830  0.94060  Biso   1.000  C
  H30      1.0000 0.74380  0.47150  0.90060  Biso   1.000  H
  C61      1.0000 0.70720  0.90000  0.82110  Biso   1.000  C
  H31      1.0000 0.71120  0.87710  0.78010  Biso   1.000  H
  N18      1.0000 0.66570  0.85630  0.85490  Biso   1.000  N
  C62      1.0000 0.74610  0.33990  0.93990  Biso   1.000  C
  C63      1.0000 0.65580  0.69450  0.81380  Biso   1.000  C
  H32      1.0000 0.71140  0.69710  0.81920  Biso   1.000  H
  O29      1.0000 0.37280  0.75410  0.81220  Biso   1.000  O
  C64      1.0000 0.67760  0.91250  0.91140  Biso   1.000  C
  H33      1.0000 0.65690  0.89990  0.94570  Biso   1.000  H
  N19      1.0000 0.78370  0.73280  0.98950  Biso   1.000  N
  C65      1.0000 0.53710  0.76640  0.82820  Biso   1.000  C
  H34      1.0000 0.51410  0.81750  0.84200  Biso   1.000  H
  O30      1.0000 0.72770  0.34080  0.81940  Biso   1.000  O
  C66      1.0000 0.49060  0.68520  0.80270  Biso   1.000  C
  C67      1.0000 0.74150  0.29080  0.87310  Biso   1.000  C
  C68      1.0000 0.61880  0.77020  0.83280  Biso   1.000  C
  C69      1.0000 0.39910  0.68200  0.79150  Biso   1.000  C
  N20      1.0000 0.72130  0.98600  0.91180  Biso   1.000  N
  C70      1.0000 0.80070  0.64660  0.98380  Biso   1.000  C
  H35      1.0000 0.84280  0.62690  0.97010  Biso   1.000  H
  Eu6      1.0000 0.29215  0.61308  0.29608  Biso   1.000  Eu
  C71      1.0000 0.14290  0.03430  0.25830  Biso   1.000  C
  C72      1.0000 0.02520  0.11000  0.28050  Biso   1.000  C
  H36      1.0000 0.99300  0.05640  0.26170  Biso   1.000  H
  O31      1.0000 0.85810  0.11050  0.26500  Biso   1.000  O
  N21      1.0000 0.24100  0.47850  0.35270  Biso   1.000  N
  O32      1.0000 0.09430  0.97080  0.22280  Biso   1.000  O
  O33      1.0000 0.22030  0.03600  0.27220  Biso   1.000  O
  C73      1.0000 0.10670  0.11440  0.28650  Biso   1.000  C
  O34      1.0000 0.25020  0.70300  0.37510  Biso   1.000  O
  C74      1.0000 0.24630  0.93830  0.44060  Biso   1.000  C
  H37      1.0000 0.24380  0.97150  0.40060  Biso   1.000  H
  C75      1.0000 0.20720  0.40000  0.32110  Biso   1.000  C
  H38      1.0000 0.21120  0.37710  0.28010  Biso   1.000  H
  N22      1.0000 0.16570  0.35630  0.35490  Biso   1.000  N
  C76      1.0000 0.24610  0.83990  0.43990  Biso   1.000  C
  C77      1.0000 0.15580  0.19450  0.31380  Biso   1.000  C
  H39      1.0000 0.21140  0.19710  0.31920  Biso   1.000  H
  O35      1.0000 0.87280  0.25410  0.31220  Biso   1.000  O
  C78      1.0000 0.17760  0.41250  0.41140  Biso   1.000  C
  H40      1.0000 0.15690  0.39990  0.44570  Biso   1.000  H
  N23      1.0000 0.28370  0.23280  0.48950  Biso   1.000  N
  C79      1.0000 0.03710  0.26640  0.32820  Biso   1.000  C
  H41      1.0000 0.01410  0.31750  0.34200  Biso   1.000  H
  O36      1.0000 0.22770  0.84080  0.31940  Biso   1.000  O
  C80      1.0000 0.99060  0.18520  0.30270  Biso   1.000  C
  C81      1.0000 0.24150  0.79080  0.37310  Biso   1.000  C
  C82      1.0000 0.11880  0.27020  0.33280  Biso   1.000  C
  C83      1.0000 0.89910  0.18200  0.29150  Biso   1.000  C
  N24      1.0000 0.22130  0.48600  0.41180  Biso   1.000  N
  C84      1.0000 0.30070  0.14660  0.48380  Biso   1.000  C
  H42      1.0000 0.34280  0.12690  0.47010  Biso   1.000  H
  Eu7      1.0000 0.70785  0.11308  0.20392  Biso   1.000  Eu
  C85      1.0000 0.85710  0.53430  0.24170  Biso   1.000  C
  C86      1.0000 0.97480  0.61000  0.21950  Biso   1.000  C
  H43      1.0000 0.00700  0.55640  0.23830  Biso   1.000  H
  O37      1.0000 0.14190  0.61050  0.23500  Biso   1.000  O
  N25      1.0000 0.75900  0.97850  0.14730  Biso   1.000  N
  O38      1.0000 0.90570  0.47080  0.27720  Biso   1.000  O
  O39      1.0000 0.77970  0.53600  0.22780  Biso   1.000  O
  C87      1.0000 0.89330  0.61440  0.21350  Biso   1.000  C
  O40      1.0000 0.74980  0.20300  0.12490  Biso   1.000  O
  C88      1.0000 0.75370  0.43830  0.05940  Biso   1.000  C
  H44      1.0000 0.75620  0.47150  0.09940  Biso   1.000  H
  C89      1.0000 0.79280  0.90000  0.17890  Biso   1.000  C
  H45      1.0000 0.78880  0.87710  0.21990  Biso   1.000  H
  N26      1.0000 0.83430  0.85630  0.14510  Biso   1.000  N
  C90      1.0000 0.75390  0.33990  0.06010  Biso   1.000  C
  C91      1.0000 0.84420  0.69450  0.18620  Biso   1.000  C
  H46      1.0000 0.78860  0.69710  0.18080  Biso   1.000  H
  O41      1.0000 0.12720  0.75410  0.18780  Biso   1.000  O
  C92      1.0000 0.82240  0.91250  0.08860  Biso   1.000  C
  H47      1.0000 0.84310  0.89990  0.05430  Biso   1.000  H
  N27      1.0000 0.71630  0.73280  0.01050  Biso   1.000  N
  C93      1.0000 0.96290  0.76640  0.17180  Biso   1.000  C
  H48      1.0000 0.98590  0.81750  0.15800  Biso   1.000  H
  O42      1.0000 0.77230  0.34080  0.18060  Biso   1.000  O
  C94      1.0000 0.00940  0.68520  0.19730  Biso   1.000  C
  C95      1.0000 0.75850  0.29080  0.12690  Biso   1.000  C
  C96      1.0000 0.88120  0.77020  0.16720  Biso   1.000  C
  C97      1.0000 0.10090  0.68200  0.20850  Biso   1.000  C
  N28      1.0000 0.77870  0.98600  0.08820  Biso   1.000  N
  C98      1.0000 0.69930  0.64660  0.01620  Biso   1.000  C
  H49      1.0000 0.65720  0.62690  0.02990  Biso   1.000  H
  Eu8      1.0000 0.20785  0.61308  0.70392  Biso   1.000  Eu
  C99      1.0000 0.35710  0.03430  0.74170  Biso   1.000  C
  C100     1.0000 0.47480  0.11000  0.71950  Biso   1.000  C
  H50      1.0000 0.50700  0.05640  0.73830  Biso   1.000  H
  O43      1.0000 0.64190  0.11050  0.73500  Biso   1.000  O
  N29      1.0000 0.25900  0.47850  0.64730  Biso   1.000  N
  O44      1.0000 0.40570  0.97080  0.77720  Biso   1.000  O
  O45      1.0000 0.27970  0.03600  0.72780  Biso   1.000  O
  C101     1.0000 0.39330  0.11440  0.71350  Biso   1.000  C
  O46      1.0000 0.24980  0.70300  0.62490  Biso   1.000  O
  C102     1.0000 0.25370  0.93830  0.55940  Biso   1.000  C
  H51      1.0000 0.25620  0.97150  0.59940  Biso   1.000  H
  C103     1.0000 0.29280  0.40000  0.67890  Biso   1.000  C
  H52      1.0000 0.28880  0.37710  0.71990  Biso   1.000  H
  N30      1.0000 0.33430  0.35630  0.64510  Biso   1.000  N
  C104     1.0000 0.25390  0.83990  0.56010  Biso   1.000  C
  C105     1.0000 0.34420  0.19450  0.68620  Biso   1.000  C
  H53      1.0000 0.28860  0.19710  0.68080  Biso   1.000  H
  O47      1.0000 0.62720  0.25410  0.68780  Biso   1.000  O
  C106     1.0000 0.32240  0.41250  0.58860  Biso   1.000  C
  H54      1.0000 0.34310  0.39990  0.55430  Biso   1.000  H
  N31      1.0000 0.21630  0.23280  0.51050  Biso   1.000  N
  C107     1.0000 0.46290  0.26640  0.67180  Biso   1.000  C
  H55      1.0000 0.48590  0.31750  0.65800  Biso   1.000  H
  O48      1.0000 0.27230  0.84080  0.68060  Biso   1.000  O
  C108     1.0000 0.50940  0.18520  0.69730  Biso   1.000  C
  C109     1.0000 0.25850  0.79080  0.62690  Biso   1.000  C
  C110     1.0000 0.38120  0.27020  0.66720  Biso   1.000  C
  C111     1.0000 0.60090  0.18200  0.70850  Biso   1.000  C
  N32      1.0000 0.27870  0.48600  0.58820  Biso   1.000  N
  C112     1.0000 0.19930  0.14660  0.51620  Biso   1.000  C
  H56      1.0000 0.15720  0.12690  0.52990  Biso   1.000  H
  C113     1.0000 0.25000  0.51460  0.00000  Biso   1.000  C
  N33      1.0000 0.25000  0.41310  0.00000  Biso   1.000  N
  C114     1.0000 0.25000  0.70680  0.00000  Biso   1.000  C
  H57      1.0000 0.25000  0.77210  0.00000  Biso   1.000  H
  C115     1.0000 0.75000  0.01460  0.50000  Biso   1.000  C
  N34      1.0000 0.75000  0.91310  0.50000  Biso   1.000  N
  C116     1.0000 0.75000  0.20680  0.50000  Biso   1.000  C
  H58      1.0000 0.75000  0.27210  0.50000  Biso   1.000  H
  C117     1.0000 0.75000  0.48540  0.00000  Biso   1.000  C
  N35      1.0000 0.75000  0.58690  0.00000  Biso   1.000  N
  C118     1.0000 0.75000  0.29320  0.00000  Biso   1.000  C
  H59      1.0000 0.75000  0.22790  0.00000  Biso   1.000  H
  C119     1.0000 0.25000  0.98540  0.50000  Biso   1.000  C
  N36      1.0000 0.25000  0.08690  0.50000  Biso   1.000  N
  C120     1.0000 0.25000  0.79320  0.50000  Biso   1.000  C
  H60      1.0000 0.25000  0.72790  0.50000  Biso   1.000  H
