data_XAPTUE_clean
_audit_creation_date              2014-07-02
_audit_creation_method            'Materials Studio'
_symmetry_space_group_name_H-M    'P1'
_symmetry_Int_Tables_number       1
_symmetry_cell_setting            triclinic
loop_
_symmetry_equiv_pos_as_xyz
  x,y,z
_cell_length_a                    10.6879
_cell_length_b                    10.6879
_cell_length_c                    18.6791
_cell_angle_alpha                 74.2053
_cell_angle_beta                  74.2053
_cell_angle_gamma                 64.7005
loop_
_atom_site_label
_atom_site_type_symbol
_atom_site_fract_x
_atom_site_fract_y
_atom_site_fract_z
_atom_site_U_iso_or_equiv
_atom_site_adp_type
_atom_site_occupancy
Gd1    Gd    0.55809   0.43825   0.10218   0.01267  Uiso   1.00
Gd2    Gd    0.56175   0.44191   0.39782   0.01267  Uiso   1.00
Gd3    Gd    0.44191   0.56175   0.89782   0.01267  Uiso   1.00
Gd4    Gd    0.43825   0.55809   0.60218   0.01267  Uiso   1.00
H1     H     0.47180   0.11540   0.22940   0.01267  Uiso   1.00
H2     H     0.53600   0.79120   0.08910   0.01267  Uiso   1.00
H3     H     0.37880   0.21060   0.43860   0.01267  Uiso   1.00
H4     H     0.36850   0.98970   0.49260   0.01267  Uiso   1.00
H5     H     0.44100   0.01880   0.88480   0.01267  Uiso   1.00
H6     H     0.46450   0.89370   0.28370   0.01267  Uiso   1.00
H7     H     0.88460   0.52820   0.27060   0.01267  Uiso   1.00
H8     H     0.20880   0.46400   0.41090   0.01267  Uiso   1.00
H9     H     0.78940   0.62120   0.06140   0.01267  Uiso   1.00
H10    H     0.01030   0.63150   0.00740   0.01267  Uiso   1.00
H11    H     0.98120   0.55900   0.61520   0.01267  Uiso   1.00
H12    H     0.10630   0.53550   0.21630   0.01267  Uiso   1.00
H13    H     0.52820   0.88460   0.77060   0.01267  Uiso   1.00
H14    H     0.46400   0.20880   0.91090   0.01267  Uiso   1.00
H15    H     0.62120   0.78940   0.56140   0.01267  Uiso   1.00
H16    H     0.63150   0.01030   0.50740   0.01267  Uiso   1.00
H17    H     0.55900   0.98120   0.11520   0.01267  Uiso   1.00
H18    H     0.53550   0.10630   0.71630   0.01267  Uiso   1.00
H19    H     0.11540   0.47180   0.72940   0.01267  Uiso   1.00
H20    H     0.79120   0.53600   0.58910   0.01267  Uiso   1.00
H21    H     0.21060   0.37880   0.93860   0.01267  Uiso   1.00
H22    H     0.98970   0.36850   0.99260   0.01267  Uiso   1.00
H23    H     0.01880   0.44100   0.38480   0.01267  Uiso   1.00
H24    H     0.89370   0.46450   0.78370   0.01267  Uiso   1.00
C1     C     0.44417   0.32117   0.29411   0.01267  Uiso   1.00
C2     C     0.48687   0.88625   0.98423   0.01267  Uiso   1.00
C3     C     0.42874   0.18318   0.32888   0.01267  Uiso   1.00
C4     C     0.45253   0.08933   0.28281   0.01267  Uiso   1.00
C5     C     0.52154   0.87576   0.05289   0.01267  Uiso   1.00
C6     C     0.39682   0.14610   0.40715   0.01267  Uiso   1.00
C7     C     0.47220   0.76578   0.96613   0.01267  Uiso   1.00
C8     C     0.39135   0.01455   0.43921   0.01267  Uiso   1.00
C9     C     0.46512   0.01112   0.93157   0.01267  Uiso   1.00
C10    C     0.41929   0.91927   0.39337   0.01267  Uiso   1.00
C11    C     0.42701   0.77297   0.42940   0.01267  Uiso   1.00
C12    C     0.44799   0.95775   0.31507   0.01267  Uiso   1.00
C13    C     0.67883   0.55583   0.20589   0.01267  Uiso   1.00
C14    C     0.11375   0.51313   0.51577   0.01267  Uiso   1.00
C15    C     0.81682   0.57126   0.17112   0.01267  Uiso   1.00
C16    C     0.91067   0.54747   0.21719   0.01267  Uiso   1.00
C17    C     0.12424   0.47846   0.44711   0.01267  Uiso   1.00
C18    C     0.85390   0.60318   0.09285   0.01267  Uiso   1.00
C19    C     0.23422   0.52780   0.53387   0.01267  Uiso   1.00
C20    C     0.98545   0.60865   0.06079   0.01267  Uiso   1.00
C21    C     0.98888   0.53488   0.56843   0.01267  Uiso   1.00
C22    C     0.08073   0.58071   0.10663   0.01267  Uiso   1.00
C23    C     0.22703   0.57299   0.07060   0.01267  Uiso   1.00
C24    C     0.04225   0.55201   0.18493   0.01267  Uiso   1.00
C25    C     0.55583   0.67883   0.70589   0.01267  Uiso   1.00
C26    C     0.51313   0.11375   0.01577   0.01267  Uiso   1.00
C27    C     0.57126   0.81682   0.67112   0.01267  Uiso   1.00
C28    C     0.54747   0.91067   0.71719   0.01267  Uiso   1.00
C29    C     0.47846   0.12424   0.94711   0.01267  Uiso   1.00
C30    C     0.60318   0.85390   0.59285   0.01267  Uiso   1.00
C31    C     0.52780   0.23422   0.03387   0.01267  Uiso   1.00
C32    C     0.60865   0.98545   0.56079   0.01267  Uiso   1.00
C33    C     0.53488   0.98888   0.06843   0.01267  Uiso   1.00
C34    C     0.58071   0.08073   0.60663   0.01267  Uiso   1.00
C35    C     0.57299   0.22703   0.57060   0.01267  Uiso   1.00
C36    C     0.55201   0.04225   0.68493   0.01267  Uiso   1.00
C37    C     0.32117   0.44417   0.79411   0.01267  Uiso   1.00
C38    C     0.88625   0.48687   0.48423   0.01267  Uiso   1.00
C39    C     0.18318   0.42874   0.82888   0.01267  Uiso   1.00
C40    C     0.08933   0.45253   0.78281   0.01267  Uiso   1.00
C41    C     0.87576   0.52154   0.55289   0.01267  Uiso   1.00
C42    C     0.14610   0.39682   0.90715   0.01267  Uiso   1.00
C43    C     0.76578   0.47220   0.46613   0.01267  Uiso   1.00
C44    C     0.01455   0.39135   0.93921   0.01267  Uiso   1.00
C45    C     0.01112   0.46512   0.43157   0.01267  Uiso   1.00
C46    C     0.91927   0.41929   0.89337   0.01267  Uiso   1.00
C47    C     0.77297   0.42701   0.92940   0.01267  Uiso   1.00
C48    C     0.95775   0.44799   0.81507   0.01267  Uiso   1.00
O1     O     0.47123   0.35077   0.22407   0.01267  Uiso   1.00
O2     O     0.51013   0.64555   0.00789   0.01267  Uiso   1.00
O3     O     0.42647   0.40047   0.33890   0.01267  Uiso   1.00
O4     O     0.42246   0.78780   0.90796   0.01267  Uiso   1.00
O5     O     0.39430   0.74750   0.50048   0.01267  Uiso   1.00
O6     O     0.46836   0.68538   0.38635   0.01267  Uiso   1.00
O7     O     0.64923   0.52877   0.27593   0.01267  Uiso   1.00
O8     O     0.35445   0.48987   0.49211   0.01267  Uiso   1.00
O9     O     0.59953   0.57353   0.16110   0.01267  Uiso   1.00
O10    O     0.21220   0.57754   0.59204   0.01267  Uiso   1.00
O11    O     0.25250   0.60570   0.99952   0.01267  Uiso   1.00
O12    O     0.31462   0.53164   0.11365   0.01267  Uiso   1.00
O13    O     0.52877   0.64923   0.77593   0.01267  Uiso   1.00
O14    O     0.48987   0.35445   0.99211   0.01267  Uiso   1.00
O15    O     0.57353   0.59953   0.66110   0.01267  Uiso   1.00
O16    O     0.57754   0.21220   0.09204   0.01267  Uiso   1.00
O17    O     0.60570   0.25250   0.49952   0.01267  Uiso   1.00
O18    O     0.53164   0.31462   0.61365   0.01267  Uiso   1.00
O19    O     0.35077   0.47123   0.72407   0.01267  Uiso   1.00
O20    O     0.64555   0.51013   0.50789   0.01267  Uiso   1.00
O21    O     0.40047   0.42647   0.83890   0.01267  Uiso   1.00
O22    O     0.78780   0.42246   0.40796   0.01267  Uiso   1.00
O23    O     0.74750   0.39430   0.00048   0.01267  Uiso   1.00
O24    O     0.68538   0.46836   0.88635   0.01267  Uiso   1.00
