data_image0
_cell_length_a       9.9937
_cell_length_b       9.9937
_cell_length_c       12.8519
_cell_angle_alpha    90
_cell_angle_beta     90
_cell_angle_gamma    90

_symmetry_space_group_name_H-M    "P 1"
_symmetry_int_tables_number       1

loop_
  _symmetry_equiv_pos_as_xyz
  'x, y, z'

loop_
  _atom_site_label
  _atom_site_occupancy
  _atom_site_fract_x
  _atom_site_fract_y
  _atom_site_fract_z
  _atom_site_thermal_displace_type
  _atom_site_B_iso_or_equiv
  _atom_site_type_symbol
  Co1      1.0000 0.87890  0.12610  0.29810  Biso   1.000  Co
  P1       1.0000 0.85010  0.86140  0.17840  Biso   1.000  P
  O1       1.0000 0.72780  0.77760  0.17320  Biso   1.000  O
  O2       1.0000 0.92270  0.84790  0.07570  Biso   1.000  O
  O3       1.0000 0.80960  0.01010  0.19330  Biso   1.000  O
  O4       1.0000 0.88000  0.04260  0.43370  Biso   1.000  O
  O5       1.0000 0.05810  0.18570  0.26420  Biso   1.000  O
  Co2      1.0000 0.12110  0.87390  0.29810  Biso   1.000  Co
  P2       1.0000 0.14990  0.13860  0.17840  Biso   1.000  P
  O6       1.0000 0.27220  0.22240  0.17320  Biso   1.000  O
  O7       1.0000 0.07730  0.15210  0.07570  Biso   1.000  O
  O8       1.0000 0.19040  0.98990  0.19330  Biso   1.000  O
  O9       1.0000 0.12000  0.95740  0.43370  Biso   1.000  O
  O10      1.0000 0.94190  0.81430  0.26420  Biso   1.000  O
  Co3      1.0000 0.12610  0.12110  0.70190  Biso   1.000  Co
  P3       1.0000 0.86140  0.14990  0.82160  Biso   1.000  P
  O11      1.0000 0.77760  0.27220  0.82680  Biso   1.000  O
  O12      1.0000 0.84790  0.07730  0.92430  Biso   1.000  O
  O13      1.0000 0.01010  0.19040  0.80670  Biso   1.000  O
  O14      1.0000 0.04260  0.12000  0.56630  Biso   1.000  O
  O15      1.0000 0.18570  0.94190  0.73580  Biso   1.000  O
  Co4      1.0000 0.87390  0.87890  0.70190  Biso   1.000  Co
  P4       1.0000 0.13860  0.85010  0.82160  Biso   1.000  P
  O16      1.0000 0.22240  0.72780  0.82680  Biso   1.000  O
  O17      1.0000 0.15210  0.92270  0.92430  Biso   1.000  O
  O18      1.0000 0.98990  0.80960  0.80670  Biso   1.000  O
  O19      1.0000 0.95740  0.88000  0.56630  Biso   1.000  O
  O20      1.0000 0.81430  0.05810  0.73580  Biso   1.000  O
  Co5      1.0000 0.62110  0.62610  0.20190  Biso   1.000  Co
  P5       1.0000 0.64990  0.36140  0.32160  Biso   1.000  P
  O21      1.0000 0.77220  0.27760  0.32680  Biso   1.000  O
  O22      1.0000 0.57730  0.34790  0.42430  Biso   1.000  O
  O23      1.0000 0.69040  0.51010  0.30670  Biso   1.000  O
  O24      1.0000 0.62000  0.54260  0.06630  Biso   1.000  O
  O25      1.0000 0.44190  0.68570  0.23580  Biso   1.000  O
  Co6      1.0000 0.37890  0.37390  0.20190  Biso   1.000  Co
  P6       1.0000 0.35010  0.63860  0.32160  Biso   1.000  P
  O26      1.0000 0.22780  0.72240  0.32680  Biso   1.000  O
  O27      1.0000 0.42270  0.65210  0.42430  Biso   1.000  O
  O28      1.0000 0.30960  0.48990  0.30670  Biso   1.000  O
  O29      1.0000 0.38000  0.45740  0.06630  Biso   1.000  O
  O30      1.0000 0.55810  0.31430  0.23580  Biso   1.000  O
  Co7      1.0000 0.37390  0.62110  0.79810  Biso   1.000  Co
  P7       1.0000 0.63860  0.64990  0.67840  Biso   1.000  P
  O31      1.0000 0.72240  0.77220  0.67320  Biso   1.000  O
  O32      1.0000 0.65210  0.57730  0.57570  Biso   1.000  O
  O33      1.0000 0.48990  0.69040  0.69330  Biso   1.000  O
  O34      1.0000 0.45740  0.62000  0.93370  Biso   1.000  O
  O35      1.0000 0.31430  0.44190  0.76420  Biso   1.000  O
  Co8      1.0000 0.62610  0.37890  0.79810  Biso   1.000  Co
  P8       1.0000 0.36140  0.35010  0.67840  Biso   1.000  P
  O36      1.0000 0.27760  0.22780  0.67320  Biso   1.000  O
  O37      1.0000 0.34790  0.42270  0.57570  Biso   1.000  O
  O38      1.0000 0.51010  0.30960  0.69330  Biso   1.000  O
  O39      1.0000 0.54260  0.38000  0.93370  Biso   1.000  O
  O40      1.0000 0.68570  0.55810  0.76420  Biso   1.000  O
  Co9      1.0000 0.00000  0.00000  0.00000  Biso   1.000  Co
  Co10     1.0000 0.50000  0.50000  0.50000  Biso   1.000  Co
  P9       1.0000 0.00000  0.00000  0.50000  Biso   1.000  P
  P10      1.0000 0.50000  0.50000  0.00000  Biso   1.000  P
