data_image0
_cell_length_a       10.0103
_cell_length_b       9.9896
_cell_length_c       12.852
_cell_angle_alpha    90
_cell_angle_beta     91.113
_cell_angle_gamma    90

_symmetry_space_group_name_H-M    "P 1"
_symmetry_int_tables_number       1

loop_
  _symmetry_equiv_pos_as_xyz
  'x, y, z'

loop_
  _atom_site_label
  _atom_site_occupancy
  _atom_site_fract_x
  _atom_site_fract_y
  _atom_site_fract_z
  _atom_site_thermal_displace_type
  _atom_site_B_iso_or_equiv
  _atom_site_type_symbol
  Co1      1.0000 0.37110  0.04940  0.54630  Biso   1.000  Co
  Co2      1.0000 0.11830  0.80090  0.54970  Biso   1.000  Co
  Co3      1.0000 0.12890  0.04340  0.95600  Biso   1.000  Co
  Co4      1.0000 0.37610  0.79310  0.94650  Biso   1.000  Co
  Co5      1.0000 0.25160  0.90530  0.24900  Biso   1.000  Co
  P1       1.0000 0.11300  0.76230  0.06200  Biso   1.000  P
  P2       1.0000 0.39680  0.05500  0.07460  Biso   1.000  P
  P3       1.0000 0.10110  0.06090  0.42170  Biso   1.000  P
  P4       1.0000 0.24680  0.93560  0.75020  Biso   1.000  P
  P5       1.0000 0.39280  0.77800  0.43840  Biso   1.000  P
  O1       1.0000 0.29890  0.73860  0.52510  Biso   1.000  O
  O2       1.0000 0.33280  0.75960  0.33260  Biso   1.000  O
  O3       1.0000 0.48340  0.17520  0.08460  Biso   1.000  O
  O4       1.0000 0.12530  0.89610  0.67970  Biso   1.000  O
  O5       1.0000 0.44060  0.96660  0.98470  Biso   1.000  O
  O6       1.0000 0.19830  0.10740  0.50810  Biso   1.000  O
  O7       1.0000 0.29720  0.81450  0.80980  Biso   1.000  O
  O8       1.0000 0.10430  0.81730  0.17110  Biso   1.000  O
  O9       1.0000 0.35980  0.99260  0.68510  Biso   1.000  O
  O10      1.0000 0.25930  0.71960  0.04520  Biso   1.000  O
  O11      1.0000 0.43650  0.92340  0.45090  Biso   1.000  O
  O12      1.0000 0.40950  0.97580  0.17460  Biso   1.000  O
  O13      1.0000 0.17040  0.05680  0.31910  Biso   1.000  O
  O14      1.0000 0.20070  0.04600  0.82240  Biso   1.000  O
  O15      1.0000 0.06930  0.86720  0.98240  Biso   1.000  O
  O16      1.0000 0.05340  0.92070  0.44380  Biso   1.000  O
  O17      1.0000 0.51700  0.69190  0.45320  Biso   1.000  O
  O18      1.0000 0.99030  0.15890  0.41050  Biso   1.000  O
  O19      1.0000 0.02300  0.64320  0.04850  Biso   1.000  O
  O20      1.0000 0.25320  0.10180  0.05910  Biso   1.000  O
  Co6      1.0000 0.62890  0.54940  0.45370  Biso   1.000  Co
  Co7      1.0000 0.88170  0.30090  0.45030  Biso   1.000  Co
  Co8      1.0000 0.87110  0.54340  0.04400  Biso   1.000  Co
  Co9      1.0000 0.62390  0.29310  0.05350  Biso   1.000  Co
  Co10     1.0000 0.74840  0.40530  0.75100  Biso   1.000  Co
  P6       1.0000 0.88700  0.26230  0.93800  Biso   1.000  P
  P7       1.0000 0.60320  0.55500  0.92540  Biso   1.000  P
  P8       1.0000 0.89890  0.56090  0.57830  Biso   1.000  P
  P9       1.0000 0.75320  0.43560  0.24980  Biso   1.000  P
  P10      1.0000 0.60720  0.27800  0.56160  Biso   1.000  P
  O21      1.0000 0.70110  0.23860  0.47490  Biso   1.000  O
  O22      1.0000 0.66720  0.25960  0.66740  Biso   1.000  O
  O23      1.0000 0.51660  0.67520  0.91540  Biso   1.000  O
  O24      1.0000 0.87470  0.39610  0.32030  Biso   1.000  O
  O25      1.0000 0.55940  0.46660  0.01530  Biso   1.000  O
  O26      1.0000 0.80170  0.60740  0.49190  Biso   1.000  O
  O27      1.0000 0.70280  0.31450  0.19020  Biso   1.000  O
  O28      1.0000 0.89570  0.31730  0.82890  Biso   1.000  O
  O29      1.0000 0.64020  0.49260  0.31490  Biso   1.000  O
  O30      1.0000 0.74070  0.21960  0.95480  Biso   1.000  O
  O31      1.0000 0.56350  0.42340  0.54910  Biso   1.000  O
  O32      1.0000 0.59050  0.47580  0.82540  Biso   1.000  O
  O33      1.0000 0.82960  0.55680  0.68090  Biso   1.000  O
  O34      1.0000 0.79930  0.54600  0.17760  Biso   1.000  O
  O35      1.0000 0.93070  0.36720  0.01760  Biso   1.000  O
  O36      1.0000 0.94660  0.42070  0.55620  Biso   1.000  O
  O37      1.0000 0.48300  0.19190  0.54680  Biso   1.000  O
  O38      1.0000 0.00970  0.65890  0.58950  Biso   1.000  O
  O39      1.0000 0.97700  0.14320  0.95150  Biso   1.000  O
  O40      1.0000 0.74680  0.60180  0.94090  Biso   1.000  O
