data_image0
_cell_length_a       10.0317
_cell_length_b       10.0317
_cell_length_c       12.8837
_cell_angle_alpha    90
_cell_angle_beta     90
_cell_angle_gamma    90

_symmetry_space_group_name_H-M    "P 1"
_symmetry_int_tables_number       1

loop_
  _symmetry_equiv_pos_as_xyz
  'x, y, z'

loop_
  _atom_site_label
  _atom_site_occupancy
  _atom_site_fract_x
  _atom_site_fract_y
  _atom_site_fract_z
  _atom_site_thermal_displace_type
  _atom_site_B_iso_or_equiv
  _atom_site_type_symbol
  Co1      1.0000 0.87590  0.12460  0.29780  Biso   1.000  Co
  P1       1.0000 0.85200  0.85900  0.17990  Biso   1.000  P
  O1       1.0000 0.73000  0.76840  0.18300  Biso   1.000  O
  O2       1.0000 0.91760  0.84800  0.07620  Biso   1.000  O
  O3       1.0000 0.80910  0.00750  0.19660  Biso   1.000  O
  O4       1.0000 0.88750  0.04810  0.43290  Biso   1.000  O
  O5       1.0000 0.05460  0.18580  0.26640  Biso   1.000  O
  Co2      1.0000 0.12410  0.87540  0.29780  Biso   1.000  Co
  P2       1.0000 0.14800  0.14100  0.17990  Biso   1.000  P
  O6       1.0000 0.27000  0.23160  0.18300  Biso   1.000  O
  O7       1.0000 0.08240  0.15200  0.07620  Biso   1.000  O
  O8       1.0000 0.19090  0.99250  0.19660  Biso   1.000  O
  O9       1.0000 0.11250  0.95190  0.43290  Biso   1.000  O
  O10      1.0000 0.94540  0.81420  0.26640  Biso   1.000  O
  Co3      1.0000 0.12460  0.12410  0.70220  Biso   1.000  Co
  P3       1.0000 0.85900  0.14800  0.82010  Biso   1.000  P
  O11      1.0000 0.76840  0.27000  0.81700  Biso   1.000  O
  O12      1.0000 0.84800  0.08240  0.92380  Biso   1.000  O
  O13      1.0000 0.00750  0.19090  0.80340  Biso   1.000  O
  O14      1.0000 0.04810  0.11250  0.56710  Biso   1.000  O
  O15      1.0000 0.18580  0.94540  0.73360  Biso   1.000  O
  Co4      1.0000 0.87540  0.87590  0.70220  Biso   1.000  Co
  P4       1.0000 0.14100  0.85200  0.82010  Biso   1.000  P
  O16      1.0000 0.23160  0.73000  0.81700  Biso   1.000  O
  O17      1.0000 0.15200  0.91760  0.92380  Biso   1.000  O
  O18      1.0000 0.99250  0.80910  0.80340  Biso   1.000  O
  O19      1.0000 0.95190  0.88750  0.56710  Biso   1.000  O
  O20      1.0000 0.81420  0.05460  0.73360  Biso   1.000  O
  Co5      1.0000 0.62410  0.62460  0.20220  Biso   1.000  Co
  P5       1.0000 0.64800  0.35900  0.32010  Biso   1.000  P
  O21      1.0000 0.77000  0.26840  0.31700  Biso   1.000  O
  O22      1.0000 0.58240  0.34800  0.42380  Biso   1.000  O
  O23      1.0000 0.69090  0.50750  0.30340  Biso   1.000  O
  O24      1.0000 0.61250  0.54810  0.06710  Biso   1.000  O
  O25      1.0000 0.44540  0.68580  0.23360  Biso   1.000  O
  Co6      1.0000 0.37590  0.37540  0.20220  Biso   1.000  Co
  P6       1.0000 0.35200  0.64100  0.32010  Biso   1.000  P
  O26      1.0000 0.23000  0.73160  0.31700  Biso   1.000  O
  O27      1.0000 0.41760  0.65200  0.42380  Biso   1.000  O
  O28      1.0000 0.30910  0.49250  0.30340  Biso   1.000  O
  O29      1.0000 0.38750  0.45190  0.06710  Biso   1.000  O
  O30      1.0000 0.55460  0.31420  0.23360  Biso   1.000  O
  Co7      1.0000 0.37540  0.62410  0.79780  Biso   1.000  Co
  P7       1.0000 0.64100  0.64800  0.67990  Biso   1.000  P
  O31      1.0000 0.73160  0.77000  0.68300  Biso   1.000  O
  O32      1.0000 0.65200  0.58240  0.57620  Biso   1.000  O
  O33      1.0000 0.49250  0.69090  0.69660  Biso   1.000  O
  O34      1.0000 0.45190  0.61250  0.93290  Biso   1.000  O
  O35      1.0000 0.31420  0.44540  0.76640  Biso   1.000  O
  Co8      1.0000 0.62460  0.37590  0.79780  Biso   1.000  Co
  P8       1.0000 0.35900  0.35200  0.67990  Biso   1.000  P
  O36      1.0000 0.26840  0.23000  0.68300  Biso   1.000  O
  O37      1.0000 0.34800  0.41760  0.57620  Biso   1.000  O
  O38      1.0000 0.50750  0.30910  0.69660  Biso   1.000  O
  O39      1.0000 0.54810  0.38750  0.93290  Biso   1.000  O
  O40      1.0000 0.68580  0.55460  0.76640  Biso   1.000  O
  Co9      1.0000 0.00000  0.00000  0.00000  Biso   1.000  Co
  Co10     1.0000 0.50000  0.50000  0.50000  Biso   1.000  Co
  P9       1.0000 0.00000  0.00000  0.50000  Biso   1.000  P
  P10      1.0000 0.50000  0.50000  0.00000  Biso   1.000  P
