data_image0
_cell_length_a       10.0873
_cell_length_b       10.0873
_cell_length_c       12.9358
_cell_angle_alpha    90
_cell_angle_beta     90
_cell_angle_gamma    90

_symmetry_space_group_name_H-M    "P 1"
_symmetry_int_tables_number       1

loop_
  _symmetry_equiv_pos_as_xyz
  'x, y, z'

loop_
  _atom_site_label
  _atom_site_occupancy
  _atom_site_fract_x
  _atom_site_fract_y
  _atom_site_fract_z
  _atom_site_thermal_displace_type
  _atom_site_B_iso_or_equiv
  _atom_site_type_symbol
  Co1      1.0000 0.88160  0.13240  0.29890  Biso   1.000  Co
  P1       1.0000 0.84460  0.86790  0.18390  Biso   1.000  P
  O1       1.0000 0.72080  0.78480  0.18870  Biso   1.000  O
  O2       1.0000 0.90620  0.85790  0.07610  Biso   1.000  O
  O3       1.0000 0.80750  0.01230  0.20340  Biso   1.000  O
  O4       1.0000 0.88950  0.06290  0.43420  Biso   1.000  O
  O5       1.0000 0.05840  0.18150  0.26470  Biso   1.000  O
  Co2      1.0000 0.11840  0.86760  0.29890  Biso   1.000  Co
  P2       1.0000 0.15540  0.13210  0.18390  Biso   1.000  P
  O6       1.0000 0.27920  0.21520  0.18870  Biso   1.000  O
  O7       1.0000 0.09380  0.14210  0.07610  Biso   1.000  O
  O8       1.0000 0.19250  0.98770  0.20340  Biso   1.000  O
  O9       1.0000 0.11050  0.93710  0.43420  Biso   1.000  O
  O10      1.0000 0.94160  0.81850  0.26470  Biso   1.000  O
  Co3      1.0000 0.13240  0.11840  0.70110  Biso   1.000  Co
  P3       1.0000 0.86790  0.15540  0.81610  Biso   1.000  P
  O11      1.0000 0.78480  0.27920  0.81130  Biso   1.000  O
  O12      1.0000 0.85790  0.09380  0.92390  Biso   1.000  O
  O13      1.0000 0.01230  0.19250  0.79660  Biso   1.000  O
  O14      1.0000 0.06290  0.11050  0.56580  Biso   1.000  O
  O15      1.0000 0.18150  0.94160  0.73530  Biso   1.000  O
  Co4      1.0000 0.86760  0.88160  0.70110  Biso   1.000  Co
  P4       1.0000 0.13210  0.84460  0.81610  Biso   1.000  P
  O16      1.0000 0.21520  0.72080  0.81130  Biso   1.000  O
  O17      1.0000 0.14210  0.90620  0.92390  Biso   1.000  O
  O18      1.0000 0.98770  0.80750  0.79660  Biso   1.000  O
  O19      1.0000 0.93710  0.88950  0.56580  Biso   1.000  O
  O20      1.0000 0.81850  0.05840  0.73530  Biso   1.000  O
  Co5      1.0000 0.61840  0.63240  0.20110  Biso   1.000  Co
  P5       1.0000 0.65540  0.36790  0.31610  Biso   1.000  P
  O21      1.0000 0.77920  0.28480  0.31130  Biso   1.000  O
  O22      1.0000 0.59380  0.35790  0.42390  Biso   1.000  O
  O23      1.0000 0.69250  0.51230  0.29660  Biso   1.000  O
  O24      1.0000 0.61050  0.56290  0.06580  Biso   1.000  O
  O25      1.0000 0.44160  0.68150  0.23530  Biso   1.000  O
  Co6      1.0000 0.38160  0.36760  0.20110  Biso   1.000  Co
  P6       1.0000 0.34460  0.63210  0.31610  Biso   1.000  P
  O26      1.0000 0.22080  0.71520  0.31130  Biso   1.000  O
  O27      1.0000 0.40620  0.64210  0.42390  Biso   1.000  O
  O28      1.0000 0.30750  0.48770  0.29660  Biso   1.000  O
  O29      1.0000 0.38950  0.43710  0.06580  Biso   1.000  O
  O30      1.0000 0.55840  0.31850  0.23530  Biso   1.000  O
  Co7      1.0000 0.36760  0.61840  0.79890  Biso   1.000  Co
  P7       1.0000 0.63210  0.65540  0.68390  Biso   1.000  P
  O31      1.0000 0.71520  0.77920  0.68870  Biso   1.000  O
  O32      1.0000 0.64210  0.59380  0.57610  Biso   1.000  O
  O33      1.0000 0.48770  0.69250  0.70340  Biso   1.000  O
  O34      1.0000 0.43710  0.61050  0.93420  Biso   1.000  O
  O35      1.0000 0.31850  0.44160  0.76470  Biso   1.000  O
  Co8      1.0000 0.63240  0.38160  0.79890  Biso   1.000  Co
  P8       1.0000 0.36790  0.34460  0.68390  Biso   1.000  P
  O36      1.0000 0.28480  0.22080  0.68870  Biso   1.000  O
  O37      1.0000 0.35790  0.40620  0.57610  Biso   1.000  O
  O38      1.0000 0.51230  0.30750  0.70340  Biso   1.000  O
  O39      1.0000 0.56290  0.38950  0.93420  Biso   1.000  O
  O40      1.0000 0.68150  0.55840  0.76470  Biso   1.000  O
  Co9      1.0000 0.00000  0.00000  0.00000  Biso   1.000  Co
  Co10     1.0000 0.50000  0.50000  0.50000  Biso   1.000  Co
  P9       1.0000 0.00000  0.00000  0.50000  Biso   1.000  P
  P10      1.0000 0.50000  0.50000  0.00000  Biso   1.000  P
