data_image0
_cell_length_a       6.6863
_cell_length_b       33.34
_cell_length_c       11.325
_cell_angle_alpha    90
_cell_angle_beta     107.156
_cell_angle_gamma    90

_symmetry_space_group_name_H-M    "P 1"
_symmetry_int_tables_number       1

loop_
  _symmetry_equiv_pos_as_xyz
  'x, y, z'

loop_
  _atom_site_label
  _atom_site_occupancy
  _atom_site_fract_x
  _atom_site_fract_y
  _atom_site_fract_z
  _atom_site_thermal_displace_type
  _atom_site_B_iso_or_equiv
  _atom_site_type_symbol
  O1       1.0000 0.45160  0.95189  0.58470  Biso   1.000  O
  O2       1.0000 0.10560  0.94686  0.55580  Biso   1.000  O
  O3       1.0000 0.09170  0.53476  0.88730  Biso   1.000  O
  O4       1.0000 0.78130  0.56532  0.81010  Biso   1.000  O
  N1       1.0000 0.43380  0.77085  0.73740  Biso   1.000  N
  N2       1.0000 0.38520  0.70943  0.78180  Biso   1.000  N
  C1       1.0000 0.29630  0.74066  0.71400  Biso   1.000  C
  H1       1.0000 0.15850  0.74140  0.65850  Biso   1.000  H
  C2       1.0000 0.61570  0.75834  0.82160  Biso   1.000  C
  H2       1.0000 0.73870  0.77390  0.85350  Biso   1.000  H
  C3       1.0000 0.58890  0.72012  0.85100  Biso   1.000  C
  H3       1.0000 0.68830  0.70360  0.90740  Biso   1.000  H
  C4       1.0000 0.39160  0.81093  0.69100  Biso   1.000  C
  C5       1.0000 0.54040  0.83130  0.65390  Biso   1.000  C
  H4       1.0000 0.66680  0.81850  0.65310  Biso   1.000  H
  C6       1.0000 0.50370  0.87078  0.61770  Biso   1.000  C
  H5       1.0000 0.60600  0.88520  0.59200  Biso   1.000  H
  C7       1.0000 0.31950  0.88958  0.61830  Biso   1.000  C
  C8       1.0000 0.16770  0.86841  0.65150  Biso   1.000  C
  H6       1.0000 0.03880  0.88100  0.64860  Biso   1.000  H
  C9       1.0000 0.20240  0.82882  0.68930  Biso   1.000  C
  H7       1.0000 0.09920  0.81420  0.71360  Biso   1.000  H
  C10      1.0000 0.28830  0.93325  0.58230  Biso   1.000  C
  C11      1.0000 0.28860  0.67201  0.79140  Biso   1.000  C
  C12      1.0000 0.39900  0.63732  0.81870  Biso   1.000  C
  H8       1.0000 0.54530  0.63740  0.82910  Biso   1.000  H
  C13      1.0000 0.30060  0.60196  0.83140  Biso   1.000  C
  H9       1.0000 0.38020  0.57810  0.85360  Biso   1.000  H
  C14      1.0000 0.08560  0.60111  0.81180  Biso   1.000  C
  C15      1.0000 0.97070  0.63649  0.77610  Biso   1.000  C
  H10      1.0000 0.82250  0.63600  0.75720  Biso   1.000  H
  C16      1.0000 0.07130  0.67206  0.76820  Biso   1.000  C
  H11      1.0000 0.99390  0.69630  0.74720  Biso   1.000  H
  C17      1.0000 0.97700  0.56426  0.83770  Biso   1.000  C
  O5       1.0000 0.04840  0.45189  0.91530  Biso   1.000  O
  O6       1.0000 0.39440  0.44686  0.94420  Biso   1.000  O
  O7       1.0000 0.40830  0.03476  0.61270  Biso   1.000  O
  O8       1.0000 0.71870  0.06532  0.68990  Biso   1.000  O
  N3       1.0000 0.06620  0.27085  0.76260  Biso   1.000  N
  N4       1.0000 0.11480  0.20943  0.71820  Biso   1.000  N
  C18      1.0000 0.20370  0.24066  0.78600  Biso   1.000  C
  H12      1.0000 0.34150  0.24140  0.84150  Biso   1.000  H
  C19      1.0000 0.88430  0.25834  0.67840  Biso   1.000  C
  H13      1.0000 0.76130  0.27390  0.64650  Biso   1.000  H
  C20      1.0000 0.91110  0.22012  0.64900  Biso   1.000  C
  H14      1.0000 0.81170  0.20360  0.59260  Biso   1.000  H
  C21      1.0000 0.10840  0.31093  0.80900  Biso   1.000  C
  C22      1.0000 0.95960  0.33130  0.84610  Biso   1.000  C
  H15      1.0000 0.83320  0.31850  0.84690  Biso   1.000  H
  C23      1.0000 0.99630  0.37078  0.88230  Biso   1.000  C
  H16      1.0000 0.89400  0.38520  0.90800  Biso   1.000  H
  C24      1.0000 0.18050  0.38958  0.88170  Biso   1.000  C
  C25      1.0000 0.33230  0.36841  0.84850  Biso   1.000  C
  H17      1.0000 0.46120  0.38100  0.85140  Biso   1.000  H
  C26      1.0000 0.29760  0.32882  0.81070  Biso   1.000  C
  H18      1.0000 0.40080  0.31420  0.78640  Biso   1.000  H
  C27      1.0000 0.21170  0.43325  0.91770  Biso   1.000  C
  C28      1.0000 0.21140  0.17201  0.70860  Biso   1.000  C
  C29      1.0000 0.10100  0.13732  0.68130  Biso   1.000  C
  H19      1.0000 0.95470  0.13740  0.67090  Biso   1.000  H
  C30      1.0000 0.19940  0.10196  0.66860  Biso   1.000  C
  H20      1.0000 0.11980  0.07810  0.64640  Biso   1.000  H
  C31      1.0000 0.41440  0.10111  0.68820  Biso   1.000  C
  C32      1.0000 0.52930  0.13649  0.72390  Biso   1.000  C
  H21      1.0000 0.67750  0.13600  0.74280  Biso   1.000  H
  C33      1.0000 0.42870  0.17206  0.73180  Biso   1.000  C
  H22      1.0000 0.50610  0.19630  0.75280  Biso   1.000  H
  C34      1.0000 0.52300  0.06426  0.66230  Biso   1.000  C
  O9       1.0000 0.54840  0.04811  0.41530  Biso   1.000  O
  O10      1.0000 0.89440  0.05314  0.44420  Biso   1.000  O
  O11      1.0000 0.90830  0.46524  0.11270  Biso   1.000  O
  O12      1.0000 0.21870  0.43468  0.18990  Biso   1.000  O
  N5       1.0000 0.56620  0.22915  0.26260  Biso   1.000  N
  N6       1.0000 0.61480  0.29057  0.21820  Biso   1.000  N
  C35      1.0000 0.70370  0.25934  0.28600  Biso   1.000  C
  H23      1.0000 0.84150  0.25860  0.34150  Biso   1.000  H
  C36      1.0000 0.38430  0.24166  0.17840  Biso   1.000  C
  H24      1.0000 0.26130  0.22610  0.14650  Biso   1.000  H
  C37      1.0000 0.41110  0.27988  0.14900  Biso   1.000  C
  H25      1.0000 0.31170  0.29640  0.09260  Biso   1.000  H
  C38      1.0000 0.60840  0.18907  0.30900  Biso   1.000  C
  C39      1.0000 0.45960  0.16870  0.34610  Biso   1.000  C
  H26      1.0000 0.33320  0.18150  0.34690  Biso   1.000  H
  C40      1.0000 0.49630  0.12922  0.38230  Biso   1.000  C
  H27      1.0000 0.39400  0.11480  0.40800  Biso   1.000  H
  C41      1.0000 0.68050  0.11042  0.38170  Biso   1.000  C
  C42      1.0000 0.83230  0.13159  0.34850  Biso   1.000  C
  H28      1.0000 0.96120  0.11900  0.35140  Biso   1.000  H
  C43      1.0000 0.79760  0.17118  0.31070  Biso   1.000  C
  H29      1.0000 0.90080  0.18580  0.28640  Biso   1.000  H
  C44      1.0000 0.71170  0.06675  0.41770  Biso   1.000  C
  C45      1.0000 0.71140  0.32799  0.20860  Biso   1.000  C
  C46      1.0000 0.60100  0.36268  0.18130  Biso   1.000  C
  H30      1.0000 0.45470  0.36260  0.17090  Biso   1.000  H
  C47      1.0000 0.69940  0.39804  0.16860  Biso   1.000  C
  H31      1.0000 0.61980  0.42190  0.14640  Biso   1.000  H
  C48      1.0000 0.91440  0.39889  0.18820  Biso   1.000  C
  C49      1.0000 0.02930  0.36351  0.22390  Biso   1.000  C
  H32      1.0000 0.17750  0.36400  0.24280  Biso   1.000  H
  C50      1.0000 0.92870  0.32794  0.23180  Biso   1.000  C
  H33      1.0000 0.00610  0.30370  0.25280  Biso   1.000  H
  C51      1.0000 0.02300  0.43574  0.16230  Biso   1.000  C
  O13      1.0000 0.95160  0.54811  0.08470  Biso   1.000  O
  O14      1.0000 0.60560  0.55314  0.05580  Biso   1.000  O
  O15      1.0000 0.59170  0.96524  0.38730  Biso   1.000  O
  O16      1.0000 0.28130  0.93468  0.31010  Biso   1.000  O
  N7       1.0000 0.93380  0.72915  0.23740  Biso   1.000  N
  N8       1.0000 0.88520  0.79057  0.28180  Biso   1.000  N
  C52      1.0000 0.79630  0.75934  0.21400  Biso   1.000  C
  H34      1.0000 0.65850  0.75860  0.15850  Biso   1.000  H
  C53      1.0000 0.11570  0.74166  0.32160  Biso   1.000  C
  H35      1.0000 0.23870  0.72610  0.35350  Biso   1.000  H
  C54      1.0000 0.08890  0.77988  0.35100  Biso   1.000  C
  H36      1.0000 0.18830  0.79640  0.40740  Biso   1.000  H
  C55      1.0000 0.89160  0.68907  0.19100  Biso   1.000  C
  C56      1.0000 0.04040  0.66870  0.15390  Biso   1.000  C
  H37      1.0000 0.16680  0.68150  0.15310  Biso   1.000  H
  C57      1.0000 0.00370  0.62922  0.11770  Biso   1.000  C
  H38      1.0000 0.10600  0.61480  0.09200  Biso   1.000  H
  C58      1.0000 0.81950  0.61042  0.11830  Biso   1.000  C
  C59      1.0000 0.66770  0.63159  0.15150  Biso   1.000  C
  H39      1.0000 0.53880  0.61900  0.14860  Biso   1.000  H
  C60      1.0000 0.70240  0.67118  0.18930  Biso   1.000  C
  H40      1.0000 0.59920  0.68580  0.21360  Biso   1.000  H
  C61      1.0000 0.78830  0.56675  0.08230  Biso   1.000  C
  C62      1.0000 0.78860  0.82799  0.29140  Biso   1.000  C
  C63      1.0000 0.89900  0.86268  0.31870  Biso   1.000  C
  H41      1.0000 0.04530  0.86260  0.32910  Biso   1.000  H
  C64      1.0000 0.80060  0.89804  0.33140  Biso   1.000  C
  H42      1.0000 0.88020  0.92190  0.35360  Biso   1.000  H
  C65      1.0000 0.58560  0.89889  0.31180  Biso   1.000  C
  C66      1.0000 0.47070  0.86351  0.27610  Biso   1.000  C
  H43      1.0000 0.32250  0.86400  0.25720  Biso   1.000  H
  C67      1.0000 0.57130  0.82794  0.26820  Biso   1.000  C
  H44      1.0000 0.49390  0.80370  0.24720  Biso   1.000  H
  C68      1.0000 0.47700  0.93574  0.33770  Biso   1.000  C
  Cu1      1.0000 0.50000  0.00000  0.50000  Biso   1.000  Cu
  Cu2      1.0000 0.00000  0.50000  0.00000  Biso   1.000  Cu
  Cu3      1.0000 0.00000  0.00000  0.50000  Biso   1.000  Cu
  Cu4      1.0000 0.50000  0.50000  0.00000  Biso   1.000  Cu
