data_XASFAY_clean
_audit_creation_date              2014-07-02
_audit_creation_method            'Materials Studio'
_symmetry_space_group_name_H-M    'P1'
_symmetry_Int_Tables_number       1
_symmetry_cell_setting            triclinic
loop_
_symmetry_equiv_pos_as_xyz
  x,y,z
_cell_length_a                    13.0570
_cell_length_b                    13.2639
_cell_length_c                    19.9660
_cell_angle_alpha                 82.1573
_cell_angle_beta                  73.9049
_cell_angle_gamma                 60.5147
loop_
_atom_site_label
_atom_site_type_symbol
_atom_site_fract_x
_atom_site_fract_y
_atom_site_fract_z
_atom_site_U_iso_or_equiv
_atom_site_adp_type
_atom_site_occupancy
Cu1    Cu    0.50000   0.50000   0.50000   0.01267  Uiso   1.00
Cu2    Cu    0.00000   0.50000   0.00000   0.01267  Uiso   1.00
Cu3    Cu    0.00000   0.00000   0.00000   0.01267  Uiso   1.00
Cu4    Cu    0.00000   0.00000   0.50000   0.01267  Uiso   1.00
H1     H     0.51040   0.64740   0.60060   0.01267  Uiso   1.00
H2     H     0.63020   0.62440   0.67300   0.01267  Uiso   1.00
H3     H     0.80730   0.28380   0.63990   0.01267  Uiso   1.00
H4     H     0.68740   0.30700   0.56760   0.01267  Uiso   1.00
H5     H     0.82630   0.50360   0.70130   0.01267  Uiso   1.00
H6     H     0.88280   0.36880   0.69990   0.01267  Uiso   1.00
H7     H     0.84540   0.21880   0.07330   0.01267  Uiso   1.00
H8     H     0.66690   0.38720   0.07700   0.01267  Uiso   1.00
H9     H     0.60990   0.25580   0.93200   0.01267  Uiso   1.00
H10    H     0.79330   0.09360   0.92790   0.01267  Uiso   1.00
H11    H     0.45400   0.43760   0.97760   0.01267  Uiso   1.00
H12    H     0.44310   0.45380   0.05620   0.01267  Uiso   1.00
H13    H     0.70820   0.43840   0.37650   0.01267  Uiso   1.00
H14    H     0.81700   0.51560   0.29970   0.01267  Uiso   1.00
H15    H     0.61840   0.80820   0.41010   0.01267  Uiso   1.00
H16    H     0.51480   0.72200   0.48450   0.01267  Uiso   1.00
H17    H     0.80710   0.70080   0.24480   0.01267  Uiso   1.00
H18    H     0.87780   0.69320   0.29850   0.01267  Uiso   1.00
H19    H     0.82680   0.91120   0.05720   0.01267  Uiso   1.00
H20    H     0.72630   0.86540   0.15850   0.01267  Uiso   1.00
H21    H     0.88650   0.95680   0.26260   0.01267  Uiso   1.00
H22    H     0.97650   0.01000   0.15790   0.01267  Uiso   1.00
H23    H     0.65730   0.88880   0.29310   0.01267  Uiso   1.00
H24    H     0.75380   0.87900   0.32970   0.01267  Uiso   1.00
H25    H     0.84220   0.64740   0.89940   0.01267  Uiso   1.00
H26    H     0.74540   0.62440   0.82700   0.01267  Uiso   1.00
H27    H     0.90890   0.28380   0.86010   0.01267  Uiso   1.00
H28    H     0.00560   0.30700   0.93240   0.01267  Uiso   1.00
H29    H     0.67010   0.50360   0.79870   0.01267  Uiso   1.00
H30    H     0.74840   0.36880   0.80010   0.01267  Uiso   1.00
H31    H     0.93580   0.21880   0.42670   0.01267  Uiso   1.00
H32    H     0.94590   0.38720   0.42300   0.01267  Uiso   1.00
H33    H     0.13430   0.25580   0.56800   0.01267  Uiso   1.00
H34    H     0.11310   0.09360   0.57210   0.01267  Uiso   1.00
H35    H     0.10840   0.43760   0.52240   0.01267  Uiso   1.00
H36    H     0.10310   0.45380   0.44380   0.01267  Uiso   1.00
H37    H     0.85340   0.43840   0.12350   0.01267  Uiso   1.00
H38    H     0.66740   0.51560   0.20030   0.01267  Uiso   1.00
H39    H     0.57340   0.80820   0.08990   0.01267  Uiso   1.00
H40    H     0.76320   0.72200   0.01550   0.01267  Uiso   1.00
H41    H     0.49210   0.70080   0.25520   0.01267  Uiso   1.00
H42    H     0.42900   0.69320   0.20150   0.01267  Uiso   1.00
H43    H     0.26200   0.91120   0.44280   0.01267  Uiso   1.00
H44    H     0.40830   0.86540   0.34150   0.01267  Uiso   1.00
H45    H     0.15670   0.95680   0.23740   0.01267  Uiso   1.00
H46    H     0.01350   0.01000   0.34210   0.01267  Uiso   1.00
H47    H     0.45390   0.88880   0.20690   0.01267  Uiso   1.00
H48    H     0.36720   0.87900   0.17030   0.01267  Uiso   1.00
H49    H     0.48960   0.35260   0.39940   0.01267  Uiso   1.00
H50    H     0.36980   0.37560   0.32700   0.01267  Uiso   1.00
H51    H     0.19270   0.71620   0.36010   0.01267  Uiso   1.00
H52    H     0.31260   0.69300   0.43240   0.01267  Uiso   1.00
H53    H     0.17370   0.49640   0.29870   0.01267  Uiso   1.00
H54    H     0.11720   0.63120   0.30010   0.01267  Uiso   1.00
H55    H     0.15460   0.78120   0.92670   0.01267  Uiso   1.00
H56    H     0.33310   0.61280   0.92300   0.01267  Uiso   1.00
H57    H     0.39010   0.74420   0.06800   0.01267  Uiso   1.00
H58    H     0.20670   0.90640   0.07210   0.01267  Uiso   1.00
H59    H     0.54600   0.56240   0.02240   0.01267  Uiso   1.00
H60    H     0.55690   0.54620   0.94380   0.01267  Uiso   1.00
H61    H     0.29180   0.56160   0.62350   0.01267  Uiso   1.00
H62    H     0.18300   0.48440   0.70030   0.01267  Uiso   1.00
H63    H     0.38160   0.19180   0.58990   0.01267  Uiso   1.00
H64    H     0.48520   0.27800   0.51550   0.01267  Uiso   1.00
H65    H     0.19290   0.29920   0.75520   0.01267  Uiso   1.00
H66    H     0.12220   0.30680   0.70150   0.01267  Uiso   1.00
H67    H     0.17320   0.08880   0.94280   0.01267  Uiso   1.00
H68    H     0.27370   0.13460   0.84150   0.01267  Uiso   1.00
H69    H     0.11350   0.04320   0.73740   0.01267  Uiso   1.00
H70    H     0.02350   0.99000   0.84210   0.01267  Uiso   1.00
H71    H     0.34270   0.11120   0.70690   0.01267  Uiso   1.00
H72    H     0.24620   0.12100   0.67030   0.01267  Uiso   1.00
H73    H     0.15780   0.35260   0.10060   0.01267  Uiso   1.00
H74    H     0.25460   0.37560   0.17300   0.01267  Uiso   1.00
H75    H     0.09110   0.71620   0.13990   0.01267  Uiso   1.00
H76    H     0.99440   0.69300   0.06760   0.01267  Uiso   1.00
H77    H     0.32990   0.49640   0.20130   0.01267  Uiso   1.00
H78    H     0.25160   0.63120   0.19990   0.01267  Uiso   1.00
H79    H     0.06420   0.78120   0.57330   0.01267  Uiso   1.00
H80    H     0.05410   0.61280   0.57700   0.01267  Uiso   1.00
H81    H     0.86570   0.74420   0.43200   0.01267  Uiso   1.00
H82    H     0.88690   0.90640   0.42790   0.01267  Uiso   1.00
H83    H     0.89160   0.56240   0.47760   0.01267  Uiso   1.00
H84    H     0.89690   0.54620   0.55620   0.01267  Uiso   1.00
H85    H     0.14660   0.56160   0.87650   0.01267  Uiso   1.00
H86    H     0.33260   0.48440   0.79970   0.01267  Uiso   1.00
H87    H     0.42660   0.19180   0.91010   0.01267  Uiso   1.00
H88    H     0.23680   0.27800   0.98450   0.01267  Uiso   1.00
H89    H     0.50790   0.29920   0.74480   0.01267  Uiso   1.00
H90    H     0.57100   0.30680   0.79850   0.01267  Uiso   1.00
H91    H     0.73800   0.08880   0.55720   0.01267  Uiso   1.00
H92    H     0.59170   0.13460   0.65850   0.01267  Uiso   1.00
H93    H     0.84330   0.04320   0.76260   0.01267  Uiso   1.00
H94    H     0.98650   0.99000   0.65790   0.01267  Uiso   1.00
H95    H     0.54610   0.11120   0.79310   0.01267  Uiso   1.00
H96    H     0.63280   0.12100   0.82970   0.01267  Uiso   1.00
C1     C     0.57040   0.57400   0.60860   0.01267  Uiso   1.00
C2     C     0.64180   0.56020   0.65160   0.01267  Uiso   1.00
C3     C     0.73030   0.45180   0.66330   0.01267  Uiso   1.00
C4     C     0.74720   0.35740   0.63200   0.01267  Uiso   1.00
C5     C     0.67580   0.37120   0.58890   0.01267  Uiso   1.00
C6     C     0.80700   0.44040   0.71130   0.01267  Uiso   1.00
C7     C     0.79870   0.22780   0.04300   0.01267  Uiso   1.00
C8     C     0.69010   0.32820   0.04670   0.01267  Uiso   1.00
C9     C     0.61630   0.34020   0.00500   0.01267  Uiso   1.00
C10    C     0.65740   0.25080   0.96080   0.01267  Uiso   1.00
C11    C     0.76810   0.15340   0.95810   0.01267  Uiso   1.00
C12    C     0.49359   0.44642   0.00930   0.01267  Uiso   1.00
C13    C     0.68860   0.51460   0.38300   0.01267  Uiso   1.00
C14    C     0.75460   0.56060   0.33640   0.01267  Uiso   1.00
C15    C     0.72810   0.67400   0.34400   0.01267  Uiso   1.00
C16    C     0.63780   0.73280   0.40140   0.01267  Uiso   1.00
C17    C     0.57530   0.68040   0.44620   0.01267  Uiso   1.00
C18    C     0.79730   0.72580   0.29060   0.01267  Uiso   1.00
C19    C     0.84050   0.91960   0.09890   0.01267  Uiso   1.00
C20    C     0.78150   0.88980   0.15970   0.01267  Uiso   1.00
C21    C     0.80280   0.89540   0.22330   0.01267  Uiso   1.00
C22    C     0.87430   0.94440   0.22140   0.01267  Uiso   1.00
C23    C     0.92910   0.97600   0.15760   0.01267  Uiso   1.00
C24    C     0.74350   0.85420   0.28970   0.01267  Uiso   1.00
C25    C     0.85560   0.57400   0.89140   0.01267  Uiso   1.00
C26    C     0.79800   0.56020   0.84840   0.01267  Uiso   1.00
C27    C     0.81790   0.45180   0.83670   0.01267  Uiso   1.00
C28    C     0.89540   0.35740   0.86800   0.01267  Uiso   1.00
C29    C     0.95300   0.37120   0.91110   0.01267  Uiso   1.00
C30    C     0.75260   0.44040   0.78870   0.01267  Uiso   1.00
C31    C     0.97350   0.22780   0.45700   0.01267  Uiso   1.00
C32    C     0.98170   0.32820   0.45330   0.01267  Uiso   1.00
C33    C     0.04350   0.34020   0.49500   0.01267  Uiso   1.00
C34    C     0.09180   0.25080   0.53920   0.01267  Uiso   1.00
C35    C     0.07850   0.15340   0.54190   0.01267  Uiso   1.00
C36    C     0.05999   0.44642   0.49070   0.01267  Uiso   1.00
C37    C     0.79680   0.51460   0.11700   0.01267  Uiso   1.00
C38    C     0.68480   0.56060   0.16360   0.01267  Uiso   1.00
C39    C     0.59790   0.67400   0.15600   0.01267  Uiso   1.00
C40    C     0.62940   0.73280   0.09860   0.01267  Uiso   1.00
C41    C     0.74430   0.68040   0.05380   0.01267  Uiso   1.00
C42    C     0.47690   0.72580   0.20940   0.01267  Uiso   1.00
C43    C     0.23990   0.91960   0.40110   0.01267  Uiso   1.00
C44    C     0.32870   0.88980   0.34030   0.01267  Uiso   1.00
C45    C     0.30180   0.89540   0.27670   0.01267  Uiso   1.00
C46    C     0.18130   0.94440   0.27860   0.01267  Uiso   1.00
C47    C     0.09490   0.97600   0.34240   0.01267  Uiso   1.00
C48    C     0.40230   0.85420   0.21030   0.01267  Uiso   1.00
C49    C     0.42960   0.42600   0.39140   0.01267  Uiso   1.00
C50    C     0.35820   0.43980   0.34840   0.01267  Uiso   1.00
C51    C     0.26970   0.54820   0.33670   0.01267  Uiso   1.00
C52    C     0.25280   0.64260   0.36800   0.01267  Uiso   1.00
C53    C     0.32420   0.62880   0.41110   0.01267  Uiso   1.00
C54    C     0.19300   0.55960   0.28870   0.01267  Uiso   1.00
C55    C     0.20130   0.77220   0.95700   0.01267  Uiso   1.00
C56    C     0.30990   0.67180   0.95330   0.01267  Uiso   1.00
C57    C     0.38370   0.65980   0.99500   0.01267  Uiso   1.00
C58    C     0.34260   0.74920   0.03920   0.01267  Uiso   1.00
C59    C     0.23190   0.84660   0.04190   0.01267  Uiso   1.00
C60    C     0.50641   0.55358   0.99070   0.01267  Uiso   1.00
C61    C     0.31140   0.48540   0.61700   0.01267  Uiso   1.00
C62    C     0.24540   0.43940   0.66360   0.01267  Uiso   1.00
C63    C     0.27190   0.32600   0.65600   0.01267  Uiso   1.00
C64    C     0.36220   0.26720   0.59860   0.01267  Uiso   1.00
C65    C     0.42470   0.31960   0.55380   0.01267  Uiso   1.00
C66    C     0.20270   0.27420   0.70940   0.01267  Uiso   1.00
C67    C     0.15950   0.08040   0.90110   0.01267  Uiso   1.00
C68    C     0.21850   0.11020   0.84030   0.01267  Uiso   1.00
C69    C     0.19720   0.10460   0.77670   0.01267  Uiso   1.00
C70    C     0.12570   0.05560   0.77860   0.01267  Uiso   1.00
C71    C     0.07090   0.02400   0.84240   0.01267  Uiso   1.00
C72    C     0.25650   0.14580   0.71030   0.01267  Uiso   1.00
C73    C     0.14440   0.42600   0.10860   0.01267  Uiso   1.00
C74    C     0.20200   0.43980   0.15160   0.01267  Uiso   1.00
C75    C     0.18210   0.54820   0.16330   0.01267  Uiso   1.00
C76    C     0.10460   0.64260   0.13200   0.01267  Uiso   1.00
C77    C     0.04700   0.62880   0.08890   0.01267  Uiso   1.00
C78    C     0.24740   0.55960   0.21130   0.01267  Uiso   1.00
C79    C     0.02650   0.77220   0.54300   0.01267  Uiso   1.00
C80    C     0.01830   0.67180   0.54670   0.01267  Uiso   1.00
C81    C     0.95650   0.65980   0.50500   0.01267  Uiso   1.00
C82    C     0.90820   0.74920   0.46080   0.01267  Uiso   1.00
C83    C     0.92150   0.84660   0.45810   0.01267  Uiso   1.00
C84    C     0.94001   0.55358   0.50930   0.01267  Uiso   1.00
C85    C     0.20320   0.48540   0.88300   0.01267  Uiso   1.00
C86    C     0.31520   0.43940   0.83640   0.01267  Uiso   1.00
C87    C     0.40210   0.32600   0.84400   0.01267  Uiso   1.00
C88    C     0.37060   0.26720   0.90140   0.01267  Uiso   1.00
C89    C     0.25570   0.31960   0.94620   0.01267  Uiso   1.00
C90    C     0.52310   0.27420   0.79060   0.01267  Uiso   1.00
C91    C     0.76010   0.08040   0.59890   0.01267  Uiso   1.00
C92    C     0.67130   0.11020   0.65970   0.01267  Uiso   1.00
C93    C     0.69820   0.10460   0.72330   0.01267  Uiso   1.00
C94    C     0.81870   0.05560   0.72140   0.01267  Uiso   1.00
C95    C     0.90510   0.02400   0.65760   0.01267  Uiso   1.00
C96    C     0.59770   0.14580   0.78970   0.01267  Uiso   1.00
N1     N     0.58750   0.47940   0.57720   0.01267  Uiso   1.00
N2     N     0.84027   0.14266   0.99800   0.01267  Uiso   1.00
N3     N     0.59875   0.57270   0.43654   0.01267  Uiso   1.00
N4     N     0.91728   0.96024   0.09689   0.01267  Uiso   1.00
N5     N     0.93310   0.47940   0.92280   0.01267  Uiso   1.00
N6     N     0.01707   0.14266   0.50200   0.01267  Uiso   1.00
N7     N     0.82855   0.57270   0.06346   0.01267  Uiso   1.00
N8     N     0.12248   0.96024   0.40311   0.01267  Uiso   1.00
N9     N     0.41250   0.52060   0.42280   0.01267  Uiso   1.00
N10    N     0.15973   0.85734   0.00200   0.01267  Uiso   1.00
N11    N     0.40125   0.42730   0.56346   0.01267  Uiso   1.00
N12    N     0.08272   0.03976   0.90311   0.01267  Uiso   1.00
N13    N     0.06690   0.52060   0.07720   0.01267  Uiso   1.00
N14    N     0.98293   0.85734   0.49800   0.01267  Uiso   1.00
N15    N     0.17145   0.42730   0.93654   0.01267  Uiso   1.00
N16    N     0.87752   0.03976   0.59689   0.01267  Uiso   1.00
