data_image0
_cell_length_a       10.2846
_cell_length_b       10.2846
_cell_length_c       20.0277
_cell_angle_alpha    90
_cell_angle_beta     90
_cell_angle_gamma    120

_symmetry_space_group_name_H-M    "P 1"
_symmetry_int_tables_number       1

loop_
  _symmetry_equiv_pos_as_xyz
  'x, y, z'

loop_
  _atom_site_label
  _atom_site_occupancy
  _atom_site_fract_x
  _atom_site_fract_y
  _atom_site_fract_z
  _atom_site_thermal_displace_type
  _atom_site_B_iso_or_equiv
  _atom_site_type_symbol
  O1       1.0000 0.54260  0.49610  0.68110  Biso   1.000  O
  O2       1.0000 0.43790  0.26250  0.64540  Biso   1.000  O
  C1       1.0000 0.48980  0.39640  0.63540  Biso   1.000  C
  C2       1.0000 0.49510  0.45160  0.56500  Biso   1.000  C
  C3       1.0000 0.45130  0.35070  0.51320  Biso   1.000  C
  H1       1.0000 0.41680  0.24770  0.52190  Biso   1.000  H
  C4       1.0000 0.45800  0.39970  0.44810  Biso   1.000  C
  H2       1.0000 0.42920  0.33020  0.41230  Biso   1.000  H
  O3       1.0000 0.50390  0.04650  0.68110  Biso   1.000  O
  O4       1.0000 0.73750  0.17540  0.64540  Biso   1.000  O
  C5       1.0000 0.60360  0.09340  0.63540  Biso   1.000  C
  C6       1.0000 0.54840  0.04350  0.56500  Biso   1.000  C
  C7       1.0000 0.64930  0.10060  0.51320  Biso   1.000  C
  H3       1.0000 0.75230  0.16910  0.52190  Biso   1.000  H
  C8       1.0000 0.60030  0.05830  0.44810  Biso   1.000  C
  H4       1.0000 0.66980  0.09900  0.41230  Biso   1.000  H
  O5       1.0000 0.95350  0.45740  0.68110  Biso   1.000  O
  O6       1.0000 0.82460  0.56210  0.64540  Biso   1.000  O
  C9       1.0000 0.90660  0.51020  0.63540  Biso   1.000  C
  C10      1.0000 0.95650  0.50490  0.56500  Biso   1.000  C
  C11      1.0000 0.89940  0.54870  0.51320  Biso   1.000  C
  H5       1.0000 0.83090  0.58320  0.52190  Biso   1.000  H
  C12      1.0000 0.94170  0.54200  0.44810  Biso   1.000  C
  H6       1.0000 0.90100  0.57080  0.41230  Biso   1.000  H
  O7       1.0000 0.45740  0.50390  0.18110  Biso   1.000  O
  O8       1.0000 0.56210  0.73750  0.14540  Biso   1.000  O
  C13      1.0000 0.51020  0.60360  0.13540  Biso   1.000  C
  C14      1.0000 0.50490  0.54840  0.06500  Biso   1.000  C
  C15      1.0000 0.54870  0.64930  0.01320  Biso   1.000  C
  H7       1.0000 0.58320  0.75230  0.02190  Biso   1.000  H
  C16      1.0000 0.54200  0.60030  0.94810  Biso   1.000  C
  H8       1.0000 0.57080  0.66980  0.91230  Biso   1.000  H
  O9       1.0000 0.49610  0.95350  0.18110  Biso   1.000  O
  O10      1.0000 0.26250  0.82460  0.14540  Biso   1.000  O
  C17      1.0000 0.39640  0.90660  0.13540  Biso   1.000  C
  C18      1.0000 0.45160  0.95650  0.06500  Biso   1.000  C
  C19      1.0000 0.35070  0.89940  0.01320  Biso   1.000  C
  H9       1.0000 0.24770  0.83090  0.02190  Biso   1.000  H
  C20      1.0000 0.39970  0.94170  0.94810  Biso   1.000  C
  H10      1.0000 0.33020  0.90100  0.91230  Biso   1.000  H
  O11      1.0000 0.04650  0.54260  0.18110  Biso   1.000  O
  O12      1.0000 0.17540  0.43790  0.14540  Biso   1.000  O
  C21      1.0000 0.09340  0.48980  0.13540  Biso   1.000  C
  C22      1.0000 0.04350  0.49510  0.06500  Biso   1.000  C
  C23      1.0000 0.10060  0.45130  0.01320  Biso   1.000  C
  H11      1.0000 0.16910  0.41680  0.02190  Biso   1.000  H
  C24      1.0000 0.05830  0.45800  0.94810  Biso   1.000  C
  H12      1.0000 0.09900  0.42920  0.91230  Biso   1.000  H
  O13      1.0000 0.45740  0.50390  0.31890  Biso   1.000  O
  O14      1.0000 0.56210  0.73750  0.35460  Biso   1.000  O
  C25      1.0000 0.51020  0.60360  0.36460  Biso   1.000  C
  C26      1.0000 0.50490  0.54840  0.43500  Biso   1.000  C
  C27      1.0000 0.54870  0.64930  0.48680  Biso   1.000  C
  H13      1.0000 0.58320  0.75230  0.47810  Biso   1.000  H
  C28      1.0000 0.54200  0.60030  0.55190  Biso   1.000  C
  H14      1.0000 0.57080  0.66980  0.58770  Biso   1.000  H
  O15      1.0000 0.49610  0.95350  0.31890  Biso   1.000  O
  O16      1.0000 0.26250  0.82460  0.35460  Biso   1.000  O
  C29      1.0000 0.39640  0.90660  0.36460  Biso   1.000  C
  C30      1.0000 0.45160  0.95650  0.43500  Biso   1.000  C
  C31      1.0000 0.35070  0.89940  0.48680  Biso   1.000  C
  H15      1.0000 0.24770  0.83090  0.47810  Biso   1.000  H
  C32      1.0000 0.39970  0.94170  0.55190  Biso   1.000  C
  H16      1.0000 0.33020  0.90100  0.58770  Biso   1.000  H
  O17      1.0000 0.04650  0.54260  0.31890  Biso   1.000  O
  O18      1.0000 0.17540  0.43790  0.35460  Biso   1.000  O
  C33      1.0000 0.09340  0.48980  0.36460  Biso   1.000  C
  C34      1.0000 0.04350  0.49510  0.43500  Biso   1.000  C
  C35      1.0000 0.10060  0.45130  0.48680  Biso   1.000  C
  H17      1.0000 0.16910  0.41680  0.47810  Biso   1.000  H
  C36      1.0000 0.05830  0.45800  0.55190  Biso   1.000  C
  H18      1.0000 0.09900  0.42920  0.58770  Biso   1.000  H
  O19      1.0000 0.54260  0.49610  0.81890  Biso   1.000  O
  O20      1.0000 0.43790  0.26250  0.85460  Biso   1.000  O
  C37      1.0000 0.48980  0.39640  0.86460  Biso   1.000  C
  C38      1.0000 0.49510  0.45160  0.93500  Biso   1.000  C
  C39      1.0000 0.45130  0.35070  0.98680  Biso   1.000  C
  H19      1.0000 0.41680  0.24770  0.97810  Biso   1.000  H
  C40      1.0000 0.45800  0.39970  0.05190  Biso   1.000  C
  H20      1.0000 0.42920  0.33020  0.08770  Biso   1.000  H
  O21      1.0000 0.50390  0.04650  0.81890  Biso   1.000  O
  O22      1.0000 0.73750  0.17540  0.85460  Biso   1.000  O
  C41      1.0000 0.60360  0.09340  0.86460  Biso   1.000  C
  C42      1.0000 0.54840  0.04350  0.93500  Biso   1.000  C
  C43      1.0000 0.64930  0.10060  0.98680  Biso   1.000  C
  H21      1.0000 0.75230  0.16910  0.97810  Biso   1.000  H
  C44      1.0000 0.60030  0.05830  0.05190  Biso   1.000  C
  H22      1.0000 0.66980  0.09900  0.08770  Biso   1.000  H
  O23      1.0000 0.95350  0.45740  0.81890  Biso   1.000  O
  O24      1.0000 0.82460  0.56210  0.85460  Biso   1.000  O
  C45      1.0000 0.90660  0.51020  0.86460  Biso   1.000  C
  C46      1.0000 0.95650  0.50490  0.93500  Biso   1.000  C
  C47      1.0000 0.89940  0.54870  0.98680  Biso   1.000  C
  H23      1.0000 0.83090  0.58320  0.97810  Biso   1.000  H
  C48      1.0000 0.94170  0.54200  0.05190  Biso   1.000  C
  H24      1.0000 0.90100  0.57080  0.08770  Biso   1.000  H
  Er1      1.0000 0.74683  0.58530  0.75000  Biso   1.000  Er
  Er2      1.0000 0.41470  0.16153  0.75000  Biso   1.000  Er
  Er3      1.0000 0.83847  0.25317  0.75000  Biso   1.000  Er
  Er4      1.0000 0.25317  0.41470  0.25000  Biso   1.000  Er
  Er5      1.0000 0.58530  0.83847  0.25000  Biso   1.000  Er
  Er6      1.0000 0.16153  0.74683  0.25000  Biso   1.000  Er
  O25      1.0000 0.66667  0.33333  0.75000  Biso   1.000  O
  O26      1.0000 0.33333  0.66667  0.25000  Biso   1.000  O
