data_image0
_cell_length_a       23.3836
_cell_length_b       23.3836
_cell_length_c       23.3836
_cell_angle_alpha    90
_cell_angle_beta     90
_cell_angle_gamma    90

_symmetry_space_group_name_H-M    "P 1"
_symmetry_int_tables_number       1

loop_
  _symmetry_equiv_pos_as_xyz
  'x, y, z'

loop_
  _atom_site_label
  _atom_site_occupancy
  _atom_site_fract_x
  _atom_site_fract_y
  _atom_site_fract_z
  _atom_site_thermal_displace_type
  _atom_site_B_iso_or_equiv
  _atom_site_type_symbol
  Zn1      1.0000 0.32086  0.73722  0.20690  Biso   1.000  Zn
  O1       1.0000 0.43770  0.94410  0.95310  Biso   1.000  O
  O2       1.0000 0.44380  0.93410  0.04760  Biso   1.000  O
  C1       1.0000 0.37860  0.87700  0.99720  Biso   1.000  C
  O3       1.0000 0.33360  0.78540  0.14280  Biso   1.000  O
  C2       1.0000 0.35370  0.86000  0.94590  Biso   1.000  C
  H1       1.0000 0.36600  0.87680  0.91100  Biso   1.000  H
  O4       1.0000 0.30460  0.83020  0.84310  Biso   1.000  O
  C3       1.0000 0.42130  0.92210  0.00010  Biso   1.000  C
  C4       1.0000 0.36320  0.84820  0.04800  Biso   1.000  C
  H2       1.0000 0.38080  0.85790  0.08330  Biso   1.000  H
  O5       1.0000 0.25760  0.75780  0.88590  Biso   1.000  O
  C5       1.0000 0.32090  0.80430  0.04540  Biso   1.000  C
  C6       1.0000 0.29420  0.79020  0.99490  Biso   1.000  C
  H3       1.0000 0.26530  0.76170  0.99370  Biso   1.000  H
  C7       1.0000 0.31110  0.81910  0.94530  Biso   1.000  C
  O6       1.0000 0.26850  0.73570  0.09940  Biso   1.000  O
  C8       1.0000 0.30310  0.77870  0.10050  Biso   1.000  C
  C9       1.0000 0.28850  0.80150  0.88640  Biso   1.000  C
  Zn2      1.0000 0.82086  0.23722  0.70690  Biso   1.000  Zn
  O7       1.0000 0.93770  0.44410  0.45310  Biso   1.000  O
  O8       1.0000 0.94380  0.43410  0.54760  Biso   1.000  O
  C10      1.0000 0.87860  0.37700  0.49720  Biso   1.000  C
  O9       1.0000 0.83360  0.28540  0.64280  Biso   1.000  O
  C11      1.0000 0.85370  0.36000  0.44590  Biso   1.000  C
  H4       1.0000 0.86600  0.37680  0.41100  Biso   1.000  H
  O10      1.0000 0.80460  0.33020  0.34310  Biso   1.000  O
  C12      1.0000 0.92130  0.42210  0.50010  Biso   1.000  C
  C13      1.0000 0.86320  0.34820  0.54800  Biso   1.000  C
  H5       1.0000 0.88080  0.35790  0.58330  Biso   1.000  H
  O11      1.0000 0.75760  0.25780  0.38590  Biso   1.000  O
  C14      1.0000 0.82090  0.30430  0.54540  Biso   1.000  C
  C15      1.0000 0.79420  0.29020  0.49490  Biso   1.000  C
  H6       1.0000 0.76530  0.26170  0.49370  Biso   1.000  H
  C16      1.0000 0.81110  0.31910  0.44530  Biso   1.000  C
  O12      1.0000 0.76850  0.23570  0.59940  Biso   1.000  O
  C17      1.0000 0.80310  0.27870  0.60050  Biso   1.000  C
  C18      1.0000 0.78850  0.30150  0.38640  Biso   1.000  C
  Zn3      1.0000 0.67914  0.26278  0.20690  Biso   1.000  Zn
  O13      1.0000 0.56230  0.05590  0.95310  Biso   1.000  O
  O14      1.0000 0.55620  0.06590  0.04760  Biso   1.000  O
  C19      1.0000 0.62140  0.12300  0.99720  Biso   1.000  C
  O15      1.0000 0.66640  0.21460  0.14280  Biso   1.000  O
  C20      1.0000 0.64630  0.14000  0.94590  Biso   1.000  C
  H7       1.0000 0.63400  0.12320  0.91100  Biso   1.000  H
  O16      1.0000 0.69540  0.16980  0.84310  Biso   1.000  O
  C21      1.0000 0.57870  0.07790  0.00010  Biso   1.000  C
  C22      1.0000 0.63680  0.15180  0.04800  Biso   1.000  C
  H8       1.0000 0.61920  0.14210  0.08330  Biso   1.000  H
  O17      1.0000 0.74240  0.24220  0.88590  Biso   1.000  O
  C23      1.0000 0.67910  0.19570  0.04540  Biso   1.000  C
  C24      1.0000 0.70580  0.20980  0.99490  Biso   1.000  C
  H9       1.0000 0.73470  0.23830  0.99370  Biso   1.000  H
  C25      1.0000 0.68890  0.18090  0.94530  Biso   1.000  C
  O18      1.0000 0.73150  0.26430  0.09940  Biso   1.000  O
  C26      1.0000 0.69690  0.22130  0.10050  Biso   1.000  C
  C27      1.0000 0.71150  0.19850  0.88640  Biso   1.000  C
  Zn4      1.0000 0.17914  0.76278  0.70690  Biso   1.000  Zn
  O19      1.0000 0.06230  0.55590  0.45310  Biso   1.000  O
  O20      1.0000 0.05620  0.56590  0.54760  Biso   1.000  O
  C28      1.0000 0.12140  0.62300  0.49720  Biso   1.000  C
  O21      1.0000 0.16640  0.71460  0.64280  Biso   1.000  O
  C29      1.0000 0.14630  0.64000  0.44590  Biso   1.000  C
  H10      1.0000 0.13400  0.62320  0.41100  Biso   1.000  H
  O22      1.0000 0.19540  0.66980  0.34310  Biso   1.000  O
  C30      1.0000 0.07870  0.57790  0.50010  Biso   1.000  C
  C31      1.0000 0.13680  0.65180  0.54800  Biso   1.000  C
  H11      1.0000 0.11920  0.64210  0.58330  Biso   1.000  H
  O23      1.0000 0.24240  0.74220  0.38590  Biso   1.000  O
  C32      1.0000 0.17910  0.69570  0.54540  Biso   1.000  C
  C33      1.0000 0.20580  0.70980  0.49490  Biso   1.000  C
  H12      1.0000 0.23470  0.73830  0.49370  Biso   1.000  H
  C34      1.0000 0.18890  0.68090  0.44530  Biso   1.000  C
  O24      1.0000 0.23150  0.76430  0.59940  Biso   1.000  O
  C35      1.0000 0.19690  0.72130  0.60050  Biso   1.000  C
  C36      1.0000 0.21150  0.69850  0.38640  Biso   1.000  C
  Zn5      1.0000 0.67914  0.73722  0.79310  Biso   1.000  Zn
  O25      1.0000 0.56230  0.94410  0.04690  Biso   1.000  O
  O26      1.0000 0.55620  0.93410  0.95240  Biso   1.000  O
  C37      1.0000 0.62140  0.87700  0.00280  Biso   1.000  C
  O27      1.0000 0.66640  0.78540  0.85720  Biso   1.000  O
  C38      1.0000 0.64630  0.86000  0.05410  Biso   1.000  C
  H13      1.0000 0.63400  0.87680  0.08900  Biso   1.000  H
  O28      1.0000 0.69540  0.83020  0.15690  Biso   1.000  O
  C39      1.0000 0.57870  0.92210  0.99990  Biso   1.000  C
  C40      1.0000 0.63680  0.84820  0.95200  Biso   1.000  C
  H14      1.0000 0.61920  0.85790  0.91670  Biso   1.000  H
  O29      1.0000 0.74240  0.75780  0.11410  Biso   1.000  O
  C41      1.0000 0.67910  0.80430  0.95460  Biso   1.000  C
  C42      1.0000 0.70580  0.79020  0.00510  Biso   1.000  C
  H15      1.0000 0.73470  0.76170  0.00630  Biso   1.000  H
  C43      1.0000 0.68890  0.81910  0.05470  Biso   1.000  C
  O30      1.0000 0.73150  0.73570  0.90060  Biso   1.000  O
  C44      1.0000 0.69690  0.77870  0.89950  Biso   1.000  C
  C45      1.0000 0.71150  0.80150  0.11360  Biso   1.000  C
  Zn6      1.0000 0.17914  0.23722  0.29310  Biso   1.000  Zn
  O31      1.0000 0.06230  0.44410  0.54690  Biso   1.000  O
  O32      1.0000 0.05620  0.43410  0.45240  Biso   1.000  O
  C46      1.0000 0.12140  0.37700  0.50280  Biso   1.000  C
  O33      1.0000 0.16640  0.28540  0.35720  Biso   1.000  O
  C47      1.0000 0.14630  0.36000  0.55410  Biso   1.000  C
  H16      1.0000 0.13400  0.37680  0.58900  Biso   1.000  H
  O34      1.0000 0.19540  0.33020  0.65690  Biso   1.000  O
  C48      1.0000 0.07870  0.42210  0.49990  Biso   1.000  C
  C49      1.0000 0.13680  0.34820  0.45200  Biso   1.000  C
  H17      1.0000 0.11920  0.35790  0.41670  Biso   1.000  H
  O35      1.0000 0.24240  0.25780  0.61410  Biso   1.000  O
  C50      1.0000 0.17910  0.30430  0.45460  Biso   1.000  C
  C51      1.0000 0.20580  0.29020  0.50510  Biso   1.000  C
  H18      1.0000 0.23470  0.26170  0.50630  Biso   1.000  H
  C52      1.0000 0.18890  0.31910  0.55470  Biso   1.000  C
  O36      1.0000 0.23150  0.23570  0.40060  Biso   1.000  O
  C53      1.0000 0.19690  0.27870  0.39950  Biso   1.000  C
  C54      1.0000 0.21150  0.30150  0.61360  Biso   1.000  C
  Zn7      1.0000 0.32086  0.26278  0.79310  Biso   1.000  Zn
  O37      1.0000 0.43770  0.05590  0.04690  Biso   1.000  O
  O38      1.0000 0.44380  0.06590  0.95240  Biso   1.000  O
  C55      1.0000 0.37860  0.12300  0.00280  Biso   1.000  C
  O39      1.0000 0.33360  0.21460  0.85720  Biso   1.000  O
  C56      1.0000 0.35370  0.14000  0.05410  Biso   1.000  C
  H19      1.0000 0.36600  0.12320  0.08900  Biso   1.000  H
  O40      1.0000 0.30460  0.16980  0.15690  Biso   1.000  O
  C57      1.0000 0.42130  0.07790  0.99990  Biso   1.000  C
  C58      1.0000 0.36320  0.15180  0.95200  Biso   1.000  C
  H20      1.0000 0.38080  0.14210  0.91670  Biso   1.000  H
  O41      1.0000 0.25760  0.24220  0.11410  Biso   1.000  O
  C59      1.0000 0.32090  0.19570  0.95460  Biso   1.000  C
  C60      1.0000 0.29420  0.20980  0.00510  Biso   1.000  C
  H21      1.0000 0.26530  0.23830  0.00630  Biso   1.000  H
  C61      1.0000 0.31110  0.18090  0.05470  Biso   1.000  C
  O42      1.0000 0.26850  0.26430  0.90060  Biso   1.000  O
  C62      1.0000 0.30310  0.22130  0.89950  Biso   1.000  C
  C63      1.0000 0.28850  0.19850  0.11360  Biso   1.000  C
  Zn8      1.0000 0.82086  0.76278  0.29310  Biso   1.000  Zn
  O43      1.0000 0.93770  0.55590  0.54690  Biso   1.000  O
  O44      1.0000 0.94380  0.56590  0.45240  Biso   1.000  O
  C64      1.0000 0.87860  0.62300  0.50280  Biso   1.000  C
  O45      1.0000 0.83360  0.71460  0.35720  Biso   1.000  O
  C65      1.0000 0.85370  0.64000  0.55410  Biso   1.000  C
  H22      1.0000 0.86600  0.62320  0.58900  Biso   1.000  H
  O46      1.0000 0.80460  0.66980  0.65690  Biso   1.000  O
  C66      1.0000 0.92130  0.57790  0.49990  Biso   1.000  C
  C67      1.0000 0.86320  0.65180  0.45200  Biso   1.000  C
  H23      1.0000 0.88080  0.64210  0.41670  Biso   1.000  H
  O47      1.0000 0.75760  0.74220  0.61410  Biso   1.000  O
  C68      1.0000 0.82090  0.69570  0.45460  Biso   1.000  C
  C69      1.0000 0.79420  0.70980  0.50510  Biso   1.000  C
  H24      1.0000 0.76530  0.73830  0.50630  Biso   1.000  H
  C70      1.0000 0.81110  0.68090  0.55470  Biso   1.000  C
  O48      1.0000 0.76850  0.76430  0.40060  Biso   1.000  O
  C71      1.0000 0.80310  0.72130  0.39950  Biso   1.000  C
  C72      1.0000 0.78850  0.69850  0.61360  Biso   1.000  C
  Zn9      1.0000 0.20690  0.32086  0.73722  Biso   1.000  Zn
  O49      1.0000 0.95310  0.43770  0.94410  Biso   1.000  O
  O50      1.0000 0.04760  0.44380  0.93410  Biso   1.000  O
  C73      1.0000 0.99720  0.37860  0.87700  Biso   1.000  C
  O51      1.0000 0.14280  0.33360  0.78540  Biso   1.000  O
  C74      1.0000 0.94590  0.35370  0.86000  Biso   1.000  C
  H25      1.0000 0.91100  0.36600  0.87680  Biso   1.000  H
  O52      1.0000 0.84310  0.30460  0.83020  Biso   1.000  O
  C75      1.0000 0.00010  0.42130  0.92210  Biso   1.000  C
  C76      1.0000 0.04800  0.36320  0.84820  Biso   1.000  C
  H26      1.0000 0.08330  0.38080  0.85790  Biso   1.000  H
  O53      1.0000 0.88590  0.25760  0.75780  Biso   1.000  O
  C77      1.0000 0.04540  0.32090  0.80430  Biso   1.000  C
  C78      1.0000 0.99490  0.29420  0.79020  Biso   1.000  C
  H27      1.0000 0.99370  0.26530  0.76170  Biso   1.000  H
  C79      1.0000 0.94530  0.31110  0.81910  Biso   1.000  C
  O54      1.0000 0.09940  0.26850  0.73570  Biso   1.000  O
  C80      1.0000 0.10050  0.30310  0.77870  Biso   1.000  C
  C81      1.0000 0.88640  0.28850  0.80150  Biso   1.000  C
  Zn10     1.0000 0.70690  0.82086  0.23722  Biso   1.000  Zn
  O55      1.0000 0.45310  0.93770  0.44410  Biso   1.000  O
  O56      1.0000 0.54760  0.94380  0.43410  Biso   1.000  O
  C82      1.0000 0.49720  0.87860  0.37700  Biso   1.000  C
  O57      1.0000 0.64280  0.83360  0.28540  Biso   1.000  O
  C83      1.0000 0.44590  0.85370  0.36000  Biso   1.000  C
  H28      1.0000 0.41100  0.86600  0.37680  Biso   1.000  H
  O58      1.0000 0.34310  0.80460  0.33020  Biso   1.000  O
  C84      1.0000 0.50010  0.92130  0.42210  Biso   1.000  C
  C85      1.0000 0.54800  0.86320  0.34820  Biso   1.000  C
  H29      1.0000 0.58330  0.88080  0.35790  Biso   1.000  H
  O59      1.0000 0.38590  0.75760  0.25780  Biso   1.000  O
  C86      1.0000 0.54540  0.82090  0.30430  Biso   1.000  C
  C87      1.0000 0.49490  0.79420  0.29020  Biso   1.000  C
  H30      1.0000 0.49370  0.76530  0.26170  Biso   1.000  H
  C88      1.0000 0.44530  0.81110  0.31910  Biso   1.000  C
  O60      1.0000 0.59940  0.76850  0.23570  Biso   1.000  O
  C89      1.0000 0.60050  0.80310  0.27870  Biso   1.000  C
  C90      1.0000 0.38640  0.78850  0.30150  Biso   1.000  C
  Zn11     1.0000 0.20690  0.67914  0.26278  Biso   1.000  Zn
  O61      1.0000 0.95310  0.56230  0.05590  Biso   1.000  O
  O62      1.0000 0.04760  0.55620  0.06590  Biso   1.000  O
  C91      1.0000 0.99720  0.62140  0.12300  Biso   1.000  C
  O63      1.0000 0.14280  0.66640  0.21460  Biso   1.000  O
  C92      1.0000 0.94590  0.64630  0.14000  Biso   1.000  C
  H31      1.0000 0.91100  0.63400  0.12320  Biso   1.000  H
  O64      1.0000 0.84310  0.69540  0.16980  Biso   1.000  O
  C93      1.0000 0.00010  0.57870  0.07790  Biso   1.000  C
  C94      1.0000 0.04800  0.63680  0.15180  Biso   1.000  C
  H32      1.0000 0.08330  0.61920  0.14210  Biso   1.000  H
  O65      1.0000 0.88590  0.74240  0.24220  Biso   1.000  O
  C95      1.0000 0.04540  0.67910  0.19570  Biso   1.000  C
  C96      1.0000 0.99490  0.70580  0.20980  Biso   1.000  C
  H33      1.0000 0.99370  0.73470  0.23830  Biso   1.000  H
  C97      1.0000 0.94530  0.68890  0.18090  Biso   1.000  C
  O66      1.0000 0.09940  0.73150  0.26430  Biso   1.000  O
  C98      1.0000 0.10050  0.69690  0.22130  Biso   1.000  C
  C99      1.0000 0.88640  0.71150  0.19850  Biso   1.000  C
  Zn12     1.0000 0.70690  0.17914  0.76278  Biso   1.000  Zn
  O67      1.0000 0.45310  0.06230  0.55590  Biso   1.000  O
  O68      1.0000 0.54760  0.05620  0.56590  Biso   1.000  O
  C100     1.0000 0.49720  0.12140  0.62300  Biso   1.000  C
  O69      1.0000 0.64280  0.16640  0.71460  Biso   1.000  O
  C101     1.0000 0.44590  0.14630  0.64000  Biso   1.000  C
  H34      1.0000 0.41100  0.13400  0.62320  Biso   1.000  H
  O70      1.0000 0.34310  0.19540  0.66980  Biso   1.000  O
  C102     1.0000 0.50010  0.07870  0.57790  Biso   1.000  C
  C103     1.0000 0.54800  0.13680  0.65180  Biso   1.000  C
  H35      1.0000 0.58330  0.11920  0.64210  Biso   1.000  H
  O71      1.0000 0.38590  0.24240  0.74220  Biso   1.000  O
  C104     1.0000 0.54540  0.17910  0.69570  Biso   1.000  C
  C105     1.0000 0.49490  0.20580  0.70980  Biso   1.000  C
  H36      1.0000 0.49370  0.23470  0.73830  Biso   1.000  H
  C106     1.0000 0.44530  0.18890  0.68090  Biso   1.000  C
  O72      1.0000 0.59940  0.23150  0.76430  Biso   1.000  O
  C107     1.0000 0.60050  0.19690  0.72130  Biso   1.000  C
  C108     1.0000 0.38640  0.21150  0.69850  Biso   1.000  C
  Zn13     1.0000 0.79310  0.67914  0.73722  Biso   1.000  Zn
  O73      1.0000 0.04690  0.56230  0.94410  Biso   1.000  O
  O74      1.0000 0.95240  0.55620  0.93410  Biso   1.000  O
  C109     1.0000 0.00280  0.62140  0.87700  Biso   1.000  C
  O75      1.0000 0.85720  0.66640  0.78540  Biso   1.000  O
  C110     1.0000 0.05410  0.64630  0.86000  Biso   1.000  C
  H37      1.0000 0.08900  0.63400  0.87680  Biso   1.000  H
  O76      1.0000 0.15690  0.69540  0.83020  Biso   1.000  O
  C111     1.0000 0.99990  0.57870  0.92210  Biso   1.000  C
  C112     1.0000 0.95200  0.63680  0.84820  Biso   1.000  C
  H38      1.0000 0.91670  0.61920  0.85790  Biso   1.000  H
  O77      1.0000 0.11410  0.74240  0.75780  Biso   1.000  O
  C113     1.0000 0.95460  0.67910  0.80430  Biso   1.000  C
  C114     1.0000 0.00510  0.70580  0.79020  Biso   1.000  C
  H39      1.0000 0.00630  0.73470  0.76170  Biso   1.000  H
  C115     1.0000 0.05470  0.68890  0.81910  Biso   1.000  C
  O78      1.0000 0.90060  0.73150  0.73570  Biso   1.000  O
  C116     1.0000 0.89950  0.69690  0.77870  Biso   1.000  C
  C117     1.0000 0.11360  0.71150  0.80150  Biso   1.000  C
  Zn14     1.0000 0.29310  0.17914  0.23722  Biso   1.000  Zn
  O79      1.0000 0.54690  0.06230  0.44410  Biso   1.000  O
  O80      1.0000 0.45240  0.05620  0.43410  Biso   1.000  O
  C118     1.0000 0.50280  0.12140  0.37700  Biso   1.000  C
  O81      1.0000 0.35720  0.16640  0.28540  Biso   1.000  O
  C119     1.0000 0.55410  0.14630  0.36000  Biso   1.000  C
  H40      1.0000 0.58900  0.13400  0.37680  Biso   1.000  H
  O82      1.0000 0.65690  0.19540  0.33020  Biso   1.000  O
  C120     1.0000 0.49990  0.07870  0.42210  Biso   1.000  C
  C121     1.0000 0.45200  0.13680  0.34820  Biso   1.000  C
  H41      1.0000 0.41670  0.11920  0.35790  Biso   1.000  H
  O83      1.0000 0.61410  0.24240  0.25780  Biso   1.000  O
  C122     1.0000 0.45460  0.17910  0.30430  Biso   1.000  C
  C123     1.0000 0.50510  0.20580  0.29020  Biso   1.000  C
  H42      1.0000 0.50630  0.23470  0.26170  Biso   1.000  H
  C124     1.0000 0.55470  0.18890  0.31910  Biso   1.000  C
  O84      1.0000 0.40060  0.23150  0.23570  Biso   1.000  O
  C125     1.0000 0.39950  0.19690  0.27870  Biso   1.000  C
  C126     1.0000 0.61360  0.21150  0.30150  Biso   1.000  C
  Zn15     1.0000 0.79310  0.32086  0.26278  Biso   1.000  Zn
  O85      1.0000 0.04690  0.43770  0.05590  Biso   1.000  O
  O86      1.0000 0.95240  0.44380  0.06590  Biso   1.000  O
  C127     1.0000 0.00280  0.37860  0.12300  Biso   1.000  C
  O87      1.0000 0.85720  0.33360  0.21460  Biso   1.000  O
  C128     1.0000 0.05410  0.35370  0.14000  Biso   1.000  C
  H43      1.0000 0.08900  0.36600  0.12320  Biso   1.000  H
  O88      1.0000 0.15690  0.30460  0.16980  Biso   1.000  O
  C129     1.0000 0.99990  0.42130  0.07790  Biso   1.000  C
  C130     1.0000 0.95200  0.36320  0.15180  Biso   1.000  C
  H44      1.0000 0.91670  0.38080  0.14210  Biso   1.000  H
  O89      1.0000 0.11410  0.25760  0.24220  Biso   1.000  O
  C131     1.0000 0.95460  0.32090  0.19570  Biso   1.000  C
  C132     1.0000 0.00510  0.29420  0.20980  Biso   1.000  C
  H45      1.0000 0.00630  0.26530  0.23830  Biso   1.000  H
  C133     1.0000 0.05470  0.31110  0.18090  Biso   1.000  C
  O90      1.0000 0.90060  0.26850  0.26430  Biso   1.000  O
  C134     1.0000 0.89950  0.30310  0.22130  Biso   1.000  C
  C135     1.0000 0.11360  0.28850  0.19850  Biso   1.000  C
  Zn16     1.0000 0.29310  0.82086  0.76278  Biso   1.000  Zn
  O91      1.0000 0.54690  0.93770  0.55590  Biso   1.000  O
  O92      1.0000 0.45240  0.94380  0.56590  Biso   1.000  O
  C136     1.0000 0.50280  0.87860  0.62300  Biso   1.000  C
  O93      1.0000 0.35720  0.83360  0.71460  Biso   1.000  O
  C137     1.0000 0.55410  0.85370  0.64000  Biso   1.000  C
  H46      1.0000 0.58900  0.86600  0.62320  Biso   1.000  H
  O94      1.0000 0.65690  0.80460  0.66980  Biso   1.000  O
  C138     1.0000 0.49990  0.92130  0.57790  Biso   1.000  C
  C139     1.0000 0.45200  0.86320  0.65180  Biso   1.000  C
  H47      1.0000 0.41670  0.88080  0.64210  Biso   1.000  H
  O95      1.0000 0.61410  0.75760  0.74220  Biso   1.000  O
  C140     1.0000 0.45460  0.82090  0.69570  Biso   1.000  C
  C141     1.0000 0.50510  0.79420  0.70980  Biso   1.000  C
  H48      1.0000 0.50630  0.76530  0.73830  Biso   1.000  H
  C142     1.0000 0.55470  0.81110  0.68090  Biso   1.000  C
  O96      1.0000 0.40060  0.76850  0.76430  Biso   1.000  O
  C143     1.0000 0.39950  0.80310  0.72130  Biso   1.000  C
  C144     1.0000 0.61360  0.78850  0.69850  Biso   1.000  C
  Zn17     1.0000 0.73722  0.20690  0.32086  Biso   1.000  Zn
  O97      1.0000 0.94410  0.95310  0.43770  Biso   1.000  O
  O98      1.0000 0.93410  0.04760  0.44380  Biso   1.000  O
  C145     1.0000 0.87700  0.99720  0.37860  Biso   1.000  C
  O99      1.0000 0.78540  0.14280  0.33360  Biso   1.000  O
  C146     1.0000 0.86000  0.94590  0.35370  Biso   1.000  C
  H49      1.0000 0.87680  0.91100  0.36600  Biso   1.000  H
  O100     1.0000 0.83020  0.84310  0.30460  Biso   1.000  O
  C147     1.0000 0.92210  0.00010  0.42130  Biso   1.000  C
  C148     1.0000 0.84820  0.04800  0.36320  Biso   1.000  C
  H50      1.0000 0.85790  0.08330  0.38080  Biso   1.000  H
  O101     1.0000 0.75780  0.88590  0.25760  Biso   1.000  O
  C149     1.0000 0.80430  0.04540  0.32090  Biso   1.000  C
  C150     1.0000 0.79020  0.99490  0.29420  Biso   1.000  C
  H51      1.0000 0.76170  0.99370  0.26530  Biso   1.000  H
  C151     1.0000 0.81910  0.94530  0.31110  Biso   1.000  C
  O102     1.0000 0.73570  0.09940  0.26850  Biso   1.000  O
  C152     1.0000 0.77870  0.10050  0.30310  Biso   1.000  C
  C153     1.0000 0.80150  0.88640  0.28850  Biso   1.000  C
  Zn18     1.0000 0.23722  0.70690  0.82086  Biso   1.000  Zn
  O103     1.0000 0.44410  0.45310  0.93770  Biso   1.000  O
  O104     1.0000 0.43410  0.54760  0.94380  Biso   1.000  O
  C154     1.0000 0.37700  0.49720  0.87860  Biso   1.000  C
  O105     1.0000 0.28540  0.64280  0.83360  Biso   1.000  O
  C155     1.0000 0.36000  0.44590  0.85370  Biso   1.000  C
  H52      1.0000 0.37680  0.41100  0.86600  Biso   1.000  H
  O106     1.0000 0.33020  0.34310  0.80460  Biso   1.000  O
  C156     1.0000 0.42210  0.50010  0.92130  Biso   1.000  C
  C157     1.0000 0.34820  0.54800  0.86320  Biso   1.000  C
  H53      1.0000 0.35790  0.58330  0.88080  Biso   1.000  H
  O107     1.0000 0.25780  0.38590  0.75760  Biso   1.000  O
  C158     1.0000 0.30430  0.54540  0.82090  Biso   1.000  C
  C159     1.0000 0.29020  0.49490  0.79420  Biso   1.000  C
  H54      1.0000 0.26170  0.49370  0.76530  Biso   1.000  H
  C160     1.0000 0.31910  0.44530  0.81110  Biso   1.000  C
  O108     1.0000 0.23570  0.59940  0.76850  Biso   1.000  O
  C161     1.0000 0.27870  0.60050  0.80310  Biso   1.000  C
  C162     1.0000 0.30150  0.38640  0.78850  Biso   1.000  C
  Zn19     1.0000 0.26278  0.20690  0.67914  Biso   1.000  Zn
  O109     1.0000 0.05590  0.95310  0.56230  Biso   1.000  O
  O110     1.0000 0.06590  0.04760  0.55620  Biso   1.000  O
  C163     1.0000 0.12300  0.99720  0.62140  Biso   1.000  C
  O111     1.0000 0.21460  0.14280  0.66640  Biso   1.000  O
  C164     1.0000 0.14000  0.94590  0.64630  Biso   1.000  C
  H55      1.0000 0.12320  0.91100  0.63400  Biso   1.000  H
  O112     1.0000 0.16980  0.84310  0.69540  Biso   1.000  O
  C165     1.0000 0.07790  0.00010  0.57870  Biso   1.000  C
  C166     1.0000 0.15180  0.04800  0.63680  Biso   1.000  C
  H56      1.0000 0.14210  0.08330  0.61920  Biso   1.000  H
  O113     1.0000 0.24220  0.88590  0.74240  Biso   1.000  O
  C167     1.0000 0.19570  0.04540  0.67910  Biso   1.000  C
  C168     1.0000 0.20980  0.99490  0.70580  Biso   1.000  C
  H57      1.0000 0.23830  0.99370  0.73470  Biso   1.000  H
  C169     1.0000 0.18090  0.94530  0.68890  Biso   1.000  C
  O114     1.0000 0.26430  0.09940  0.73150  Biso   1.000  O
  C170     1.0000 0.22130  0.10050  0.69690  Biso   1.000  C
  C171     1.0000 0.19850  0.88640  0.71150  Biso   1.000  C
  Zn20     1.0000 0.76278  0.70690  0.17914  Biso   1.000  Zn
  O115     1.0000 0.55590  0.45310  0.06230  Biso   1.000  O
  O116     1.0000 0.56590  0.54760  0.05620  Biso   1.000  O
  C172     1.0000 0.62300  0.49720  0.12140  Biso   1.000  C
  O117     1.0000 0.71460  0.64280  0.16640  Biso   1.000  O
  C173     1.0000 0.64000  0.44590  0.14630  Biso   1.000  C
  H58      1.0000 0.62320  0.41100  0.13400  Biso   1.000  H
  O118     1.0000 0.66980  0.34310  0.19540  Biso   1.000  O
  C174     1.0000 0.57790  0.50010  0.07870  Biso   1.000  C
  C175     1.0000 0.65180  0.54800  0.13680  Biso   1.000  C
  H59      1.0000 0.64210  0.58330  0.11920  Biso   1.000  H
  O119     1.0000 0.74220  0.38590  0.24240  Biso   1.000  O
  C176     1.0000 0.69570  0.54540  0.17910  Biso   1.000  C
  C177     1.0000 0.70980  0.49490  0.20580  Biso   1.000  C
  H60      1.0000 0.73830  0.49370  0.23470  Biso   1.000  H
  C178     1.0000 0.68090  0.44530  0.18890  Biso   1.000  C
  O120     1.0000 0.76430  0.59940  0.23150  Biso   1.000  O
  C179     1.0000 0.72130  0.60050  0.19690  Biso   1.000  C
  C180     1.0000 0.69850  0.38640  0.21150  Biso   1.000  C
  Zn21     1.0000 0.73722  0.79310  0.67914  Biso   1.000  Zn
  O121     1.0000 0.94410  0.04690  0.56230  Biso   1.000  O
  O122     1.0000 0.93410  0.95240  0.55620  Biso   1.000  O
  C181     1.0000 0.87700  0.00280  0.62140  Biso   1.000  C
  O123     1.0000 0.78540  0.85720  0.66640  Biso   1.000  O
  C182     1.0000 0.86000  0.05410  0.64630  Biso   1.000  C
  H61      1.0000 0.87680  0.08900  0.63400  Biso   1.000  H
  O124     1.0000 0.83020  0.15690  0.69540  Biso   1.000  O
  C183     1.0000 0.92210  0.99990  0.57870  Biso   1.000  C
  C184     1.0000 0.84820  0.95200  0.63680  Biso   1.000  C
  H62      1.0000 0.85790  0.91670  0.61920  Biso   1.000  H
  O125     1.0000 0.75780  0.11410  0.74240  Biso   1.000  O
  C185     1.0000 0.80430  0.95460  0.67910  Biso   1.000  C
  C186     1.0000 0.79020  0.00510  0.70580  Biso   1.000  C
  H63      1.0000 0.76170  0.00630  0.73470  Biso   1.000  H
  C187     1.0000 0.81910  0.05470  0.68890  Biso   1.000  C
  O126     1.0000 0.73570  0.90060  0.73150  Biso   1.000  O
  C188     1.0000 0.77870  0.89950  0.69690  Biso   1.000  C
  C189     1.0000 0.80150  0.11360  0.71150  Biso   1.000  C
  Zn22     1.0000 0.23722  0.29310  0.17914  Biso   1.000  Zn
  O127     1.0000 0.44410  0.54690  0.06230  Biso   1.000  O
  O128     1.0000 0.43410  0.45240  0.05620  Biso   1.000  O
  C190     1.0000 0.37700  0.50280  0.12140  Biso   1.000  C
  O129     1.0000 0.28540  0.35720  0.16640  Biso   1.000  O
  C191     1.0000 0.36000  0.55410  0.14630  Biso   1.000  C
  H64      1.0000 0.37680  0.58900  0.13400  Biso   1.000  H
  O130     1.0000 0.33020  0.65690  0.19540  Biso   1.000  O
  C192     1.0000 0.42210  0.49990  0.07870  Biso   1.000  C
  C193     1.0000 0.34820  0.45200  0.13680  Biso   1.000  C
  H65      1.0000 0.35790  0.41670  0.11920  Biso   1.000  H
  O131     1.0000 0.25780  0.61410  0.24240  Biso   1.000  O
  C194     1.0000 0.30430  0.45460  0.17910  Biso   1.000  C
  C195     1.0000 0.29020  0.50510  0.20580  Biso   1.000  C
  H66      1.0000 0.26170  0.50630  0.23470  Biso   1.000  H
  C196     1.0000 0.31910  0.55470  0.18890  Biso   1.000  C
  O132     1.0000 0.23570  0.40060  0.23150  Biso   1.000  O
  C197     1.0000 0.27870  0.39950  0.19690  Biso   1.000  C
  C198     1.0000 0.30150  0.61360  0.21150  Biso   1.000  C
  Zn23     1.0000 0.26278  0.79310  0.32086  Biso   1.000  Zn
  O133     1.0000 0.05590  0.04690  0.43770  Biso   1.000  O
  O134     1.0000 0.06590  0.95240  0.44380  Biso   1.000  O
  C199     1.0000 0.12300  0.00280  0.37860  Biso   1.000  C
  O135     1.0000 0.21460  0.85720  0.33360  Biso   1.000  O
  C200     1.0000 0.14000  0.05410  0.35370  Biso   1.000  C
  H67      1.0000 0.12320  0.08900  0.36600  Biso   1.000  H
  O136     1.0000 0.16980  0.15690  0.30460  Biso   1.000  O
  C201     1.0000 0.07790  0.99990  0.42130  Biso   1.000  C
  C202     1.0000 0.15180  0.95200  0.36320  Biso   1.000  C
  H68      1.0000 0.14210  0.91670  0.38080  Biso   1.000  H
  O137     1.0000 0.24220  0.11410  0.25760  Biso   1.000  O
  C203     1.0000 0.19570  0.95460  0.32090  Biso   1.000  C
  C204     1.0000 0.20980  0.00510  0.29420  Biso   1.000  C
  H69      1.0000 0.23830  0.00630  0.26530  Biso   1.000  H
  C205     1.0000 0.18090  0.05470  0.31110  Biso   1.000  C
  O138     1.0000 0.26430  0.90060  0.26850  Biso   1.000  O
  C206     1.0000 0.22130  0.89950  0.30310  Biso   1.000  C
  C207     1.0000 0.19850  0.11360  0.28850  Biso   1.000  C
  Zn24     1.0000 0.76278  0.29310  0.82086  Biso   1.000  Zn
  O139     1.0000 0.55590  0.54690  0.93770  Biso   1.000  O
  O140     1.0000 0.56590  0.45240  0.94380  Biso   1.000  O
  C208     1.0000 0.62300  0.50280  0.87860  Biso   1.000  C
  O141     1.0000 0.71460  0.35720  0.83360  Biso   1.000  O
  C209     1.0000 0.64000  0.55410  0.85370  Biso   1.000  C
  H70      1.0000 0.62320  0.58900  0.86600  Biso   1.000  H
  O142     1.0000 0.66980  0.65690  0.80460  Biso   1.000  O
  C210     1.0000 0.57790  0.49990  0.92130  Biso   1.000  C
  C211     1.0000 0.65180  0.45200  0.86320  Biso   1.000  C
  H71      1.0000 0.64210  0.41670  0.88080  Biso   1.000  H
  O143     1.0000 0.74220  0.61410  0.75760  Biso   1.000  O
  C212     1.0000 0.69570  0.45460  0.82090  Biso   1.000  C
  C213     1.0000 0.70980  0.50510  0.79420  Biso   1.000  C
  H72      1.0000 0.73830  0.50630  0.76530  Biso   1.000  H
  C214     1.0000 0.68090  0.55470  0.81110  Biso   1.000  C
  O144     1.0000 0.76430  0.40060  0.76850  Biso   1.000  O
  C215     1.0000 0.72130  0.39950  0.80310  Biso   1.000  C
  C216     1.0000 0.69850  0.61360  0.78850  Biso   1.000  C
  Zn25     1.0000 0.50000  0.00000  0.93624  Biso   1.000  Zn
  Zn26     1.0000 0.00000  0.50000  0.43624  Biso   1.000  Zn
  Zn27     1.0000 0.50000  0.00000  0.06376  Biso   1.000  Zn
  Zn28     1.0000 0.00000  0.50000  0.56376  Biso   1.000  Zn
  Zn29     1.0000 0.93624  0.50000  0.00000  Biso   1.000  Zn
  Zn30     1.0000 0.43624  0.00000  0.50000  Biso   1.000  Zn
  Zn31     1.0000 0.06376  0.50000  0.00000  Biso   1.000  Zn
  Zn32     1.0000 0.56376  0.00000  0.50000  Biso   1.000  Zn
  Zn33     1.0000 0.00000  0.93624  0.50000  Biso   1.000  Zn
  Zn34     1.0000 0.50000  0.43624  0.00000  Biso   1.000  Zn
  Zn35     1.0000 0.00000  0.06376  0.50000  Biso   1.000  Zn
  Zn36     1.0000 0.50000  0.56376  0.00000  Biso   1.000  Zn
  O145     1.0000 0.24990  0.75010  0.24990  Biso   1.000  O
  O146     1.0000 0.74990  0.25010  0.74990  Biso   1.000  O
  O147     1.0000 0.75010  0.24990  0.24990  Biso   1.000  O
  O148     1.0000 0.25010  0.74990  0.74990  Biso   1.000  O
  O149     1.0000 0.75010  0.75010  0.75010  Biso   1.000  O
  O150     1.0000 0.25010  0.25010  0.25010  Biso   1.000  O
  O151     1.0000 0.24990  0.24990  0.75010  Biso   1.000  O
  O152     1.0000 0.74990  0.74990  0.25010  Biso   1.000  O
