data_image0
_cell_length_a       20.4968
_cell_length_b       20.4968
_cell_length_c       17.8183
_cell_angle_alpha    90
_cell_angle_beta     90
_cell_angle_gamma    90

_symmetry_space_group_name_H-M    "P 1"
_symmetry_int_tables_number       1

loop_
  _symmetry_equiv_pos_as_xyz
  'x, y, z'

loop_
  _atom_site_label
  _atom_site_occupancy
  _atom_site_fract_x
  _atom_site_fract_y
  _atom_site_fract_z
  _atom_site_thermal_displace_type
  _atom_site_B_iso_or_equiv
  _atom_site_type_symbol
  Zn1      1.0000 0.25772  0.11906  0.85942  Biso   1.000  Zn
  C1       1.0000 0.14210  0.21550  0.69890  Biso   1.000  C
  C2       1.0000 0.14370  0.22620  0.62220  Biso   1.000  C
  H1       1.0000 0.17960  0.20980  0.59320  Biso   1.000  H
  C3       1.0000 0.09430  0.26080  0.58730  Biso   1.000  C
  C4       1.0000 0.04090  0.28390  0.62970  Biso   1.000  C
  H2       1.0000 0.00730  0.30920  0.60590  Biso   1.000  H
  C5       1.0000 0.03750  0.27030  0.70650  Biso   1.000  C
  C6       1.0000 0.08800  0.23630  0.74070  Biso   1.000  C
  H3       1.0000 0.08600  0.22690  0.79340  Biso   1.000  H
  C7       1.0000 0.19750  0.18010  0.73650  Biso   1.000  C
  C8       1.0000 0.09250  0.27190  0.50400  Biso   1.000  C
  C9       1.0000 0.97860  0.28970  0.74900  Biso   1.000  C
  O1       1.0000 0.24201  0.15970  0.69700  Biso   1.000  O
  O2       1.0000 0.19216  0.17310  0.80719  Biso   1.000  O
  O3       1.0000 0.13010  0.23660  0.46440  Biso   1.000  O
  O4       1.0000 0.05430  0.31090  0.47680  Biso   1.000  O
  O5       1.0000 0.94565  0.33756  0.72310  Biso   1.000  O
  O6       1.0000 0.96571  0.25720  0.80790  Biso   1.000  O
  Zn2      1.0000 0.75772  0.61906  0.35942  Biso   1.000  Zn
  C10      1.0000 0.64210  0.71550  0.19890  Biso   1.000  C
  C11      1.0000 0.64370  0.72620  0.12220  Biso   1.000  C
  H4       1.0000 0.67960  0.70980  0.09320  Biso   1.000  H
  C12      1.0000 0.59430  0.76080  0.08730  Biso   1.000  C
  C13      1.0000 0.54090  0.78390  0.12970  Biso   1.000  C
  H5       1.0000 0.50730  0.80920  0.10590  Biso   1.000  H
  C14      1.0000 0.53750  0.77030  0.20650  Biso   1.000  C
  C15      1.0000 0.58800  0.73630  0.24070  Biso   1.000  C
  H6       1.0000 0.58600  0.72690  0.29340  Biso   1.000  H
  C16      1.0000 0.69750  0.68010  0.23650  Biso   1.000  C
  C17      1.0000 0.59250  0.77190  0.00400  Biso   1.000  C
  C18      1.0000 0.47860  0.78970  0.24900  Biso   1.000  C
  O7       1.0000 0.74201  0.65970  0.19700  Biso   1.000  O
  O8       1.0000 0.69216  0.67310  0.30719  Biso   1.000  O
  O9       1.0000 0.63010  0.73660  0.96440  Biso   1.000  O
  O10      1.0000 0.55430  0.81090  0.97680  Biso   1.000  O
  O11      1.0000 0.44565  0.83756  0.22310  Biso   1.000  O
  O12      1.0000 0.46571  0.75720  0.30790  Biso   1.000  O
  Zn3      1.0000 0.74228  0.88094  0.85942  Biso   1.000  Zn
  C19      1.0000 0.85790  0.78450  0.69890  Biso   1.000  C
  C20      1.0000 0.85630  0.77380  0.62220  Biso   1.000  C
  H7       1.0000 0.82040  0.79020  0.59320  Biso   1.000  H
  C21      1.0000 0.90570  0.73920  0.58730  Biso   1.000  C
  C22      1.0000 0.95910  0.71610  0.62970  Biso   1.000  C
  H8       1.0000 0.99270  0.69080  0.60590  Biso   1.000  H
  C23      1.0000 0.96250  0.72970  0.70650  Biso   1.000  C
  C24      1.0000 0.91200  0.76370  0.74070  Biso   1.000  C
  H9       1.0000 0.91400  0.77310  0.79340  Biso   1.000  H
  C25      1.0000 0.80250  0.81990  0.73650  Biso   1.000  C
  C26      1.0000 0.90750  0.72810  0.50400  Biso   1.000  C
  C27      1.0000 0.02140  0.71030  0.74900  Biso   1.000  C
  O13      1.0000 0.75799  0.84030  0.69700  Biso   1.000  O
  O14      1.0000 0.80784  0.82690  0.80719  Biso   1.000  O
  O15      1.0000 0.86990  0.76340  0.46440  Biso   1.000  O
  O16      1.0000 0.94570  0.68910  0.47680  Biso   1.000  O
  O17      1.0000 0.05435  0.66244  0.72310  Biso   1.000  O
  O18      1.0000 0.03429  0.74280  0.80790  Biso   1.000  O
  Zn4      1.0000 0.24228  0.38094  0.35942  Biso   1.000  Zn
  C28      1.0000 0.35790  0.28450  0.19890  Biso   1.000  C
  C29      1.0000 0.35630  0.27380  0.12220  Biso   1.000  C
  H10      1.0000 0.32040  0.29020  0.09320  Biso   1.000  H
  C30      1.0000 0.40570  0.23920  0.08730  Biso   1.000  C
  C31      1.0000 0.45910  0.21610  0.12970  Biso   1.000  C
  H11      1.0000 0.49270  0.19080  0.10590  Biso   1.000  H
  C32      1.0000 0.46250  0.22970  0.20650  Biso   1.000  C
  C33      1.0000 0.41200  0.26370  0.24070  Biso   1.000  C
  H12      1.0000 0.41400  0.27310  0.29340  Biso   1.000  H
  C34      1.0000 0.30250  0.31990  0.23650  Biso   1.000  C
  C35      1.0000 0.40750  0.22810  0.00400  Biso   1.000  C
  C36      1.0000 0.52140  0.21030  0.24900  Biso   1.000  C
  O19      1.0000 0.25799  0.34030  0.19700  Biso   1.000  O
  O20      1.0000 0.30784  0.32690  0.30719  Biso   1.000  O
  O21      1.0000 0.36990  0.26340  0.96440  Biso   1.000  O
  O22      1.0000 0.44570  0.18910  0.97680  Biso   1.000  O
  O23      1.0000 0.55435  0.16244  0.22310  Biso   1.000  O
  O24      1.0000 0.53429  0.24280  0.30790  Biso   1.000  O
  Zn5      1.0000 0.88094  0.25772  0.85942  Biso   1.000  Zn
  C37      1.0000 0.78450  0.14210  0.69890  Biso   1.000  C
  C38      1.0000 0.77380  0.14370  0.62220  Biso   1.000  C
  H13      1.0000 0.79020  0.17960  0.59320  Biso   1.000  H
  C39      1.0000 0.73920  0.09430  0.58730  Biso   1.000  C
  C40      1.0000 0.71610  0.04090  0.62970  Biso   1.000  C
  H14      1.0000 0.69080  0.00730  0.60590  Biso   1.000  H
  C41      1.0000 0.72970  0.03750  0.70650  Biso   1.000  C
  C42      1.0000 0.76370  0.08800  0.74070  Biso   1.000  C
  H15      1.0000 0.77310  0.08600  0.79340  Biso   1.000  H
  C43      1.0000 0.81990  0.19750  0.73650  Biso   1.000  C
  C44      1.0000 0.72810  0.09250  0.50400  Biso   1.000  C
  C45      1.0000 0.71030  0.97860  0.74900  Biso   1.000  C
  O25      1.0000 0.84030  0.24201  0.69700  Biso   1.000  O
  O26      1.0000 0.82690  0.19216  0.80719  Biso   1.000  O
  O27      1.0000 0.76340  0.13010  0.46440  Biso   1.000  O
  O28      1.0000 0.68910  0.05430  0.47680  Biso   1.000  O
  O29      1.0000 0.66244  0.94565  0.72310  Biso   1.000  O
  O30      1.0000 0.74280  0.96571  0.80790  Biso   1.000  O
  Zn6      1.0000 0.38094  0.75772  0.35942  Biso   1.000  Zn
  C46      1.0000 0.28450  0.64210  0.19890  Biso   1.000  C
  C47      1.0000 0.27380  0.64370  0.12220  Biso   1.000  C
  H16      1.0000 0.29020  0.67960  0.09320  Biso   1.000  H
  C48      1.0000 0.23920  0.59430  0.08730  Biso   1.000  C
  C49      1.0000 0.21610  0.54090  0.12970  Biso   1.000  C
  H17      1.0000 0.19080  0.50730  0.10590  Biso   1.000  H
  C50      1.0000 0.22970  0.53750  0.20650  Biso   1.000  C
  C51      1.0000 0.26370  0.58800  0.24070  Biso   1.000  C
  H18      1.0000 0.27310  0.58600  0.29340  Biso   1.000  H
  C52      1.0000 0.31990  0.69750  0.23650  Biso   1.000  C
  C53      1.0000 0.22810  0.59250  0.00400  Biso   1.000  C
  C54      1.0000 0.21030  0.47860  0.24900  Biso   1.000  C
  O31      1.0000 0.34030  0.74201  0.19700  Biso   1.000  O
  O32      1.0000 0.32690  0.69216  0.30719  Biso   1.000  O
  O33      1.0000 0.26340  0.63010  0.96440  Biso   1.000  O
  O34      1.0000 0.18910  0.55430  0.97680  Biso   1.000  O
  O35      1.0000 0.16244  0.44565  0.22310  Biso   1.000  O
  O36      1.0000 0.24280  0.46571  0.30790  Biso   1.000  O
  Zn7      1.0000 0.11906  0.74228  0.85942  Biso   1.000  Zn
  C55      1.0000 0.21550  0.85790  0.69890  Biso   1.000  C
  C56      1.0000 0.22620  0.85630  0.62220  Biso   1.000  C
  H19      1.0000 0.20980  0.82040  0.59320  Biso   1.000  H
  C57      1.0000 0.26080  0.90570  0.58730  Biso   1.000  C
  C58      1.0000 0.28390  0.95910  0.62970  Biso   1.000  C
  H20      1.0000 0.30920  0.99270  0.60590  Biso   1.000  H
  C59      1.0000 0.27030  0.96250  0.70650  Biso   1.000  C
  C60      1.0000 0.23630  0.91200  0.74070  Biso   1.000  C
  H21      1.0000 0.22690  0.91400  0.79340  Biso   1.000  H
  C61      1.0000 0.18010  0.80250  0.73650  Biso   1.000  C
  C62      1.0000 0.27190  0.90750  0.50400  Biso   1.000  C
  C63      1.0000 0.28970  0.02140  0.74900  Biso   1.000  C
  O37      1.0000 0.15970  0.75799  0.69700  Biso   1.000  O
  O38      1.0000 0.17310  0.80784  0.80719  Biso   1.000  O
  O39      1.0000 0.23660  0.86990  0.46440  Biso   1.000  O
  O40      1.0000 0.31090  0.94570  0.47680  Biso   1.000  O
  O41      1.0000 0.33756  0.05435  0.72310  Biso   1.000  O
  O42      1.0000 0.25720  0.03429  0.80790  Biso   1.000  O
  Zn8      1.0000 0.61906  0.24228  0.35942  Biso   1.000  Zn
  C64      1.0000 0.71550  0.35790  0.19890  Biso   1.000  C
  C65      1.0000 0.72620  0.35630  0.12220  Biso   1.000  C
  H22      1.0000 0.70980  0.32040  0.09320  Biso   1.000  H
  C66      1.0000 0.76080  0.40570  0.08730  Biso   1.000  C
  C67      1.0000 0.78390  0.45910  0.12970  Biso   1.000  C
  H23      1.0000 0.80920  0.49270  0.10590  Biso   1.000  H
  C68      1.0000 0.77030  0.46250  0.20650  Biso   1.000  C
  C69      1.0000 0.73630  0.41200  0.24070  Biso   1.000  C
  H24      1.0000 0.72690  0.41400  0.29340  Biso   1.000  H
  C70      1.0000 0.68010  0.30250  0.23650  Biso   1.000  C
  C71      1.0000 0.77190  0.40750  0.00400  Biso   1.000  C
  C72      1.0000 0.78970  0.52140  0.24900  Biso   1.000  C
  O43      1.0000 0.65970  0.25799  0.19700  Biso   1.000  O
  O44      1.0000 0.67310  0.30784  0.30719  Biso   1.000  O
  O45      1.0000 0.73660  0.36990  0.96440  Biso   1.000  O
  O46      1.0000 0.81090  0.44570  0.97680  Biso   1.000  O
  O47      1.0000 0.83756  0.55435  0.22310  Biso   1.000  O
  O48      1.0000 0.75720  0.53429  0.30790  Biso   1.000  O
  Zn9      1.0000 0.25772  0.88094  0.35942  Biso   1.000  Zn
  C73      1.0000 0.14210  0.78450  0.19890  Biso   1.000  C
  C74      1.0000 0.14370  0.77380  0.12220  Biso   1.000  C
  H25      1.0000 0.17960  0.79020  0.09320  Biso   1.000  H
  C75      1.0000 0.09430  0.73920  0.08730  Biso   1.000  C
  C76      1.0000 0.04090  0.71610  0.12970  Biso   1.000  C
  H26      1.0000 0.00730  0.69080  0.10590  Biso   1.000  H
  C77      1.0000 0.03750  0.72970  0.20650  Biso   1.000  C
  C78      1.0000 0.08800  0.76370  0.24070  Biso   1.000  C
  H27      1.0000 0.08600  0.77310  0.29340  Biso   1.000  H
  C79      1.0000 0.19750  0.81990  0.23650  Biso   1.000  C
  C80      1.0000 0.09250  0.72810  0.00400  Biso   1.000  C
  C81      1.0000 0.97860  0.71030  0.24900  Biso   1.000  C
  O49      1.0000 0.24201  0.84030  0.19700  Biso   1.000  O
  O50      1.0000 0.19216  0.82690  0.30719  Biso   1.000  O
  O51      1.0000 0.13010  0.76340  0.96440  Biso   1.000  O
  O52      1.0000 0.05430  0.68910  0.97680  Biso   1.000  O
  O53      1.0000 0.94565  0.66244  0.22310  Biso   1.000  O
  O54      1.0000 0.96571  0.74280  0.30790  Biso   1.000  O
  Zn10     1.0000 0.75772  0.38094  0.85942  Biso   1.000  Zn
  C82      1.0000 0.64210  0.28450  0.69890  Biso   1.000  C
  C83      1.0000 0.64370  0.27380  0.62220  Biso   1.000  C
  H28      1.0000 0.67960  0.29020  0.59320  Biso   1.000  H
  C84      1.0000 0.59430  0.23920  0.58730  Biso   1.000  C
  C85      1.0000 0.54090  0.21610  0.62970  Biso   1.000  C
  H29      1.0000 0.50730  0.19080  0.60590  Biso   1.000  H
  C86      1.0000 0.53750  0.22970  0.70650  Biso   1.000  C
  C87      1.0000 0.58800  0.26370  0.74070  Biso   1.000  C
  H30      1.0000 0.58600  0.27310  0.79340  Biso   1.000  H
  C88      1.0000 0.69750  0.31990  0.73650  Biso   1.000  C
  C89      1.0000 0.59250  0.22810  0.50400  Biso   1.000  C
  C90      1.0000 0.47860  0.21030  0.74900  Biso   1.000  C
  O55      1.0000 0.74201  0.34030  0.69700  Biso   1.000  O
  O56      1.0000 0.69216  0.32690  0.80719  Biso   1.000  O
  O57      1.0000 0.63010  0.26340  0.46440  Biso   1.000  O
  O58      1.0000 0.55430  0.18910  0.47680  Biso   1.000  O
  O59      1.0000 0.44565  0.16244  0.72310  Biso   1.000  O
  O60      1.0000 0.46571  0.24280  0.80790  Biso   1.000  O
  Zn11     1.0000 0.74228  0.11906  0.35942  Biso   1.000  Zn
  C91      1.0000 0.85790  0.21550  0.19890  Biso   1.000  C
  C92      1.0000 0.85630  0.22620  0.12220  Biso   1.000  C
  H31      1.0000 0.82040  0.20980  0.09320  Biso   1.000  H
  C93      1.0000 0.90570  0.26080  0.08730  Biso   1.000  C
  C94      1.0000 0.95910  0.28390  0.12970  Biso   1.000  C
  H32      1.0000 0.99270  0.30920  0.10590  Biso   1.000  H
  C95      1.0000 0.96250  0.27030  0.20650  Biso   1.000  C
  C96      1.0000 0.91200  0.23630  0.24070  Biso   1.000  C
  H33      1.0000 0.91400  0.22690  0.29340  Biso   1.000  H
  C97      1.0000 0.80250  0.18010  0.23650  Biso   1.000  C
  C98      1.0000 0.90750  0.27190  0.00400  Biso   1.000  C
  C99      1.0000 0.02140  0.28970  0.24900  Biso   1.000  C
  O61      1.0000 0.75799  0.15970  0.19700  Biso   1.000  O
  O62      1.0000 0.80784  0.17310  0.30719  Biso   1.000  O
  O63      1.0000 0.86990  0.23660  0.96440  Biso   1.000  O
  O64      1.0000 0.94570  0.31090  0.97680  Biso   1.000  O
  O65      1.0000 0.05435  0.33756  0.22310  Biso   1.000  O
  O66      1.0000 0.03429  0.25720  0.30790  Biso   1.000  O
  Zn12     1.0000 0.24228  0.61906  0.85942  Biso   1.000  Zn
  C100     1.0000 0.35790  0.71550  0.69890  Biso   1.000  C
  C101     1.0000 0.35630  0.72620  0.62220  Biso   1.000  C
  H34      1.0000 0.32040  0.70980  0.59320  Biso   1.000  H
  C102     1.0000 0.40570  0.76080  0.58730  Biso   1.000  C
  C103     1.0000 0.45910  0.78390  0.62970  Biso   1.000  C
  H35      1.0000 0.49270  0.80920  0.60590  Biso   1.000  H
  C104     1.0000 0.46250  0.77030  0.70650  Biso   1.000  C
  C105     1.0000 0.41200  0.73630  0.74070  Biso   1.000  C
  H36      1.0000 0.41400  0.72690  0.79340  Biso   1.000  H
  C106     1.0000 0.30250  0.68010  0.73650  Biso   1.000  C
  C107     1.0000 0.40750  0.77190  0.50400  Biso   1.000  C
  C108     1.0000 0.52140  0.78970  0.74900  Biso   1.000  C
  O67      1.0000 0.25799  0.65970  0.69700  Biso   1.000  O
  O68      1.0000 0.30784  0.67310  0.80719  Biso   1.000  O
  O69      1.0000 0.36990  0.73660  0.46440  Biso   1.000  O
  O70      1.0000 0.44570  0.81090  0.47680  Biso   1.000  O
  O71      1.0000 0.55435  0.83756  0.72310  Biso   1.000  O
  O72      1.0000 0.53429  0.75720  0.80790  Biso   1.000  O
  Zn13     1.0000 0.88094  0.74228  0.35942  Biso   1.000  Zn
  C109     1.0000 0.78450  0.85790  0.19890  Biso   1.000  C
  C110     1.0000 0.77380  0.85630  0.12220  Biso   1.000  C
  H37      1.0000 0.79020  0.82040  0.09320  Biso   1.000  H
  C111     1.0000 0.73920  0.90570  0.08730  Biso   1.000  C
  C112     1.0000 0.71610  0.95910  0.12970  Biso   1.000  C
  H38      1.0000 0.69080  0.99270  0.10590  Biso   1.000  H
  C113     1.0000 0.72970  0.96250  0.20650  Biso   1.000  C
  C114     1.0000 0.76370  0.91200  0.24070  Biso   1.000  C
  H39      1.0000 0.77310  0.91400  0.29340  Biso   1.000  H
  C115     1.0000 0.81990  0.80250  0.23650  Biso   1.000  C
  C116     1.0000 0.72810  0.90750  0.00400  Biso   1.000  C
  C117     1.0000 0.71030  0.02140  0.24900  Biso   1.000  C
  O73      1.0000 0.84030  0.75799  0.19700  Biso   1.000  O
  O74      1.0000 0.82690  0.80784  0.30719  Biso   1.000  O
  O75      1.0000 0.76340  0.86990  0.96440  Biso   1.000  O
  O76      1.0000 0.68910  0.94570  0.97680  Biso   1.000  O
  O77      1.0000 0.66244  0.05435  0.22310  Biso   1.000  O
  O78      1.0000 0.74280  0.03429  0.30790  Biso   1.000  O
  Zn14     1.0000 0.38094  0.24228  0.85942  Biso   1.000  Zn
  C118     1.0000 0.28450  0.35790  0.69890  Biso   1.000  C
  C119     1.0000 0.27380  0.35630  0.62220  Biso   1.000  C
  H40      1.0000 0.29020  0.32040  0.59320  Biso   1.000  H
  C120     1.0000 0.23920  0.40570  0.58730  Biso   1.000  C
  C121     1.0000 0.21610  0.45910  0.62970  Biso   1.000  C
  H41      1.0000 0.19080  0.49270  0.60590  Biso   1.000  H
  C122     1.0000 0.22970  0.46250  0.70650  Biso   1.000  C
  C123     1.0000 0.26370  0.41200  0.74070  Biso   1.000  C
  H42      1.0000 0.27310  0.41400  0.79340  Biso   1.000  H
  C124     1.0000 0.31990  0.30250  0.73650  Biso   1.000  C
  C125     1.0000 0.22810  0.40750  0.50400  Biso   1.000  C
  C126     1.0000 0.21030  0.52140  0.74900  Biso   1.000  C
  O79      1.0000 0.34030  0.25799  0.69700  Biso   1.000  O
  O80      1.0000 0.32690  0.30784  0.80719  Biso   1.000  O
  O81      1.0000 0.26340  0.36990  0.46440  Biso   1.000  O
  O82      1.0000 0.18910  0.44570  0.47680  Biso   1.000  O
  O83      1.0000 0.16244  0.55435  0.72310  Biso   1.000  O
  O84      1.0000 0.24280  0.53429  0.80790  Biso   1.000  O
  Zn15     1.0000 0.11906  0.25772  0.35942  Biso   1.000  Zn
  C127     1.0000 0.21550  0.14210  0.19890  Biso   1.000  C
  C128     1.0000 0.22620  0.14370  0.12220  Biso   1.000  C
  H43      1.0000 0.20980  0.17960  0.09320  Biso   1.000  H
  C129     1.0000 0.26080  0.09430  0.08730  Biso   1.000  C
  C130     1.0000 0.28390  0.04090  0.12970  Biso   1.000  C
  H44      1.0000 0.30920  0.00730  0.10590  Biso   1.000  H
  C131     1.0000 0.27030  0.03750  0.20650  Biso   1.000  C
  C132     1.0000 0.23630  0.08800  0.24070  Biso   1.000  C
  H45      1.0000 0.22690  0.08600  0.29340  Biso   1.000  H
  C133     1.0000 0.18010  0.19750  0.23650  Biso   1.000  C
  C134     1.0000 0.27190  0.09250  0.00400  Biso   1.000  C
  C135     1.0000 0.28970  0.97860  0.24900  Biso   1.000  C
  O85      1.0000 0.15970  0.24201  0.19700  Biso   1.000  O
  O86      1.0000 0.17310  0.19216  0.30719  Biso   1.000  O
  O87      1.0000 0.23660  0.13010  0.96440  Biso   1.000  O
  O88      1.0000 0.31090  0.05430  0.97680  Biso   1.000  O
  O89      1.0000 0.33756  0.94565  0.22310  Biso   1.000  O
  O90      1.0000 0.25720  0.96571  0.30790  Biso   1.000  O
  Zn16     1.0000 0.61906  0.75772  0.85942  Biso   1.000  Zn
  C136     1.0000 0.71550  0.64210  0.69890  Biso   1.000  C
  C137     1.0000 0.72620  0.64370  0.62220  Biso   1.000  C
  H46      1.0000 0.70980  0.67960  0.59320  Biso   1.000  H
  C138     1.0000 0.76080  0.59430  0.58730  Biso   1.000  C
  C139     1.0000 0.78390  0.54090  0.62970  Biso   1.000  C
  H47      1.0000 0.80920  0.50730  0.60590  Biso   1.000  H
  C140     1.0000 0.77030  0.53750  0.70650  Biso   1.000  C
  C141     1.0000 0.73630  0.58800  0.74070  Biso   1.000  C
  H48      1.0000 0.72690  0.58600  0.79340  Biso   1.000  H
  C142     1.0000 0.68010  0.69750  0.73650  Biso   1.000  C
  C143     1.0000 0.77190  0.59250  0.50400  Biso   1.000  C
  C144     1.0000 0.78970  0.47860  0.74900  Biso   1.000  C
  O91      1.0000 0.65970  0.74201  0.69700  Biso   1.000  O
  O92      1.0000 0.67310  0.69216  0.80719  Biso   1.000  O
  O93      1.0000 0.73660  0.63010  0.46440  Biso   1.000  O
  O94      1.0000 0.81090  0.55430  0.47680  Biso   1.000  O
  O95      1.0000 0.83756  0.44565  0.72310  Biso   1.000  O
  O96      1.0000 0.75720  0.46571  0.80790  Biso   1.000  O
  Zn17     1.0000 0.34443  0.15557  0.71367  Biso   1.000  Zn
  O97      1.0000 0.34070  0.15930  0.83140  Biso   1.000  O
  Zn18     1.0000 0.65557  0.84443  0.71367  Biso   1.000  Zn
  O98      1.0000 0.65930  0.84070  0.83140  Biso   1.000  O
  Zn19     1.0000 0.15557  0.34443  0.21367  Biso   1.000  Zn
  O99      1.0000 0.15930  0.34070  0.33140  Biso   1.000  O
  Zn20     1.0000 0.84443  0.34443  0.71367  Biso   1.000  Zn
  O100     1.0000 0.84070  0.34070  0.83140  Biso   1.000  O
  Zn21     1.0000 0.15557  0.65557  0.71367  Biso   1.000  Zn
  O101     1.0000 0.15930  0.65930  0.83140  Biso   1.000  O
  Zn22     1.0000 0.34443  0.84443  0.21367  Biso   1.000  Zn
  O102     1.0000 0.34070  0.84070  0.33140  Biso   1.000  O
  Zn23     1.0000 0.65557  0.15557  0.21367  Biso   1.000  Zn
  O103     1.0000 0.65930  0.15930  0.33140  Biso   1.000  O
  Zn24     1.0000 0.84443  0.65557  0.21367  Biso   1.000  Zn
  O104     1.0000 0.84070  0.65930  0.33140  Biso   1.000  O
