data_image0
_cell_length_a       18.64
_cell_length_b       22.795
_cell_length_c       13.281
_cell_angle_alpha    90
_cell_angle_beta     130.484
_cell_angle_gamma    90

_symmetry_space_group_name_H-M    "P 1"
_symmetry_int_tables_number       1

loop_
  _symmetry_equiv_pos_as_xyz
  'x, y, z'

loop_
  _atom_site_label
  _atom_site_occupancy
  _atom_site_fract_x
  _atom_site_fract_y
  _atom_site_fract_z
  _atom_site_thermal_displace_type
  _atom_site_B_iso_or_equiv
  _atom_site_type_symbol
  O1       1.0000 0.61406  0.29186  0.43245  Biso   1.000  O
  O2       1.0000 0.48931  0.24194  0.37257  Biso   1.000  O
  O3       1.0000 0.83997  0.66566  0.06393  Biso   1.000  O
  O4       1.0000 0.90850  0.60340  0.22720  Biso   1.000  O
  C1       1.0000 0.54750  0.28380  0.43170  Biso   1.000  C
  C2       1.0000 0.53359  0.32572  0.50470  Biso   1.000  C
  C3       1.0000 0.58490  0.37666  0.55600  Biso   1.000  C
  H1       1.0000 0.62690  0.38580  0.54280  Biso   1.000  H
  C4       1.0000 0.57470  0.41457  0.62710  Biso   1.000  C
  H2       1.0000 0.61020  0.44880  0.66100  Biso   1.000  H
  C5       1.0000 0.51317  0.40309  0.64950  Biso   1.000  C
  C6       1.0000 0.46100  0.35192  0.59430  Biso   1.000  C
  H3       1.0000 0.41800  0.34290  0.60590  Biso   1.000  H
  C7       1.0000 0.47050  0.31406  0.52310  Biso   1.000  C
  H4       1.0000 0.43390  0.28020  0.48700  Biso   1.000  H
  C8       1.0000 0.84069  0.61697  0.11140  Biso   1.000  C
  C9       1.0000 0.75911  0.57616  0.02380  Biso   1.000  C
  C10      1.0000 0.69192  0.58711  0.89040  Biso   1.000  C
  H5       1.0000 0.69760  0.61980  0.85400  Biso   1.000  H
  C11      1.0000 0.61556  0.54957  0.80970  Biso   1.000  C
  H6       1.0000 0.57030  0.55760  0.71970  Biso   1.000  H
  C12      1.0000 0.60558  0.49980  0.86160  Biso   1.000  C
  C13      1.0000 0.67544  0.48986  0.99580  Biso   1.000  C
  H7       1.0000 0.67090  0.45700  0.03290  Biso   1.000  H
  C14      1.0000 0.75133  0.52668  0.07620  Biso   1.000  C
  H8       1.0000 0.79740  0.51830  0.16600  Biso   1.000  H
  O5       1.0000 0.11406  0.79186  0.43245  Biso   1.000  O
  O6       1.0000 0.98931  0.74194  0.37257  Biso   1.000  O
  O7       1.0000 0.33997  0.16566  0.06393  Biso   1.000  O
  O8       1.0000 0.40850  0.10340  0.22720  Biso   1.000  O
  C15      1.0000 0.04750  0.78380  0.43170  Biso   1.000  C
  C16      1.0000 0.03359  0.82572  0.50470  Biso   1.000  C
  C17      1.0000 0.08490  0.87666  0.55600  Biso   1.000  C
  H9       1.0000 0.12690  0.88580  0.54280  Biso   1.000  H
  C18      1.0000 0.07470  0.91457  0.62710  Biso   1.000  C
  H10      1.0000 0.11020  0.94880  0.66100  Biso   1.000  H
  C19      1.0000 0.01317  0.90309  0.64950  Biso   1.000  C
  C20      1.0000 0.96100  0.85192  0.59430  Biso   1.000  C
  H11      1.0000 0.91800  0.84290  0.60590  Biso   1.000  H
  C21      1.0000 0.97050  0.81406  0.52310  Biso   1.000  C
  H12      1.0000 0.93390  0.78020  0.48700  Biso   1.000  H
  C22      1.0000 0.34069  0.11697  0.11140  Biso   1.000  C
  C23      1.0000 0.25911  0.07616  0.02380  Biso   1.000  C
  C24      1.0000 0.19192  0.08711  0.89040  Biso   1.000  C
  H13      1.0000 0.19760  0.11980  0.85400  Biso   1.000  H
  C25      1.0000 0.11556  0.04957  0.80970  Biso   1.000  C
  H14      1.0000 0.07030  0.05760  0.71970  Biso   1.000  H
  C26      1.0000 0.10558  0.99980  0.86160  Biso   1.000  C
  C27      1.0000 0.17544  0.98986  0.99580  Biso   1.000  C
  H15      1.0000 0.17090  0.95700  0.03290  Biso   1.000  H
  C28      1.0000 0.25133  0.02668  0.07620  Biso   1.000  C
  H16      1.0000 0.29740  0.01830  0.16600  Biso   1.000  H
  O9       1.0000 0.38594  0.29186  0.06755  Biso   1.000  O
  O10      1.0000 0.51069  0.24194  0.12743  Biso   1.000  O
  O11      1.0000 0.16003  0.66566  0.43607  Biso   1.000  O
  O12      1.0000 0.09150  0.60340  0.27280  Biso   1.000  O
  C29      1.0000 0.45250  0.28380  0.06830  Biso   1.000  C
  C30      1.0000 0.46641  0.32572  0.99530  Biso   1.000  C
  C31      1.0000 0.41510  0.37666  0.94400  Biso   1.000  C
  H17      1.0000 0.37310  0.38580  0.95720  Biso   1.000  H
  C32      1.0000 0.42530  0.41457  0.87290  Biso   1.000  C
  H18      1.0000 0.38980  0.44880  0.83900  Biso   1.000  H
  C33      1.0000 0.48683  0.40309  0.85050  Biso   1.000  C
  C34      1.0000 0.53900  0.35192  0.90570  Biso   1.000  C
  H19      1.0000 0.58200  0.34290  0.89410  Biso   1.000  H
  C35      1.0000 0.52950  0.31406  0.97690  Biso   1.000  C
  H20      1.0000 0.56610  0.28020  0.01300  Biso   1.000  H
  C36      1.0000 0.15931  0.61697  0.38860  Biso   1.000  C
  C37      1.0000 0.24089  0.57616  0.47620  Biso   1.000  C
  C38      1.0000 0.30808  0.58711  0.60960  Biso   1.000  C
  H21      1.0000 0.30240  0.61980  0.64600  Biso   1.000  H
  C39      1.0000 0.38444  0.54957  0.69030  Biso   1.000  C
  H22      1.0000 0.42970  0.55760  0.78030  Biso   1.000  H
  C40      1.0000 0.39442  0.49980  0.63840  Biso   1.000  C
  C41      1.0000 0.32456  0.48986  0.50420  Biso   1.000  C
  H23      1.0000 0.32910  0.45700  0.46710  Biso   1.000  H
  C42      1.0000 0.24867  0.52668  0.42380  Biso   1.000  C
  H24      1.0000 0.20260  0.51830  0.33400  Biso   1.000  H
  O13      1.0000 0.88594  0.79186  0.06755  Biso   1.000  O
  O14      1.0000 0.01069  0.74194  0.12743  Biso   1.000  O
  O15      1.0000 0.66003  0.16566  0.43607  Biso   1.000  O
  O16      1.0000 0.59150  0.10340  0.27280  Biso   1.000  O
  C43      1.0000 0.95250  0.78380  0.06830  Biso   1.000  C
  C44      1.0000 0.96641  0.82572  0.99530  Biso   1.000  C
  C45      1.0000 0.91510  0.87666  0.94400  Biso   1.000  C
  H25      1.0000 0.87310  0.88580  0.95720  Biso   1.000  H
  C46      1.0000 0.92530  0.91457  0.87290  Biso   1.000  C
  H26      1.0000 0.88980  0.94880  0.83900  Biso   1.000  H
  C47      1.0000 0.98683  0.90309  0.85050  Biso   1.000  C
  C48      1.0000 0.03900  0.85192  0.90570  Biso   1.000  C
  H27      1.0000 0.08200  0.84290  0.89410  Biso   1.000  H
  C49      1.0000 0.02950  0.81406  0.97690  Biso   1.000  C
  H28      1.0000 0.06610  0.78020  0.01300  Biso   1.000  H
  C50      1.0000 0.65931  0.11697  0.38860  Biso   1.000  C
  C51      1.0000 0.74089  0.07616  0.47620  Biso   1.000  C
  C52      1.0000 0.80808  0.08711  0.60960  Biso   1.000  C
  H29      1.0000 0.80240  0.11980  0.64600  Biso   1.000  H
  C53      1.0000 0.88444  0.04957  0.69030  Biso   1.000  C
  H30      1.0000 0.92970  0.05760  0.78030  Biso   1.000  H
  C54      1.0000 0.89442  0.99980  0.63840  Biso   1.000  C
  C55      1.0000 0.82456  0.98986  0.50420  Biso   1.000  C
  H31      1.0000 0.82910  0.95700  0.46710  Biso   1.000  H
  C56      1.0000 0.74867  0.02668  0.42380  Biso   1.000  C
  H32      1.0000 0.70260  0.01830  0.33400  Biso   1.000  H
  O17      1.0000 0.38594  0.70814  0.56755  Biso   1.000  O
  O18      1.0000 0.51069  0.75806  0.62743  Biso   1.000  O
  O19      1.0000 0.16003  0.33434  0.93607  Biso   1.000  O
  O20      1.0000 0.09150  0.39660  0.77280  Biso   1.000  O
  C57      1.0000 0.45250  0.71620  0.56830  Biso   1.000  C
  C58      1.0000 0.46641  0.67428  0.49530  Biso   1.000  C
  C59      1.0000 0.41510  0.62334  0.44400  Biso   1.000  C
  H33      1.0000 0.37310  0.61420  0.45720  Biso   1.000  H
  C60      1.0000 0.42530  0.58543  0.37290  Biso   1.000  C
  H34      1.0000 0.38980  0.55120  0.33900  Biso   1.000  H
  C61      1.0000 0.48683  0.59691  0.35050  Biso   1.000  C
  C62      1.0000 0.53900  0.64808  0.40570  Biso   1.000  C
  H35      1.0000 0.58200  0.65710  0.39410  Biso   1.000  H
  C63      1.0000 0.52950  0.68594  0.47690  Biso   1.000  C
  H36      1.0000 0.56610  0.71980  0.51300  Biso   1.000  H
  C64      1.0000 0.15931  0.38303  0.88860  Biso   1.000  C
  C65      1.0000 0.24089  0.42384  0.97620  Biso   1.000  C
  C66      1.0000 0.30808  0.41289  0.10960  Biso   1.000  C
  H37      1.0000 0.30240  0.38020  0.14600  Biso   1.000  H
  C67      1.0000 0.38444  0.45043  0.19030  Biso   1.000  C
  H38      1.0000 0.42970  0.44240  0.28030  Biso   1.000  H
  C68      1.0000 0.39442  0.50020  0.13840  Biso   1.000  C
  C69      1.0000 0.32456  0.51014  0.00420  Biso   1.000  C
  H39      1.0000 0.32910  0.54300  0.96710  Biso   1.000  H
  C70      1.0000 0.24867  0.47332  0.92380  Biso   1.000  C
  H40      1.0000 0.20260  0.48170  0.83400  Biso   1.000  H
  O21      1.0000 0.88594  0.20814  0.56755  Biso   1.000  O
  O22      1.0000 0.01069  0.25806  0.62743  Biso   1.000  O
  O23      1.0000 0.66003  0.83434  0.93607  Biso   1.000  O
  O24      1.0000 0.59150  0.89660  0.77280  Biso   1.000  O
  C71      1.0000 0.95250  0.21620  0.56830  Biso   1.000  C
  C72      1.0000 0.96641  0.17428  0.49530  Biso   1.000  C
  C73      1.0000 0.91510  0.12334  0.44400  Biso   1.000  C
  H41      1.0000 0.87310  0.11420  0.45720  Biso   1.000  H
  C74      1.0000 0.92530  0.08543  0.37290  Biso   1.000  C
  H42      1.0000 0.88980  0.05120  0.33900  Biso   1.000  H
  C75      1.0000 0.98683  0.09691  0.35050  Biso   1.000  C
  C76      1.0000 0.03900  0.14808  0.40570  Biso   1.000  C
  H43      1.0000 0.08200  0.15710  0.39410  Biso   1.000  H
  C77      1.0000 0.02950  0.18594  0.47690  Biso   1.000  C
  H44      1.0000 0.06610  0.21980  0.51300  Biso   1.000  H
  C78      1.0000 0.65931  0.88303  0.88860  Biso   1.000  C
  C79      1.0000 0.74089  0.92384  0.97620  Biso   1.000  C
  C80      1.0000 0.80808  0.91289  0.10960  Biso   1.000  C
  H45      1.0000 0.80240  0.88020  0.14600  Biso   1.000  H
  C81      1.0000 0.88444  0.95043  0.19030  Biso   1.000  C
  H46      1.0000 0.92970  0.94240  0.28030  Biso   1.000  H
  C82      1.0000 0.89442  0.00020  0.13840  Biso   1.000  C
  C83      1.0000 0.82456  0.01014  0.00420  Biso   1.000  C
  H47      1.0000 0.82910  0.04300  0.96710  Biso   1.000  H
  C84      1.0000 0.74867  0.97332  0.92380  Biso   1.000  C
  H48      1.0000 0.70260  0.98170  0.83400  Biso   1.000  H
  O25      1.0000 0.61406  0.70814  0.93245  Biso   1.000  O
  O26      1.0000 0.48931  0.75806  0.87257  Biso   1.000  O
  O27      1.0000 0.83997  0.33434  0.56393  Biso   1.000  O
  O28      1.0000 0.90850  0.39660  0.72720  Biso   1.000  O
  C85      1.0000 0.54750  0.71620  0.93170  Biso   1.000  C
  C86      1.0000 0.53359  0.67428  0.00470  Biso   1.000  C
  C87      1.0000 0.58490  0.62334  0.05600  Biso   1.000  C
  H49      1.0000 0.62690  0.61420  0.04280  Biso   1.000  H
  C88      1.0000 0.57470  0.58543  0.12710  Biso   1.000  C
  H50      1.0000 0.61020  0.55120  0.16100  Biso   1.000  H
  C89      1.0000 0.51317  0.59691  0.14950  Biso   1.000  C
  C90      1.0000 0.46100  0.64808  0.09430  Biso   1.000  C
  H51      1.0000 0.41800  0.65710  0.10590  Biso   1.000  H
  C91      1.0000 0.47050  0.68594  0.02310  Biso   1.000  C
  H52      1.0000 0.43390  0.71980  0.98700  Biso   1.000  H
  C92      1.0000 0.84069  0.38303  0.61140  Biso   1.000  C
  C93      1.0000 0.75911  0.42384  0.52380  Biso   1.000  C
  C94      1.0000 0.69192  0.41289  0.39040  Biso   1.000  C
  H53      1.0000 0.69760  0.38020  0.35400  Biso   1.000  H
  C95      1.0000 0.61556  0.45043  0.30970  Biso   1.000  C
  H54      1.0000 0.57030  0.44240  0.21970  Biso   1.000  H
  C96      1.0000 0.60558  0.50020  0.36160  Biso   1.000  C
  C97      1.0000 0.67544  0.51014  0.49580  Biso   1.000  C
  H55      1.0000 0.67090  0.54300  0.53290  Biso   1.000  H
  C98      1.0000 0.75133  0.47332  0.57620  Biso   1.000  C
  H56      1.0000 0.79740  0.48170  0.66600  Biso   1.000  H
  O29      1.0000 0.11406  0.20814  0.93245  Biso   1.000  O
  O30      1.0000 0.98931  0.25806  0.87257  Biso   1.000  O
  O31      1.0000 0.33997  0.83434  0.56393  Biso   1.000  O
  O32      1.0000 0.40850  0.89660  0.72720  Biso   1.000  O
  C99      1.0000 0.04750  0.21620  0.93170  Biso   1.000  C
  C100     1.0000 0.03359  0.17428  0.00470  Biso   1.000  C
  C101     1.0000 0.08490  0.12334  0.05600  Biso   1.000  C
  H57      1.0000 0.12690  0.11420  0.04280  Biso   1.000  H
  C102     1.0000 0.07470  0.08543  0.12710  Biso   1.000  C
  H58      1.0000 0.11020  0.05120  0.16100  Biso   1.000  H
  C103     1.0000 0.01317  0.09691  0.14950  Biso   1.000  C
  C104     1.0000 0.96100  0.14808  0.09430  Biso   1.000  C
  H59      1.0000 0.91800  0.15710  0.10590  Biso   1.000  H
  C105     1.0000 0.97050  0.18594  0.02310  Biso   1.000  C
  H60      1.0000 0.93390  0.21980  0.98700  Biso   1.000  H
  C106     1.0000 0.34069  0.88303  0.61140  Biso   1.000  C
  C107     1.0000 0.25911  0.92384  0.52380  Biso   1.000  C
  C108     1.0000 0.19192  0.91289  0.39040  Biso   1.000  C
  H61      1.0000 0.19760  0.88020  0.35400  Biso   1.000  H
  C109     1.0000 0.11556  0.95043  0.30970  Biso   1.000  C
  H62      1.0000 0.07030  0.94240  0.21970  Biso   1.000  H
  C110     1.0000 0.10558  0.00020  0.36160  Biso   1.000  C
  C111     1.0000 0.17544  0.01014  0.49580  Biso   1.000  C
  H63      1.0000 0.17090  0.04300  0.53290  Biso   1.000  H
  C112     1.0000 0.25133  0.97332  0.57620  Biso   1.000  C
  H64      1.0000 0.29740  0.98170  0.66600  Biso   1.000  H
  Cd1      1.0000 0.50000  0.18380  0.25000  Biso   1.000  Cd
  Cd2      1.0000 0.00000  0.68380  0.25000  Biso   1.000  Cd
  Cd3      1.0000 0.50000  0.81620  0.75000  Biso   1.000  Cd
  Cd4      1.0000 0.00000  0.31620  0.75000  Biso   1.000  Cd
  Cd5      1.0000 0.75000  0.25000  0.50000  Biso   1.000  Cd
  Cd6      1.0000 0.25000  0.25000  0.00000  Biso   1.000  Cd
  Cd7      1.0000 0.25000  0.75000  0.50000  Biso   1.000  Cd
  Cd8      1.0000 0.75000  0.75000  0.00000  Biso   1.000  Cd
  Si1      1.0000 0.50000  0.45157  0.75000  Biso   1.000  Si
  Si2      1.0000 0.00000  0.95157  0.75000  Biso   1.000  Si
  Si3      1.0000 0.50000  0.54843  0.25000  Biso   1.000  Si
  Si4      1.0000 0.00000  0.04843  0.25000  Biso   1.000  Si
