data_image0
_cell_length_a       14.123
_cell_length_b       36.166
_cell_length_c       18.341
_cell_angle_alpha    90
_cell_angle_beta     99.38
_cell_angle_gamma    90

_symmetry_space_group_name_H-M    "P 1"
_symmetry_int_tables_number       1

loop_
  _symmetry_equiv_pos_as_xyz
  'x, y, z'

loop_
  _atom_site_label
  _atom_site_occupancy
  _atom_site_fract_x
  _atom_site_fract_y
  _atom_site_fract_z
  _atom_site_thermal_displace_type
  _atom_site_B_iso_or_equiv
  _atom_site_type_symbol
  Zn1      1.0000 0.77763  0.57299  0.11491  Biso   1.000  Zn
  C1       1.0000 0.31690  0.63660  0.05520  Biso   1.000  C
  H1       1.0000 0.35950  0.61690  0.06450  Biso   1.000  H
  O1       1.0000 0.75210  0.44894  0.70630  Biso   1.000  O
  C2       1.0000 0.79150  0.43390  0.76130  Biso   1.000  C
  C3       1.0000 0.87500  0.46260  0.87100  Biso   1.000  C
  H2       1.0000 0.93160  0.45690  0.85380  Biso   1.000  H
  C4       1.0000 0.47930  0.84510  0.94800  Biso   1.000  C
  N1       1.0000 0.61460  0.89449  0.91070  Biso   1.000  N
  C5       1.0000 0.79080  0.45140  0.83450  Biso   1.000  C
  O2       1.0000 0.82890  0.40450  0.75450  Biso   1.000  O
  O3       1.0000 0.73810  0.54025  0.02960  Biso   1.000  O
  C6       1.0000 0.80440  0.51670  0.02880  Biso   1.000  C
  C7       1.0000 0.79670  0.49080  0.96400  Biso   1.000  C
  C8       1.0000 0.70750  0.47620  0.92910  Biso   1.000  C
  C9       1.0000 0.62270  0.47943  0.96060  Biso   1.000  C
  H3       1.0000 0.62400  0.49180  0.00510  Biso   1.000  H
  C10      1.0000 0.53780  0.46410  0.92490  Biso   1.000  C
  H4       1.0000 0.48220  0.46650  0.94550  Biso   1.000  H
  C11      1.0000 0.53520  0.44600  0.86170  Biso   1.000  C
  H5       1.0000 0.47730  0.43620  0.83820  Biso   1.000  H
  C12      1.0000 0.61730  0.44150  0.82980  Biso   1.000  C
  H6       1.0000 0.61420  0.42850  0.78570  Biso   1.000  H
  C13      1.0000 0.70530  0.45664  0.86440  Biso   1.000  C
  C14      1.0000 0.87650  0.48220  0.93390  Biso   1.000  C
  H7       1.0000 0.93570  0.49050  0.95830  Biso   1.000  H
  O4       1.0000 0.87610  0.51606  0.07740  Biso   1.000  O
  N2       1.0000 0.66360  0.61048  0.08950  Biso   1.000  N
  C15      1.0000 0.64320  0.63390  0.13780  Biso   1.000  C
  H8       1.0000 0.67960  0.63420  0.18480  Biso   1.000  H
  C16      1.0000 0.56490  0.65960  0.11970  Biso   1.000  C
  H9       1.0000 0.55080  0.67630  0.15490  Biso   1.000  H
  C17      1.0000 0.51170  0.65930  0.05090  Biso   1.000  C
  C18      1.0000 0.43190  0.68630  0.03190  Biso   1.000  C
  C19      1.0000 0.45690  0.72280  0.01710  Biso   1.000  C
  C20      1.0000 0.55220  0.73490  0.00920  Biso   1.000  C
  H10      1.0000 0.60780  0.72070  0.01670  Biso   1.000  H
  C21      1.0000 0.54520  0.77030  0.98910  Biso   1.000  C
  H11      1.0000 0.59510  0.78540  0.97960  Biso   1.000  H
  C22      1.0000 0.44660  0.78090  0.98500  Biso   1.000  C
  C23      1.0000 0.41100  0.81580  0.96550  Biso   1.000  C
  N3       1.0000 0.39490  0.75144  0.00220  Biso   1.000  N
  N4       1.0000 0.25860  0.69545  0.02550  Biso   1.000  N
  C24      1.0000 0.53330  0.63420  0.00020  Biso   1.000  C
  H12      1.0000 0.49820  0.63300  0.95270  Biso   1.000  H
  C25      1.0000 0.61020  0.61050  0.02320  Biso   1.000  C
  H13      1.0000 0.62520  0.59340  0.98910  Biso   1.000  H
  C26      1.0000 0.55420  0.87790  0.86410  Biso   1.000  C
  H14      1.0000 0.55630  0.88150  0.81410  Biso   1.000  H
  C27      1.0000 0.48350  0.85410  0.88400  Biso   1.000  C
  H15      1.0000 0.43740  0.84470  0.84650  Biso   1.000  H
  C28      1.0000 0.54260  0.86380  0.00160  Biso   1.000  C
  H16      1.0000 0.53960  0.86020  0.05140  Biso   1.000  H
  C29      1.0000 0.22080  0.63580  0.05620  Biso   1.000  C
  H17      1.0000 0.18530  0.61540  0.06660  Biso   1.000  H
  C30      1.0000 0.33990  0.67420  0.03670  Biso   1.000  C
  C31      1.0000 0.31550  0.82800  0.96170  Biso   1.000  C
  C32      1.0000 0.60920  0.88740  0.98120  Biso   1.000  C
  H18      1.0000 0.65230  0.89900  0.01780  Biso   1.000  H
  Zn2      1.0000 0.72237  0.07299  0.38509  Biso   1.000  Zn
  C33      1.0000 0.18310  0.13660  0.44480  Biso   1.000  C
  H19      1.0000 0.14050  0.11690  0.43550  Biso   1.000  H
  O5       1.0000 0.74790  0.94894  0.79370  Biso   1.000  O
  C34      1.0000 0.70850  0.93390  0.73870  Biso   1.000  C
  C35      1.0000 0.62500  0.96260  0.62900  Biso   1.000  C
  H20      1.0000 0.56840  0.95690  0.64620  Biso   1.000  H
  C36      1.0000 0.02070  0.34510  0.55200  Biso   1.000  C
  N5       1.0000 0.88540  0.39449  0.58930  Biso   1.000  N
  C37      1.0000 0.70920  0.95140  0.66550  Biso   1.000  C
  O6       1.0000 0.67110  0.90450  0.74550  Biso   1.000  O
  O7       1.0000 0.76190  0.04025  0.47040  Biso   1.000  O
  C38      1.0000 0.69560  0.01670  0.47120  Biso   1.000  C
  C39      1.0000 0.70330  0.99080  0.53600  Biso   1.000  C
  C40      1.0000 0.79250  0.97620  0.57090  Biso   1.000  C
  C41      1.0000 0.87730  0.97943  0.53940  Biso   1.000  C
  H21      1.0000 0.87600  0.99180  0.49490  Biso   1.000  H
  C42      1.0000 0.96220  0.96410  0.57510  Biso   1.000  C
  H22      1.0000 0.01780  0.96650  0.55450  Biso   1.000  H
  C43      1.0000 0.96480  0.94600  0.63830  Biso   1.000  C
  H23      1.0000 0.02270  0.93620  0.66180  Biso   1.000  H
  C44      1.0000 0.88270  0.94150  0.67020  Biso   1.000  C
  H24      1.0000 0.88580  0.92850  0.71430  Biso   1.000  H
  C45      1.0000 0.79470  0.95664  0.63560  Biso   1.000  C
  C46      1.0000 0.62350  0.98220  0.56610  Biso   1.000  C
  H25      1.0000 0.56430  0.99050  0.54170  Biso   1.000  H
  O8       1.0000 0.62390  0.01606  0.42260  Biso   1.000  O
  N6       1.0000 0.83640  0.11048  0.41050  Biso   1.000  N
  C47      1.0000 0.85680  0.13390  0.36220  Biso   1.000  C
  H26      1.0000 0.82040  0.13420  0.31520  Biso   1.000  H
  C48      1.0000 0.93510  0.15960  0.38030  Biso   1.000  C
  H27      1.0000 0.94920  0.17630  0.34510  Biso   1.000  H
  C49      1.0000 0.98830  0.15930  0.44910  Biso   1.000  C
  C50      1.0000 0.06810  0.18630  0.46810  Biso   1.000  C
  C51      1.0000 0.04310  0.22280  0.48290  Biso   1.000  C
  C52      1.0000 0.94780  0.23490  0.49080  Biso   1.000  C
  H28      1.0000 0.89220  0.22070  0.48330  Biso   1.000  H
  C53      1.0000 0.95480  0.27030  0.51090  Biso   1.000  C
  H29      1.0000 0.90490  0.28540  0.52040  Biso   1.000  H
  C54      1.0000 0.05340  0.28090  0.51500  Biso   1.000  C
  C55      1.0000 0.08900  0.31580  0.53450  Biso   1.000  C
  N7       1.0000 0.10510  0.25144  0.49780  Biso   1.000  N
  N8       1.0000 0.24140  0.19545  0.47450  Biso   1.000  N
  C56      1.0000 0.96670  0.13420  0.49980  Biso   1.000  C
  H30      1.0000 0.00180  0.13300  0.54730  Biso   1.000  H
  C57      1.0000 0.88980  0.11050  0.47680  Biso   1.000  C
  H31      1.0000 0.87480  0.09340  0.51090  Biso   1.000  H
  C58      1.0000 0.94580  0.37790  0.63590  Biso   1.000  C
  H32      1.0000 0.94370  0.38150  0.68590  Biso   1.000  H
  C59      1.0000 0.01650  0.35410  0.61600  Biso   1.000  C
  H33      1.0000 0.06260  0.34470  0.65350  Biso   1.000  H
  C60      1.0000 0.95740  0.36380  0.49840  Biso   1.000  C
  H34      1.0000 0.96040  0.36020  0.44860  Biso   1.000  H
  C61      1.0000 0.27920  0.13580  0.44380  Biso   1.000  C
  H35      1.0000 0.31470  0.11540  0.43340  Biso   1.000  H
  C62      1.0000 0.16010  0.17420  0.46330  Biso   1.000  C
  C63      1.0000 0.18450  0.32800  0.53830  Biso   1.000  C
  C64      1.0000 0.89080  0.38740  0.51880  Biso   1.000  C
  H36      1.0000 0.84770  0.39900  0.48220  Biso   1.000  H
  Zn3      1.0000 0.72237  0.92701  0.88509  Biso   1.000  Zn
  C65      1.0000 0.18310  0.86340  0.94480  Biso   1.000  C
  H37      1.0000 0.14050  0.88310  0.93550  Biso   1.000  H
  O9       1.0000 0.74790  0.05106  0.29370  Biso   1.000  O
  C66      1.0000 0.70850  0.06610  0.23870  Biso   1.000  C
  C67      1.0000 0.62500  0.03740  0.12900  Biso   1.000  C
  H38      1.0000 0.56840  0.04310  0.14620  Biso   1.000  H
  C68      1.0000 0.02070  0.65490  0.05200  Biso   1.000  C
  N9       1.0000 0.88540  0.60551  0.08930  Biso   1.000  N
  C69      1.0000 0.70920  0.04860  0.16550  Biso   1.000  C
  O10      1.0000 0.67110  0.09550  0.24550  Biso   1.000  O
  O11      1.0000 0.76190  0.95975  0.97040  Biso   1.000  O
  C70      1.0000 0.69560  0.98330  0.97120  Biso   1.000  C
  C71      1.0000 0.70330  0.00920  0.03600  Biso   1.000  C
  C72      1.0000 0.79250  0.02380  0.07090  Biso   1.000  C
  C73      1.0000 0.87730  0.02057  0.03940  Biso   1.000  C
  H39      1.0000 0.87600  0.00820  0.99490  Biso   1.000  H
  C74      1.0000 0.96220  0.03590  0.07510  Biso   1.000  C
  H40      1.0000 0.01780  0.03350  0.05450  Biso   1.000  H
  C75      1.0000 0.96480  0.05400  0.13830  Biso   1.000  C
  H41      1.0000 0.02270  0.06380  0.16180  Biso   1.000  H
  C76      1.0000 0.88270  0.05850  0.17020  Biso   1.000  C
  H42      1.0000 0.88580  0.07150  0.21430  Biso   1.000  H
  C77      1.0000 0.79470  0.04336  0.13560  Biso   1.000  C
  C78      1.0000 0.62350  0.01780  0.06610  Biso   1.000  C
  H43      1.0000 0.56430  0.00950  0.04170  Biso   1.000  H
  O12      1.0000 0.62390  0.98394  0.92260  Biso   1.000  O
  N10      1.0000 0.83640  0.88952  0.91050  Biso   1.000  N
  C79      1.0000 0.85680  0.86610  0.86220  Biso   1.000  C
  H44      1.0000 0.82040  0.86580  0.81520  Biso   1.000  H
  C80      1.0000 0.93510  0.84040  0.88030  Biso   1.000  C
  H45      1.0000 0.94920  0.82370  0.84510  Biso   1.000  H
  C81      1.0000 0.98830  0.84070  0.94910  Biso   1.000  C
  C82      1.0000 0.06810  0.81370  0.96810  Biso   1.000  C
  C83      1.0000 0.04310  0.77720  0.98290  Biso   1.000  C
  C84      1.0000 0.94780  0.76510  0.99080  Biso   1.000  C
  H46      1.0000 0.89220  0.77930  0.98330  Biso   1.000  H
  C85      1.0000 0.95480  0.72970  0.01090  Biso   1.000  C
  H47      1.0000 0.90490  0.71460  0.02040  Biso   1.000  H
  C86      1.0000 0.05340  0.71910  0.01500  Biso   1.000  C
  C87      1.0000 0.08900  0.68420  0.03450  Biso   1.000  C
  N11      1.0000 0.10510  0.74856  0.99780  Biso   1.000  N
  N12      1.0000 0.24140  0.80455  0.97450  Biso   1.000  N
  C88      1.0000 0.96670  0.86580  0.99980  Biso   1.000  C
  H48      1.0000 0.00180  0.86700  0.04730  Biso   1.000  H
  C89      1.0000 0.88980  0.88950  0.97680  Biso   1.000  C
  H49      1.0000 0.87480  0.90660  0.01090  Biso   1.000  H
  C90      1.0000 0.94580  0.62210  0.13590  Biso   1.000  C
  H50      1.0000 0.94370  0.61850  0.18590  Biso   1.000  H
  C91      1.0000 0.01650  0.64590  0.11600  Biso   1.000  C
  H51      1.0000 0.06260  0.65530  0.15350  Biso   1.000  H
  C92      1.0000 0.95740  0.63620  0.99840  Biso   1.000  C
  H52      1.0000 0.96040  0.63980  0.94860  Biso   1.000  H
  C93      1.0000 0.27920  0.86420  0.94380  Biso   1.000  C
  H53      1.0000 0.31470  0.88460  0.93340  Biso   1.000  H
  C94      1.0000 0.16010  0.82580  0.96330  Biso   1.000  C
  C95      1.0000 0.18450  0.67200  0.03830  Biso   1.000  C
  C96      1.0000 0.89080  0.61260  0.01880  Biso   1.000  C
  H54      1.0000 0.84770  0.60100  0.98220  Biso   1.000  H
  Zn4      1.0000 0.77763  0.42701  0.61491  Biso   1.000  Zn
  C97      1.0000 0.31690  0.36340  0.55520  Biso   1.000  C
  H55      1.0000 0.35950  0.38310  0.56450  Biso   1.000  H
  O13      1.0000 0.75210  0.55106  0.20630  Biso   1.000  O
  C98      1.0000 0.79150  0.56610  0.26130  Biso   1.000  C
  C99      1.0000 0.87500  0.53740  0.37100  Biso   1.000  C
  H56      1.0000 0.93160  0.54310  0.35380  Biso   1.000  H
  C100     1.0000 0.47930  0.15490  0.44800  Biso   1.000  C
  N13      1.0000 0.61460  0.10551  0.41070  Biso   1.000  N
  C101     1.0000 0.79080  0.54860  0.33450  Biso   1.000  C
  O14      1.0000 0.82890  0.59550  0.25450  Biso   1.000  O
  O15      1.0000 0.73810  0.45975  0.52960  Biso   1.000  O
  C102     1.0000 0.80440  0.48330  0.52880  Biso   1.000  C
  C103     1.0000 0.79670  0.50920  0.46400  Biso   1.000  C
  C104     1.0000 0.70750  0.52380  0.42910  Biso   1.000  C
  C105     1.0000 0.62270  0.52057  0.46060  Biso   1.000  C
  H57      1.0000 0.62400  0.50820  0.50510  Biso   1.000  H
  C106     1.0000 0.53780  0.53590  0.42490  Biso   1.000  C
  H58      1.0000 0.48220  0.53350  0.44550  Biso   1.000  H
  C107     1.0000 0.53520  0.55400  0.36170  Biso   1.000  C
  H59      1.0000 0.47730  0.56380  0.33820  Biso   1.000  H
  C108     1.0000 0.61730  0.55850  0.32980  Biso   1.000  C
  H60      1.0000 0.61420  0.57150  0.28570  Biso   1.000  H
  C109     1.0000 0.70530  0.54336  0.36440  Biso   1.000  C
  C110     1.0000 0.87650  0.51780  0.43390  Biso   1.000  C
  H61      1.0000 0.93570  0.50950  0.45830  Biso   1.000  H
  O16      1.0000 0.87610  0.48394  0.57740  Biso   1.000  O
  N14      1.0000 0.66360  0.38952  0.58950  Biso   1.000  N
  C111     1.0000 0.64320  0.36610  0.63780  Biso   1.000  C
  H62      1.0000 0.67960  0.36580  0.68480  Biso   1.000  H
  C112     1.0000 0.56490  0.34040  0.61970  Biso   1.000  C
  H63      1.0000 0.55080  0.32370  0.65490  Biso   1.000  H
  C113     1.0000 0.51170  0.34070  0.55090  Biso   1.000  C
  C114     1.0000 0.43190  0.31370  0.53190  Biso   1.000  C
  C115     1.0000 0.45690  0.27720  0.51710  Biso   1.000  C
  C116     1.0000 0.55220  0.26510  0.50920  Biso   1.000  C
  H64      1.0000 0.60780  0.27930  0.51670  Biso   1.000  H
  C117     1.0000 0.54520  0.22970  0.48910  Biso   1.000  C
  H65      1.0000 0.59510  0.21460  0.47960  Biso   1.000  H
  C118     1.0000 0.44660  0.21910  0.48500  Biso   1.000  C
  C119     1.0000 0.41100  0.18420  0.46550  Biso   1.000  C
  N15      1.0000 0.39490  0.24856  0.50220  Biso   1.000  N
  N16      1.0000 0.25860  0.30455  0.52550  Biso   1.000  N
  C120     1.0000 0.53330  0.36580  0.50020  Biso   1.000  C
  H66      1.0000 0.49820  0.36700  0.45270  Biso   1.000  H
  C121     1.0000 0.61020  0.38950  0.52320  Biso   1.000  C
  H67      1.0000 0.62520  0.40660  0.48910  Biso   1.000  H
  C122     1.0000 0.55420  0.12210  0.36410  Biso   1.000  C
  H68      1.0000 0.55630  0.11850  0.31410  Biso   1.000  H
  C123     1.0000 0.48350  0.14590  0.38400  Biso   1.000  C
  H69      1.0000 0.43740  0.15530  0.34650  Biso   1.000  H
  C124     1.0000 0.54260  0.13620  0.50160  Biso   1.000  C
  H70      1.0000 0.53960  0.13980  0.55140  Biso   1.000  H
  C125     1.0000 0.22080  0.36420  0.55620  Biso   1.000  C
  H71      1.0000 0.18530  0.38460  0.56660  Biso   1.000  H
  C126     1.0000 0.33990  0.32580  0.53670  Biso   1.000  C
  C127     1.0000 0.31550  0.17200  0.46170  Biso   1.000  C
  C128     1.0000 0.60920  0.11260  0.48120  Biso   1.000  C
  H72      1.0000 0.65230  0.10100  0.51780  Biso   1.000  H
  Zn5      1.0000 0.25000  0.75000  0.00000  Biso   1.000  Zn
  Zn6      1.0000 0.25000  0.25000  0.50000  Biso   1.000  Zn
  Zn7      1.0000 0.27763  0.07299  0.11491  Biso   1.000  Zn
  C129     1.0000 0.81690  0.13660  0.05520  Biso   1.000  C
  H73      1.0000 0.85950  0.11690  0.06450  Biso   1.000  H
  O17      1.0000 0.25210  0.94894  0.70630  Biso   1.000  O
  C130     1.0000 0.29150  0.93390  0.76130  Biso   1.000  C
  C131     1.0000 0.37500  0.96260  0.87100  Biso   1.000  C
  H74      1.0000 0.43160  0.95690  0.85380  Biso   1.000  H
  C132     1.0000 0.97930  0.34510  0.94800  Biso   1.000  C
  N17      1.0000 0.11460  0.39449  0.91070  Biso   1.000  N
  C133     1.0000 0.29080  0.95140  0.83450  Biso   1.000  C
  O18      1.0000 0.32890  0.90450  0.75450  Biso   1.000  O
  O19      1.0000 0.23810  0.04025  0.02960  Biso   1.000  O
  C134     1.0000 0.30440  0.01670  0.02880  Biso   1.000  C
  C135     1.0000 0.29670  0.99080  0.96400  Biso   1.000  C
  C136     1.0000 0.20750  0.97620  0.92910  Biso   1.000  C
  C137     1.0000 0.12270  0.97943  0.96060  Biso   1.000  C
  H75      1.0000 0.12400  0.99180  0.00510  Biso   1.000  H
  C138     1.0000 0.03780  0.96410  0.92490  Biso   1.000  C
  H76      1.0000 0.98220  0.96650  0.94550  Biso   1.000  H
  C139     1.0000 0.03520  0.94600  0.86170  Biso   1.000  C
  H77      1.0000 0.97730  0.93620  0.83820  Biso   1.000  H
  C140     1.0000 0.11730  0.94150  0.82980  Biso   1.000  C
  H78      1.0000 0.11420  0.92850  0.78570  Biso   1.000  H
  C141     1.0000 0.20530  0.95664  0.86440  Biso   1.000  C
  C142     1.0000 0.37650  0.98220  0.93390  Biso   1.000  C
  H79      1.0000 0.43570  0.99050  0.95830  Biso   1.000  H
  O20      1.0000 0.37610  0.01606  0.07740  Biso   1.000  O
  N18      1.0000 0.16360  0.11048  0.08950  Biso   1.000  N
  C143     1.0000 0.14320  0.13390  0.13780  Biso   1.000  C
  H80      1.0000 0.17960  0.13420  0.18480  Biso   1.000  H
  C144     1.0000 0.06490  0.15960  0.11970  Biso   1.000  C
  H81      1.0000 0.05080  0.17630  0.15490  Biso   1.000  H
  C145     1.0000 0.01170  0.15930  0.05090  Biso   1.000  C
  C146     1.0000 0.93190  0.18630  0.03190  Biso   1.000  C
  C147     1.0000 0.95690  0.22280  0.01710  Biso   1.000  C
  C148     1.0000 0.05220  0.23490  0.00920  Biso   1.000  C
  H82      1.0000 0.10780  0.22070  0.01670  Biso   1.000  H
  C149     1.0000 0.04520  0.27030  0.98910  Biso   1.000  C
  H83      1.0000 0.09510  0.28540  0.97960  Biso   1.000  H
  C150     1.0000 0.94660  0.28090  0.98500  Biso   1.000  C
  C151     1.0000 0.91100  0.31580  0.96550  Biso   1.000  C
  N19      1.0000 0.89490  0.25144  0.00220  Biso   1.000  N
  N20      1.0000 0.75860  0.19545  0.02550  Biso   1.000  N
  C152     1.0000 0.03330  0.13420  0.00020  Biso   1.000  C
  H84      1.0000 0.99820  0.13300  0.95270  Biso   1.000  H
  C153     1.0000 0.11020  0.11050  0.02320  Biso   1.000  C
  H85      1.0000 0.12520  0.09340  0.98910  Biso   1.000  H
  C154     1.0000 0.05420  0.37790  0.86410  Biso   1.000  C
  H86      1.0000 0.05630  0.38150  0.81410  Biso   1.000  H
  C155     1.0000 0.98350  0.35410  0.88400  Biso   1.000  C
  H87      1.0000 0.93740  0.34470  0.84650  Biso   1.000  H
  C156     1.0000 0.04260  0.36380  0.00160  Biso   1.000  C
  H88      1.0000 0.03960  0.36020  0.05140  Biso   1.000  H
  C157     1.0000 0.72080  0.13580  0.05620  Biso   1.000  C
  H89      1.0000 0.68530  0.11540  0.06660  Biso   1.000  H
  C158     1.0000 0.83990  0.17420  0.03670  Biso   1.000  C
  C159     1.0000 0.81550  0.32800  0.96170  Biso   1.000  C
  C160     1.0000 0.10920  0.38740  0.98120  Biso   1.000  C
  H90      1.0000 0.15230  0.39900  0.01780  Biso   1.000  H
  Zn8      1.0000 0.22237  0.57299  0.38509  Biso   1.000  Zn
  C161     1.0000 0.68310  0.63660  0.44480  Biso   1.000  C
  H91      1.0000 0.64050  0.61690  0.43550  Biso   1.000  H
  O21      1.0000 0.24790  0.44894  0.79370  Biso   1.000  O
  C162     1.0000 0.20850  0.43390  0.73870  Biso   1.000  C
  C163     1.0000 0.12500  0.46260  0.62900  Biso   1.000  C
  H92      1.0000 0.06840  0.45690  0.64620  Biso   1.000  H
  C164     1.0000 0.52070  0.84510  0.55200  Biso   1.000  C
  N21      1.0000 0.38540  0.89449  0.58930  Biso   1.000  N
  C165     1.0000 0.20920  0.45140  0.66550  Biso   1.000  C
  O22      1.0000 0.17110  0.40450  0.74550  Biso   1.000  O
  O23      1.0000 0.26190  0.54025  0.47040  Biso   1.000  O
  C166     1.0000 0.19560  0.51670  0.47120  Biso   1.000  C
  C167     1.0000 0.20330  0.49080  0.53600  Biso   1.000  C
  C168     1.0000 0.29250  0.47620  0.57090  Biso   1.000  C
  C169     1.0000 0.37730  0.47943  0.53940  Biso   1.000  C
  H93      1.0000 0.37600  0.49180  0.49490  Biso   1.000  H
  C170     1.0000 0.46220  0.46410  0.57510  Biso   1.000  C
  H94      1.0000 0.51780  0.46650  0.55450  Biso   1.000  H
  C171     1.0000 0.46480  0.44600  0.63830  Biso   1.000  C
  H95      1.0000 0.52270  0.43620  0.66180  Biso   1.000  H
  C172     1.0000 0.38270  0.44150  0.67020  Biso   1.000  C
  H96      1.0000 0.38580  0.42850  0.71430  Biso   1.000  H
  C173     1.0000 0.29470  0.45664  0.63560  Biso   1.000  C
  C174     1.0000 0.12350  0.48220  0.56610  Biso   1.000  C
  H97      1.0000 0.06430  0.49050  0.54170  Biso   1.000  H
  O24      1.0000 0.12390  0.51606  0.42260  Biso   1.000  O
  N22      1.0000 0.33640  0.61048  0.41050  Biso   1.000  N
  C175     1.0000 0.35680  0.63390  0.36220  Biso   1.000  C
  H98      1.0000 0.32040  0.63420  0.31520  Biso   1.000  H
  C176     1.0000 0.43510  0.65960  0.38030  Biso   1.000  C
  H99      1.0000 0.44920  0.67630  0.34510  Biso   1.000  H
  C177     1.0000 0.48830  0.65930  0.44910  Biso   1.000  C
  C178     1.0000 0.56810  0.68630  0.46810  Biso   1.000  C
  C179     1.0000 0.54310  0.72280  0.48290  Biso   1.000  C
  C180     1.0000 0.44780  0.73490  0.49080  Biso   1.000  C
  H100     1.0000 0.39220  0.72070  0.48330  Biso   1.000  H
  C181     1.0000 0.45480  0.77030  0.51090  Biso   1.000  C
  H101     1.0000 0.40490  0.78540  0.52040  Biso   1.000  H
  C182     1.0000 0.55340  0.78090  0.51500  Biso   1.000  C
  C183     1.0000 0.58900  0.81580  0.53450  Biso   1.000  C
  N23      1.0000 0.60510  0.75144  0.49780  Biso   1.000  N
  N24      1.0000 0.74140  0.69545  0.47450  Biso   1.000  N
  C184     1.0000 0.46670  0.63420  0.49980  Biso   1.000  C
  H102     1.0000 0.50180  0.63300  0.54730  Biso   1.000  H
  C185     1.0000 0.38980  0.61050  0.47680  Biso   1.000  C
  H103     1.0000 0.37480  0.59340  0.51090  Biso   1.000  H
  C186     1.0000 0.44580  0.87790  0.63590  Biso   1.000  C
  H104     1.0000 0.44370  0.88150  0.68590  Biso   1.000  H
  C187     1.0000 0.51650  0.85410  0.61600  Biso   1.000  C
  H105     1.0000 0.56260  0.84470  0.65350  Biso   1.000  H
  C188     1.0000 0.45740  0.86380  0.49840  Biso   1.000  C
  H106     1.0000 0.46040  0.86020  0.44860  Biso   1.000  H
  C189     1.0000 0.77920  0.63580  0.44380  Biso   1.000  C
  H107     1.0000 0.81470  0.61540  0.43340  Biso   1.000  H
  C190     1.0000 0.66010  0.67420  0.46330  Biso   1.000  C
  C191     1.0000 0.68450  0.82800  0.53830  Biso   1.000  C
  C192     1.0000 0.39080  0.88740  0.51880  Biso   1.000  C
  H108     1.0000 0.34770  0.89900  0.48220  Biso   1.000  H
  Zn9      1.0000 0.22237  0.42701  0.88509  Biso   1.000  Zn
  C193     1.0000 0.68310  0.36340  0.94480  Biso   1.000  C
  H109     1.0000 0.64050  0.38310  0.93550  Biso   1.000  H
  O25      1.0000 0.24790  0.55106  0.29370  Biso   1.000  O
  C194     1.0000 0.20850  0.56610  0.23870  Biso   1.000  C
  C195     1.0000 0.12500  0.53740  0.12900  Biso   1.000  C
  H110     1.0000 0.06840  0.54310  0.14620  Biso   1.000  H
  C196     1.0000 0.52070  0.15490  0.05200  Biso   1.000  C
  N25      1.0000 0.38540  0.10551  0.08930  Biso   1.000  N
  C197     1.0000 0.20920  0.54860  0.16550  Biso   1.000  C
  O26      1.0000 0.17110  0.59550  0.24550  Biso   1.000  O
  O27      1.0000 0.26190  0.45975  0.97040  Biso   1.000  O
  C198     1.0000 0.19560  0.48330  0.97120  Biso   1.000  C
  C199     1.0000 0.20330  0.50920  0.03600  Biso   1.000  C
  C200     1.0000 0.29250  0.52380  0.07090  Biso   1.000  C
  C201     1.0000 0.37730  0.52057  0.03940  Biso   1.000  C
  H111     1.0000 0.37600  0.50820  0.99490  Biso   1.000  H
  C202     1.0000 0.46220  0.53590  0.07510  Biso   1.000  C
  H112     1.0000 0.51780  0.53350  0.05450  Biso   1.000  H
  C203     1.0000 0.46480  0.55400  0.13830  Biso   1.000  C
  H113     1.0000 0.52270  0.56380  0.16180  Biso   1.000  H
  C204     1.0000 0.38270  0.55850  0.17020  Biso   1.000  C
  H114     1.0000 0.38580  0.57150  0.21430  Biso   1.000  H
  C205     1.0000 0.29470  0.54336  0.13560  Biso   1.000  C
  C206     1.0000 0.12350  0.51780  0.06610  Biso   1.000  C
  H115     1.0000 0.06430  0.50950  0.04170  Biso   1.000  H
  O28      1.0000 0.12390  0.48394  0.92260  Biso   1.000  O
  N26      1.0000 0.33640  0.38952  0.91050  Biso   1.000  N
  C207     1.0000 0.35680  0.36610  0.86220  Biso   1.000  C
  H116     1.0000 0.32040  0.36580  0.81520  Biso   1.000  H
  C208     1.0000 0.43510  0.34040  0.88030  Biso   1.000  C
  H117     1.0000 0.44920  0.32370  0.84510  Biso   1.000  H
  C209     1.0000 0.48830  0.34070  0.94910  Biso   1.000  C
  C210     1.0000 0.56810  0.31370  0.96810  Biso   1.000  C
  C211     1.0000 0.54310  0.27720  0.98290  Biso   1.000  C
  C212     1.0000 0.44780  0.26510  0.99080  Biso   1.000  C
  H118     1.0000 0.39220  0.27930  0.98330  Biso   1.000  H
  C213     1.0000 0.45480  0.22970  0.01090  Biso   1.000  C
  H119     1.0000 0.40490  0.21460  0.02040  Biso   1.000  H
  C214     1.0000 0.55340  0.21910  0.01500  Biso   1.000  C
  C215     1.0000 0.58900  0.18420  0.03450  Biso   1.000  C
  N27      1.0000 0.60510  0.24856  0.99780  Biso   1.000  N
  N28      1.0000 0.74140  0.30455  0.97450  Biso   1.000  N
  C216     1.0000 0.46670  0.36580  0.99980  Biso   1.000  C
  H120     1.0000 0.50180  0.36700  0.04730  Biso   1.000  H
  C217     1.0000 0.38980  0.38950  0.97680  Biso   1.000  C
  H121     1.0000 0.37480  0.40660  0.01090  Biso   1.000  H
  C218     1.0000 0.44580  0.12210  0.13590  Biso   1.000  C
  H122     1.0000 0.44370  0.11850  0.18590  Biso   1.000  H
  C219     1.0000 0.51650  0.14590  0.11600  Biso   1.000  C
  H123     1.0000 0.56260  0.15530  0.15350  Biso   1.000  H
  C220     1.0000 0.45740  0.13620  0.99840  Biso   1.000  C
  H124     1.0000 0.46040  0.13980  0.94860  Biso   1.000  H
  C221     1.0000 0.77920  0.36420  0.94380  Biso   1.000  C
  H125     1.0000 0.81470  0.38460  0.93340  Biso   1.000  H
  C222     1.0000 0.66010  0.32580  0.96330  Biso   1.000  C
  C223     1.0000 0.68450  0.17200  0.03830  Biso   1.000  C
  C224     1.0000 0.39080  0.11260  0.01880  Biso   1.000  C
  H126     1.0000 0.34770  0.10100  0.98220  Biso   1.000  H
  Zn10     1.0000 0.27763  0.92701  0.61491  Biso   1.000  Zn
  C225     1.0000 0.81690  0.86340  0.55520  Biso   1.000  C
  H127     1.0000 0.85950  0.88310  0.56450  Biso   1.000  H
  O29      1.0000 0.25210  0.05106  0.20630  Biso   1.000  O
  C226     1.0000 0.29150  0.06610  0.26130  Biso   1.000  C
  C227     1.0000 0.37500  0.03740  0.37100  Biso   1.000  C
  H128     1.0000 0.43160  0.04310  0.35380  Biso   1.000  H
  C228     1.0000 0.97930  0.65490  0.44800  Biso   1.000  C
  N29      1.0000 0.11460  0.60551  0.41070  Biso   1.000  N
  C229     1.0000 0.29080  0.04860  0.33450  Biso   1.000  C
  O30      1.0000 0.32890  0.09550  0.25450  Biso   1.000  O
  O31      1.0000 0.23810  0.95975  0.52960  Biso   1.000  O
  C230     1.0000 0.30440  0.98330  0.52880  Biso   1.000  C
  C231     1.0000 0.29670  0.00920  0.46400  Biso   1.000  C
  C232     1.0000 0.20750  0.02380  0.42910  Biso   1.000  C
  C233     1.0000 0.12270  0.02057  0.46060  Biso   1.000  C
  H129     1.0000 0.12400  0.00820  0.50510  Biso   1.000  H
  C234     1.0000 0.03780  0.03590  0.42490  Biso   1.000  C
  H130     1.0000 0.98220  0.03350  0.44550  Biso   1.000  H
  C235     1.0000 0.03520  0.05400  0.36170  Biso   1.000  C
  H131     1.0000 0.97730  0.06380  0.33820  Biso   1.000  H
  C236     1.0000 0.11730  0.05850  0.32980  Biso   1.000  C
  H132     1.0000 0.11420  0.07150  0.28570  Biso   1.000  H
  C237     1.0000 0.20530  0.04336  0.36440  Biso   1.000  C
  C238     1.0000 0.37650  0.01780  0.43390  Biso   1.000  C
  H133     1.0000 0.43570  0.00950  0.45830  Biso   1.000  H
  O32      1.0000 0.37610  0.98394  0.57740  Biso   1.000  O
  N30      1.0000 0.16360  0.88952  0.58950  Biso   1.000  N
  C239     1.0000 0.14320  0.86610  0.63780  Biso   1.000  C
  H134     1.0000 0.17960  0.86580  0.68480  Biso   1.000  H
  C240     1.0000 0.06490  0.84040  0.61970  Biso   1.000  C
  H135     1.0000 0.05080  0.82370  0.65490  Biso   1.000  H
  C241     1.0000 0.01170  0.84070  0.55090  Biso   1.000  C
  C242     1.0000 0.93190  0.81370  0.53190  Biso   1.000  C
  C243     1.0000 0.95690  0.77720  0.51710  Biso   1.000  C
  C244     1.0000 0.05220  0.76510  0.50920  Biso   1.000  C
  H136     1.0000 0.10780  0.77930  0.51670  Biso   1.000  H
  C245     1.0000 0.04520  0.72970  0.48910  Biso   1.000  C
  H137     1.0000 0.09510  0.71460  0.47960  Biso   1.000  H
  C246     1.0000 0.94660  0.71910  0.48500  Biso   1.000  C
  C247     1.0000 0.91100  0.68420  0.46550  Biso   1.000  C
  N31      1.0000 0.89490  0.74856  0.50220  Biso   1.000  N
  N32      1.0000 0.75860  0.80455  0.52550  Biso   1.000  N
  C248     1.0000 0.03330  0.86580  0.50020  Biso   1.000  C
  H138     1.0000 0.99820  0.86700  0.45270  Biso   1.000  H
  C249     1.0000 0.11020  0.88950  0.52320  Biso   1.000  C
  H139     1.0000 0.12520  0.90660  0.48910  Biso   1.000  H
  C250     1.0000 0.05420  0.62210  0.36410  Biso   1.000  C
  H140     1.0000 0.05630  0.61850  0.31410  Biso   1.000  H
  C251     1.0000 0.98350  0.64590  0.38400  Biso   1.000  C
  H141     1.0000 0.93740  0.65530  0.34650  Biso   1.000  H
  C252     1.0000 0.04260  0.63620  0.50160  Biso   1.000  C
  H142     1.0000 0.03960  0.63980  0.55140  Biso   1.000  H
  C253     1.0000 0.72080  0.86420  0.55620  Biso   1.000  C
  H143     1.0000 0.68530  0.88460  0.56660  Biso   1.000  H
  C254     1.0000 0.83990  0.82580  0.53670  Biso   1.000  C
  C255     1.0000 0.81550  0.67200  0.46170  Biso   1.000  C
  C256     1.0000 0.10920  0.61260  0.48120  Biso   1.000  C
  H144     1.0000 0.15230  0.60100  0.51780  Biso   1.000  H
  Zn11     1.0000 0.75000  0.75000  0.50000  Biso   1.000  Zn
  Zn12     1.0000 0.75000  0.25000  0.00000  Biso   1.000  Zn
