data_image0
_cell_length_a       20.276
_cell_length_b       7.5323
_cell_length_c       6.76
_cell_angle_alpha    90
_cell_angle_beta     100.72
_cell_angle_gamma    90

_symmetry_space_group_name_H-M    "P 1"
_symmetry_int_tables_number       1

loop_
  _symmetry_equiv_pos_as_xyz
  'x, y, z'

loop_
  _atom_site_label
  _atom_site_occupancy
  _atom_site_fract_x
  _atom_site_fract_y
  _atom_site_fract_z
  _atom_site_thermal_displace_type
  _atom_site_B_iso_or_equiv
  _atom_site_type_symbol
  Al1      1.0000 0.99872  0.00020  0.99870  Biso   1.000  Al
  O1       1.0000 0.99980  0.88990  0.74450  Biso   1.000  O
  O2       1.0000 0.21503  0.22064  0.19301  Biso   1.000  O
  O3       1.0000 0.28083  0.26844  0.25201  Biso   1.000  O
  C1       1.0000 0.07920  0.12171  0.06219  Biso   1.000  C
  C2       1.0000 0.41735  0.36737  0.36533  Biso   1.000  C
  C3       1.0000 0.18884  0.19673  0.99238  Biso   1.000  C
  C4       1.0000 0.22846  0.22064  0.85075  Biso   1.000  C
  C5       1.0000 0.29427  0.26844  0.90974  Biso   1.000  C
  C6       1.0000 0.32045  0.29235  0.11037  Biso   1.000  C
  C7       1.0000 0.11679  0.14439  0.92780  Biso   1.000  C
  C8       1.0000 0.09195  0.12171  0.73742  Biso   1.000  C
  C9       1.0000 0.39250  0.34469  0.17496  Biso   1.000  C
  C10      1.0000 0.43010  0.36737  0.04056  Biso   1.000  C
  Al2      1.0000 0.49872  0.50020  0.99870  Biso   1.000  Al
  O4       1.0000 0.49980  0.38990  0.74450  Biso   1.000  O
  O5       1.0000 0.71503  0.72064  0.19301  Biso   1.000  O
  O6       1.0000 0.78083  0.76844  0.25201  Biso   1.000  O
  C11      1.0000 0.57920  0.62171  0.06219  Biso   1.000  C
  C12      1.0000 0.91735  0.86737  0.36533  Biso   1.000  C
  C13      1.0000 0.68884  0.69673  0.99238  Biso   1.000  C
  C14      1.0000 0.72846  0.72064  0.85075  Biso   1.000  C
  C15      1.0000 0.79427  0.76844  0.90974  Biso   1.000  C
  C16      1.0000 0.82045  0.79235  0.11037  Biso   1.000  C
  C17      1.0000 0.61679  0.64439  0.92780  Biso   1.000  C
  C18      1.0000 0.59195  0.62171  0.73742  Biso   1.000  C
  C19      1.0000 0.89250  0.84469  0.17496  Biso   1.000  C
  C20      1.0000 0.93010  0.86737  0.04056  Biso   1.000  C
  Al3      1.0000 0.99872  0.99980  0.49870  Biso   1.000  Al
  O7       1.0000 0.99980  0.11010  0.24450  Biso   1.000  O
  O8       1.0000 0.21503  0.77936  0.69301  Biso   1.000  O
  O9       1.0000 0.28083  0.73156  0.75201  Biso   1.000  O
  C21      1.0000 0.07920  0.87829  0.56219  Biso   1.000  C
  C22      1.0000 0.41735  0.63263  0.86533  Biso   1.000  C
  C23      1.0000 0.18884  0.80327  0.49238  Biso   1.000  C
  C24      1.0000 0.22846  0.77936  0.35075  Biso   1.000  C
  C25      1.0000 0.29427  0.73156  0.40974  Biso   1.000  C
  C26      1.0000 0.32045  0.70765  0.61037  Biso   1.000  C
  C27      1.0000 0.11679  0.85561  0.42780  Biso   1.000  C
  C28      1.0000 0.09195  0.87829  0.23742  Biso   1.000  C
  C29      1.0000 0.39250  0.65531  0.67496  Biso   1.000  C
  C30      1.0000 0.43010  0.63263  0.54056  Biso   1.000  C
  Al4      1.0000 0.49872  0.49980  0.49870  Biso   1.000  Al
  O10      1.0000 0.49980  0.61010  0.24450  Biso   1.000  O
  O11      1.0000 0.71503  0.27936  0.69301  Biso   1.000  O
  O12      1.0000 0.78083  0.23156  0.75201  Biso   1.000  O
  C31      1.0000 0.57920  0.37829  0.56219  Biso   1.000  C
  C32      1.0000 0.91735  0.13263  0.86533  Biso   1.000  C
  C33      1.0000 0.68884  0.30327  0.49238  Biso   1.000  C
  C34      1.0000 0.72846  0.27936  0.35075  Biso   1.000  C
  C35      1.0000 0.79427  0.23156  0.40974  Biso   1.000  C
  C36      1.0000 0.82045  0.20765  0.61037  Biso   1.000  C
  C37      1.0000 0.61679  0.35561  0.42780  Biso   1.000  C
  C38      1.0000 0.59195  0.37829  0.23742  Biso   1.000  C
  C39      1.0000 0.89250  0.15531  0.67496  Biso   1.000  C
  C40      1.0000 0.93010  0.13263  0.54056  Biso   1.000  C
