data_image0
_cell_length_a       19.806
_cell_length_b       7.366
_cell_length_c       7.055
_cell_angle_alpha    90
_cell_angle_beta     104.36
_cell_angle_gamma    90

_symmetry_space_group_name_H-M    "P 1"
_symmetry_int_tables_number       1

loop_
  _symmetry_equiv_pos_as_xyz
  'x, y, z'

loop_
  _atom_site_label
  _atom_site_occupancy
  _atom_site_fract_x
  _atom_site_fract_y
  _atom_site_fract_z
  _atom_site_thermal_displace_type
  _atom_site_B_iso_or_equiv
  _atom_site_type_symbol
  Al1      1.0000 0.99872  0.00020  0.99870  Biso   1.000  Al
  O1       1.0000 0.99980  0.88990  0.74450  Biso   1.000  O
  O2       1.0000 0.22000  0.22000  0.19000  Biso   1.000  O
  O3       1.0000 0.29000  0.27000  0.25000  Biso   1.000  O
  C1       1.0000 0.07000  0.12000  0.06000  Biso   1.000  C
  C2       1.0000 0.93000  0.13000  0.86000  Biso   1.000  C
  C3       1.0000 0.19000  0.20000  0.99000  Biso   1.000  C
  C4       1.0000 0.22000  0.22000  0.86000  Biso   1.000  C
  C5       1.0000 0.29000  0.27000  0.91000  Biso   1.000  C
  C6       1.0000 0.32000  0.29000  0.11000  Biso   1.000  C
  C7       1.0000 0.11000  0.14000  0.93000  Biso   1.000  C
  C8       1.0000 0.08000  0.88000  0.25000  Biso   1.000  C
  C9       1.0000 0.90000  0.15000  0.67000  Biso   1.000  C
  C10      1.0000 0.93000  0.87000  0.04000  Biso   1.000  C
  Al2      1.0000 0.49872  0.50020  0.99870  Biso   1.000  Al
  O4       1.0000 0.49980  0.38990  0.74450  Biso   1.000  O
  O5       1.0000 0.72000  0.72000  0.19000  Biso   1.000  O
  O6       1.0000 0.79000  0.77000  0.25000  Biso   1.000  O
  C11      1.0000 0.57000  0.62000  0.06000  Biso   1.000  C
  C12      1.0000 0.43000  0.63000  0.86000  Biso   1.000  C
  C13      1.0000 0.69000  0.70000  0.99000  Biso   1.000  C
  C14      1.0000 0.72000  0.72000  0.86000  Biso   1.000  C
  C15      1.0000 0.79000  0.77000  0.91000  Biso   1.000  C
  C16      1.0000 0.82000  0.79000  0.11000  Biso   1.000  C
  C17      1.0000 0.61000  0.64000  0.93000  Biso   1.000  C
  C18      1.0000 0.58000  0.38000  0.25000  Biso   1.000  C
  C19      1.0000 0.40000  0.65000  0.67000  Biso   1.000  C
  C20      1.0000 0.43000  0.37000  0.04000  Biso   1.000  C
  Al3      1.0000 0.99872  0.99980  0.49870  Biso   1.000  Al
  O7       1.0000 0.99980  0.11010  0.24450  Biso   1.000  O
  O8       1.0000 0.22000  0.78000  0.69000  Biso   1.000  O
  O9       1.0000 0.29000  0.73000  0.75000  Biso   1.000  O
  C21      1.0000 0.07000  0.88000  0.56000  Biso   1.000  C
  C22      1.0000 0.93000  0.87000  0.36000  Biso   1.000  C
  C23      1.0000 0.19000  0.80000  0.49000  Biso   1.000  C
  C24      1.0000 0.22000  0.78000  0.36000  Biso   1.000  C
  C25      1.0000 0.29000  0.73000  0.41000  Biso   1.000  C
  C26      1.0000 0.32000  0.71000  0.61000  Biso   1.000  C
  C27      1.0000 0.11000  0.86000  0.43000  Biso   1.000  C
  C28      1.0000 0.08000  0.12000  0.75000  Biso   1.000  C
  C29      1.0000 0.90000  0.85000  0.17000  Biso   1.000  C
  C30      1.0000 0.93000  0.13000  0.54000  Biso   1.000  C
  Al4      1.0000 0.49872  0.49980  0.49870  Biso   1.000  Al
  O10      1.0000 0.49980  0.61010  0.24450  Biso   1.000  O
  O11      1.0000 0.72000  0.28000  0.69000  Biso   1.000  O
  O12      1.0000 0.79000  0.23000  0.75000  Biso   1.000  O
  C31      1.0000 0.57000  0.38000  0.56000  Biso   1.000  C
  C32      1.0000 0.43000  0.37000  0.36000  Biso   1.000  C
  C33      1.0000 0.69000  0.30000  0.49000  Biso   1.000  C
  C34      1.0000 0.72000  0.28000  0.36000  Biso   1.000  C
  C35      1.0000 0.79000  0.23000  0.41000  Biso   1.000  C
  C36      1.0000 0.82000  0.21000  0.61000  Biso   1.000  C
  C37      1.0000 0.61000  0.36000  0.43000  Biso   1.000  C
  C38      1.0000 0.58000  0.62000  0.75000  Biso   1.000  C
  C39      1.0000 0.40000  0.35000  0.17000  Biso   1.000  C
  C40      1.0000 0.43000  0.63000  0.54000  Biso   1.000  C
