data_image0
_cell_length_a       9.2713
_cell_length_b       14.453
_cell_length_c       9.996
_cell_angle_alpha    90
_cell_angle_beta     116.16
_cell_angle_gamma    90

_symmetry_space_group_name_H-M    "P 1"
_symmetry_int_tables_number       1

loop_
  _symmetry_equiv_pos_as_xyz
  'x, y, z'

loop_
  _atom_site_label
  _atom_site_occupancy
  _atom_site_fract_x
  _atom_site_fract_y
  _atom_site_fract_z
  _atom_site_thermal_displace_type
  _atom_site_B_iso_or_equiv
  _atom_site_type_symbol
  H1       1.0000 0.43300  0.41600  0.52000  Biso   1.000  H
  H2       1.0000 0.77500  0.29600  0.95500  Biso   1.000  H
  H3       1.0000 0.04800  0.22400  0.95900  Biso   1.000  H
  H4       1.0000 0.05700  0.19400  0.45600  Biso   1.000  H
  H5       1.0000 0.99500  0.38000  0.88800  Biso   1.000  H
  In1      1.0000 0.27157  0.35405  0.76791  Biso   1.000  In
  In2      1.0000 0.00805  0.46119  0.25249  Biso   1.000  In
  In3      1.0000 0.24713  0.06013  0.25239  Biso   1.000  In
  O1       1.0000 0.12300  0.44160  0.11420  Biso   1.000  O
  O2       1.0000 0.26880  0.12800  0.07400  Biso   1.000  O
  O3       1.0000 0.02190  0.38040  0.62810  Biso   1.000  O
  O4       1.0000 0.78620  0.48520  0.57970  Biso   1.000  O
  O5       1.0000 0.00560  0.54140  0.88210  Biso   1.000  O
  O6       1.0000 0.06220  0.32400  0.32880  Biso   1.000  O
  O7       1.0000 0.23000  0.23660  0.86650  Biso   1.000  O
  O8       1.0000 0.49850  0.57110  0.60020  Biso   1.000  O
  O9       1.0000 0.32690  0.47930  0.69010  Biso   1.000  O
  O10      1.0000 0.04710  0.10130  0.81070  Biso   1.000  O
  O11      1.0000 0.22650  0.51940  0.41700  Biso   1.000  O
  O12      1.0000 0.52210  0.33500  0.90550  Biso   1.000  O
  O13      1.0000 0.27880  0.27690  0.58610  Biso   1.000  O
  O14      1.0000 0.24280  0.18700  0.36070  Biso   1.000  O
  O15      1.0000 0.76880  0.41440  0.09320  Biso   1.000  O
  O16      1.0000 0.69460  0.43050  0.81620  Biso   1.000  O
  O17      1.0000 0.88220  0.46980  0.38630  Biso   1.000  O
  O18      1.0000 0.24450  0.43870  0.93540  Biso   1.000  O
  P1       1.0000 0.37159  0.49554  0.56205  Biso   1.000  P
  P2       1.0000 0.68945  0.37141  0.93744  Biso   1.000  P
  P3       1.0000 0.14641  0.17077  0.92754  Biso   1.000  P
  P4       1.0000 0.15709  0.24615  0.42857  Biso   1.000  P
  P5       1.0000 0.08821  0.45113  0.95159  Biso   1.000  P
  P6       1.0000 0.93385  0.46950  0.55297  Biso   1.000  P
  H6       1.0000 0.01120  0.52400  0.60760  Biso   1.000  H
  H7       1.0000 0.56700  0.91600  0.48000  Biso   1.000  H
  H8       1.0000 0.22500  0.79600  0.04500  Biso   1.000  H
  H9       1.0000 0.95200  0.72400  0.04100  Biso   1.000  H
  H10      1.0000 0.94300  0.69400  0.54400  Biso   1.000  H
  H11      1.0000 0.00500  0.88000  0.11200  Biso   1.000  H
  In4      1.0000 0.72843  0.85405  0.23209  Biso   1.000  In
  In5      1.0000 0.99195  0.96119  0.74751  Biso   1.000  In
  In6      1.0000 0.75287  0.56013  0.74761  Biso   1.000  In
  O19      1.0000 0.87700  0.94160  0.88580  Biso   1.000  O
  O20      1.0000 0.73120  0.62800  0.92600  Biso   1.000  O
  O21      1.0000 0.97810  0.88040  0.37190  Biso   1.000  O
  O22      1.0000 0.21380  0.98520  0.42030  Biso   1.000  O
  O23      1.0000 0.99440  0.04140  0.11790  Biso   1.000  O
  O24      1.0000 0.93780  0.82400  0.67120  Biso   1.000  O
  O25      1.0000 0.77000  0.73660  0.13350  Biso   1.000  O
  O26      1.0000 0.50150  0.07110  0.39980  Biso   1.000  O
  O27      1.0000 0.67310  0.97930  0.30990  Biso   1.000  O
  O28      1.0000 0.95290  0.60130  0.18930  Biso   1.000  O
  O29      1.0000 0.77350  0.01940  0.58300  Biso   1.000  O
  O30      1.0000 0.47790  0.83500  0.09450  Biso   1.000  O
  O31      1.0000 0.72120  0.77690  0.41390  Biso   1.000  O
  O32      1.0000 0.75720  0.68700  0.63930  Biso   1.000  O
  O33      1.0000 0.23120  0.91440  0.90680  Biso   1.000  O
  O34      1.0000 0.30540  0.93050  0.18380  Biso   1.000  O
  O35      1.0000 0.11780  0.96980  0.61370  Biso   1.000  O
  O36      1.0000 0.75550  0.93870  0.06460  Biso   1.000  O
  P7       1.0000 0.62841  0.99554  0.43795  Biso   1.000  P
  P8       1.0000 0.31055  0.87141  0.06256  Biso   1.000  P
  P9       1.0000 0.85359  0.67077  0.07246  Biso   1.000  P
  P10      1.0000 0.84291  0.74615  0.57143  Biso   1.000  P
  P11      1.0000 0.91179  0.95113  0.04841  Biso   1.000  P
  P12      1.0000 0.06615  0.96950  0.44703  Biso   1.000  P
  H12      1.0000 0.98880  0.02400  0.39240  Biso   1.000  H
