data_image0
_cell_length_a       8.709
_cell_length_b       11.587
_cell_length_c       8.28
_cell_angle_alpha    90
_cell_angle_beta     90
_cell_angle_gamma    90

_symmetry_space_group_name_H-M    "P 1"
_symmetry_int_tables_number       1

loop_
  _symmetry_equiv_pos_as_xyz
  'x, y, z'

loop_
  _atom_site_label
  _atom_site_occupancy
  _atom_site_fract_x
  _atom_site_fract_y
  _atom_site_fract_z
  _atom_site_thermal_displace_type
  _atom_site_B_iso_or_equiv
  _atom_site_type_symbol
  C1       1.0000 0.97029  0.21972  0.02571  Biso   1.000  C
  H1       1.0000 0.91800  0.28040  0.08000  Biso   1.000  H
  O1       1.0000 0.24059  0.40404  0.11873  Biso   1.000  O
  O2       1.0000 0.08746  0.17983  0.09078  Biso   1.000  O
  O3       1.0000 0.91591  0.18578  0.89362  Biso   1.000  O
  C2       1.0000 0.52971  0.78028  0.02571  Biso   1.000  C
  H2       1.0000 0.58200  0.71960  0.08000  Biso   1.000  H
  O4       1.0000 0.25941  0.59596  0.11873  Biso   1.000  O
  O5       1.0000 0.41254  0.82017  0.09078  Biso   1.000  O
  O6       1.0000 0.58409  0.81422  0.89362  Biso   1.000  O
  C3       1.0000 0.52971  0.71972  0.47429  Biso   1.000  C
  H3       1.0000 0.58200  0.78040  0.42000  Biso   1.000  H
  O7       1.0000 0.25941  0.90404  0.38127  Biso   1.000  O
  O8       1.0000 0.41254  0.67983  0.40922  Biso   1.000  O
  O9       1.0000 0.58409  0.68578  0.60638  Biso   1.000  O
  C4       1.0000 0.97029  0.28028  0.47429  Biso   1.000  C
  H4       1.0000 0.91800  0.21960  0.42000  Biso   1.000  H
  O10      1.0000 0.24059  0.09596  0.38127  Biso   1.000  O
  O11      1.0000 0.08746  0.32017  0.40922  Biso   1.000  O
  O12      1.0000 0.91591  0.31422  0.60638  Biso   1.000  O
  C5       1.0000 0.02971  0.78028  0.97429  Biso   1.000  C
  H5       1.0000 0.08200  0.71960  0.92000  Biso   1.000  H
  O13      1.0000 0.75941  0.59596  0.88127  Biso   1.000  O
  O14      1.0000 0.91254  0.82017  0.90922  Biso   1.000  O
  O15      1.0000 0.08409  0.81422  0.10638  Biso   1.000  O
  C6       1.0000 0.47029  0.21972  0.97429  Biso   1.000  C
  H6       1.0000 0.41800  0.28040  0.92000  Biso   1.000  H
  O16      1.0000 0.74059  0.40404  0.88127  Biso   1.000  O
  O17      1.0000 0.58746  0.17983  0.90922  Biso   1.000  O
  O18      1.0000 0.41591  0.18578  0.10638  Biso   1.000  O
  C7       1.0000 0.47029  0.28028  0.52571  Biso   1.000  C
  H7       1.0000 0.41800  0.21960  0.58000  Biso   1.000  H
  O19      1.0000 0.74059  0.09596  0.61873  Biso   1.000  O
  O20      1.0000 0.58746  0.32017  0.59078  Biso   1.000  O
  O21      1.0000 0.41591  0.31422  0.39362  Biso   1.000  O
  C8       1.0000 0.02971  0.71972  0.52571  Biso   1.000  C
  H8       1.0000 0.08200  0.78040  0.58000  Biso   1.000  H
  O22      1.0000 0.75941  0.90404  0.61873  Biso   1.000  O
  O23      1.0000 0.91254  0.67983  0.59078  Biso   1.000  O
  O24      1.0000 0.08409  0.68578  0.39362  Biso   1.000  O
  C9       1.0000 0.25000  0.50000  0.18840  Biso   1.000  C
  H9       1.0000 0.25000  0.50000  0.30310  Biso   1.000  H
  C10      1.0000 0.25000  0.00000  0.31160  Biso   1.000  C
  H10      1.0000 0.25000  0.00000  0.19690  Biso   1.000  H
  C11      1.0000 0.75000  0.50000  0.81160  Biso   1.000  C
  H11      1.0000 0.75000  0.50000  0.69690  Biso   1.000  H
  C12      1.0000 0.75000  0.00000  0.68840  Biso   1.000  C
  H12      1.0000 0.75000  0.00000  0.80310  Biso   1.000  H
  Mg1      1.0000 0.24103  0.25000  0.25000  Biso   1.000  Mg
  Mg2      1.0000 0.25897  0.75000  0.25000  Biso   1.000  Mg
  Mg3      1.0000 0.75897  0.75000  0.75000  Biso   1.000  Mg
  Mg4      1.0000 0.74103  0.25000  0.75000  Biso   1.000  Mg
