data_image0
_cell_length_a       8.391
_cell_length_b       11.831
_cell_length_c       8.842
_cell_angle_alpha    90
_cell_angle_beta     90
_cell_angle_gamma    90

_symmetry_space_group_name_H-M    "P 1"
_symmetry_int_tables_number       1

loop_
  _symmetry_equiv_pos_as_xyz
  'x, y, z'

loop_
  _atom_site_label
  _atom_site_occupancy
  _atom_site_fract_x
  _atom_site_fract_y
  _atom_site_fract_z
  _atom_site_thermal_displace_type
  _atom_site_B_iso_or_equiv
  _atom_site_type_symbol
  C1       1.0000 0.51810  0.27700  0.01900  Biso   1.000  C
  H1       1.0000 0.58080  0.22370  0.06830  Biso   1.000  H
  O1       1.0000 0.75160  0.09430  0.86020  Biso   1.000  O
  O2       1.0000 0.56080  0.30480  0.88940  Biso   1.000  O
  O3       1.0000 0.40240  0.31240  0.08830  Biso   1.000  O
  C2       1.0000 0.98190  0.72300  0.01900  Biso   1.000  C
  H2       1.0000 0.91920  0.77630  0.06830  Biso   1.000  H
  O4       1.0000 0.74840  0.90570  0.86020  Biso   1.000  O
  O5       1.0000 0.93920  0.69520  0.88940  Biso   1.000  O
  O6       1.0000 0.09760  0.68760  0.08830  Biso   1.000  O
  C3       1.0000 0.98190  0.77700  0.48100  Biso   1.000  C
  H3       1.0000 0.91920  0.72370  0.43170  Biso   1.000  H
  O7       1.0000 0.74840  0.59430  0.63980  Biso   1.000  O
  O8       1.0000 0.93920  0.80480  0.61060  Biso   1.000  O
  O9       1.0000 0.09760  0.81240  0.41170  Biso   1.000  O
  C4       1.0000 0.51810  0.22300  0.48100  Biso   1.000  C
  H4       1.0000 0.58080  0.27630  0.43170  Biso   1.000  H
  O10      1.0000 0.75160  0.40570  0.63980  Biso   1.000  O
  O11      1.0000 0.56080  0.19520  0.61060  Biso   1.000  O
  O12      1.0000 0.40240  0.18760  0.41170  Biso   1.000  O
  C5       1.0000 0.48190  0.72300  0.98100  Biso   1.000  C
  H5       1.0000 0.41920  0.77630  0.93170  Biso   1.000  H
  O13      1.0000 0.24840  0.90570  0.13980  Biso   1.000  O
  O14      1.0000 0.43920  0.69520  0.11060  Biso   1.000  O
  O15      1.0000 0.59760  0.68760  0.91170  Biso   1.000  O
  C6       1.0000 0.01810  0.27700  0.98100  Biso   1.000  C
  H6       1.0000 0.08080  0.22370  0.93170  Biso   1.000  H
  O16      1.0000 0.25160  0.09430  0.13980  Biso   1.000  O
  O17      1.0000 0.06080  0.30480  0.11060  Biso   1.000  O
  O18      1.0000 0.90240  0.31240  0.91170  Biso   1.000  O
  C7       1.0000 0.01810  0.22300  0.51900  Biso   1.000  C
  H7       1.0000 0.08080  0.27630  0.56830  Biso   1.000  H
  O19      1.0000 0.25160  0.40570  0.36020  Biso   1.000  O
  O20      1.0000 0.06080  0.19520  0.38940  Biso   1.000  O
  O21      1.0000 0.90240  0.18760  0.58830  Biso   1.000  O
  C8       1.0000 0.48190  0.77700  0.51900  Biso   1.000  C
  H8       1.0000 0.41920  0.72370  0.56830  Biso   1.000  H
  O22      1.0000 0.24840  0.59430  0.36020  Biso   1.000  O
  O23      1.0000 0.43920  0.80480  0.38940  Biso   1.000  O
  O24      1.0000 0.59760  0.81240  0.58830  Biso   1.000  O
  C9       1.0000 0.75000  0.00000  0.80000  Biso   1.000  C
  H9       1.0000 0.75000  0.00000  0.69480  Biso   1.000  H
  C10      1.0000 0.75000  0.50000  0.70000  Biso   1.000  C
  H10      1.0000 0.75000  0.50000  0.80520  Biso   1.000  H
  C11      1.0000 0.25000  0.00000  0.20000  Biso   1.000  C
  H11      1.0000 0.25000  0.00000  0.30520  Biso   1.000  H
  C12      1.0000 0.25000  0.50000  0.30000  Biso   1.000  C
  H12      1.0000 0.25000  0.50000  0.19480  Biso   1.000  H
  Mg1      1.0000 0.74743  0.25000  0.75000  Biso   1.000  Mg
  Mg2      1.0000 0.75257  0.75000  0.75000  Biso   1.000  Mg
  Mg3      1.0000 0.25257  0.75000  0.25000  Biso   1.000  Mg
  Mg4      1.0000 0.24743  0.25000  0.25000  Biso   1.000  Mg
