data_XAXQEU_clean
_audit_creation_date              2015-05-12
_audit_creation_method            'Materials Studio'
_symmetry_space_group_name_H-M    'P1'
_symmetry_Int_Tables_number       1
_symmetry_cell_setting            triclinic
loop_
_symmetry_equiv_pos_as_xyz
  x,y,z
_cell_length_a                    7.1622
_cell_length_b                    9.0940
_cell_length_c                    9.7490
_cell_angle_alpha                 105.6630
_cell_angle_beta                  103.1810
_cell_angle_gamma                 98.2480
loop_
_atom_site_label
_atom_site_type_symbol
_atom_site_fract_x
_atom_site_fract_y
_atom_site_fract_z
_atom_site_U_iso_or_equiv
_atom_site_adp_type
_atom_site_occupancy
In1    In    0.00000   0.50000  -0.00000   0.01267  Uiso   1.00
In2    In    0.50000   0.50000  -0.00000   0.01267  Uiso   1.00
H3     H     0.50800   0.01300   0.70900   0.01267  Uiso   1.00
H4     H     0.76710   0.11410   0.54870   0.01267  Uiso   1.00
H5     H     0.81290   0.00790   0.64960   0.01267  Uiso   1.00
H6     H     0.07920   0.28250   0.35030   0.01267  Uiso   1.00
H7     H     0.05650   0.30320   0.51020   0.01267  Uiso   1.00
H8     H     0.20650   0.54770   0.41180   0.01267  Uiso   1.00
H9     H     0.33070   0.48310   0.52770   0.01267  Uiso   1.00
H10    H     0.29160   0.14510   0.60370   0.01267  Uiso   1.00
H11    H     0.43560   0.20010   0.51880   0.01267  Uiso   1.00
H12    H     0.75900   0.27700   0.34600   0.01267  Uiso   1.00
H13    H     0.49200   0.98700   0.29100   0.01267  Uiso   1.00
H14    H     0.23290   0.88590   0.45130   0.01267  Uiso   1.00
H15    H     0.18710   0.99210   0.35040   0.01267  Uiso   1.00
H16    H     0.92080   0.71750   0.64970   0.01267  Uiso   1.00
H17    H     0.94350   0.69680   0.48980   0.01267  Uiso   1.00
H18    H     0.79350   0.45230   0.58820   0.01267  Uiso   1.00
H19    H     0.66930   0.51690   0.47230   0.01267  Uiso   1.00
H20    H     0.70840   0.85490   0.39630   0.01267  Uiso   1.00
H21    H     0.56440   0.79990   0.48120   0.01267  Uiso   1.00
H22    H     0.24100   0.72300   0.65400   0.01267  Uiso   1.00
C23    C     0.70880   0.03130   0.58130   0.01267  Uiso   1.00
C24    C     0.04980   0.35260   0.43310   0.01267  Uiso   1.00
C25    C     0.84180   0.37700   0.38240   0.01267  Uiso   1.00
C26    C     0.20250   0.50400   0.49180   0.01267  Uiso   1.00
C27    C     0.80100   0.41970   0.24040   0.01267  Uiso   1.00
C28    C     0.64630   0.23150   0.79270   0.01267  Uiso   1.00
C29    C     0.55920   0.08680   0.66050   0.01267  Uiso   1.00
C30    C     0.38840   0.11470   0.55270   0.01267  Uiso   1.00
C31    C     0.29120   0.96870   0.41870   0.01267  Uiso   1.00
C32    C     0.95020   0.64740   0.56690   0.01267  Uiso   1.00
C33    C     0.15820   0.62300   0.61760   0.01267  Uiso   1.00
C34    C     0.79750   0.49600   0.50820   0.01267  Uiso   1.00
C35    C     0.19900   0.58030   0.75960   0.01267  Uiso   1.00
C36    C     0.35370   0.76850   0.20730   0.01267  Uiso   1.00
C37    C     0.44080   0.91320   0.33950   0.01267  Uiso   1.00
C38    C     0.61160   0.88530   0.44730   0.01267  Uiso   1.00
O39    O     0.76640   0.61460   0.98550   0.01267  Uiso   1.00
O40    O     0.53270   0.27620   0.86990   0.01267  Uiso   1.00
O41    O     0.64360   0.46440   0.20360   0.01267  Uiso   1.00
O42    O     0.82130   0.29880   0.81880   0.01267  Uiso   1.00
O43    O     0.92210   0.40410   0.16440   0.01267  Uiso   1.00
O44    O     0.23360   0.38540   0.01450   0.01267  Uiso   1.00
O45    O     0.46730   0.72380   0.13010   0.01267  Uiso   1.00
O46    O     0.35640   0.53560   0.79640   0.01267  Uiso   1.00
O47    O     0.17870   0.70120   0.18120   0.01267  Uiso   1.00
O48    O     0.07790   0.59590   0.83560   0.01267  Uiso   1.00
H49    H     0.76640   0.72880   0.01426   0.01267  Uiso   1.00
H50    H     0.23360   0.27120   0.98574   0.01267  Uiso   1.00
