data_XAYNAM_charged
_audit_creation_date              2014-07-02
_audit_creation_method            'Materials Studio'
_symmetry_space_group_name_H-M    'P1'
_symmetry_Int_Tables_number       1
_symmetry_cell_setting            triclinic
loop_
_symmetry_equiv_pos_as_xyz
  x,y,z
_cell_length_a                    15.1658
_cell_length_b                    16.9810
_cell_length_c                    19.4360
_cell_angle_alpha                 95.8250
_cell_angle_beta                  90.0000
_cell_angle_gamma                 90.0000
loop_
_atom_site_label
_atom_site_type_symbol
_atom_site_fract_x
_atom_site_fract_y
_atom_site_fract_z
_atom_site_U_iso_or_equiv
_atom_site_adp_type
_atom_site_occupancy
Ag1    Ag    0.92974   0.96636   0.82042   0.01267  Uiso   1.00
Ag2    Ag    0.88877   0.76420   0.46851   0.01267  Uiso   1.00
Ag3    Ag    0.90957   0.53255   0.78903   0.01267  Uiso   1.00
Ag4    Ag    0.42974   0.53364   0.67958   0.01267  Uiso   1.00
Ag5    Ag    0.38877   0.73580   0.03149   0.01267  Uiso   1.00
Ag6    Ag    0.40957   0.96745   0.71097   0.01267  Uiso   1.00
Ag7    Ag    0.07026   0.03364   0.17958   0.01267  Uiso   1.00
Ag8    Ag    0.11123   0.23580   0.53149   0.01267  Uiso   1.00
Ag9    Ag    0.09043   0.46745   0.21097   0.01267  Uiso   1.00
Ag10   Ag    0.57026   0.46636   0.32042   0.01267  Uiso   1.00
Ag11   Ag    0.61123   0.26420   0.96851   0.01267  Uiso   1.00
Ag12   Ag    0.59043   0.03255   0.28903   0.01267  Uiso   1.00
H1     H     0.95360   0.67400   0.90360   0.01267  Uiso   1.00
H2     H     0.94850   0.81190   0.91780   0.01267  Uiso   1.00
H3     H     0.90480   0.00020   0.65090   0.01267  Uiso   1.00
H4     H     0.91170   0.93070   0.54020   0.01267  Uiso   1.00
H5     H     0.94000   0.67360   0.57770   0.01267  Uiso   1.00
H6     H     0.95030   0.60610   0.67200   0.01267  Uiso   1.00
H7     H     0.58100   0.60720   0.43110   0.01267  Uiso   1.00
H8     H     0.67550   0.69860   0.48710   0.01267  Uiso   1.00
H9     H     0.07130   0.72030   0.37800   0.01267  Uiso   1.00
H10    H     0.12580   0.62180   0.30080   0.01267  Uiso   1.00
H11    H     0.89730   0.45740   0.24680   0.01267  Uiso   1.00
H12    H     0.75160   0.45520   0.27800   0.01267  Uiso   1.00
H13    H     0.79840   0.34670   0.97510   0.01267  Uiso   1.00
H14    H     0.89720   0.42380   0.91880   0.01267  Uiso   1.00
H15    H     0.76540   0.59640   0.65960   0.01267  Uiso   1.00
H16    H     0.61730   0.59040   0.62940   0.01267  Uiso   1.00
H17    H     0.49910   0.41160   0.76180   0.01267  Uiso   1.00
H18    H     0.54620   0.34980   0.85230   0.01267  Uiso   1.00
H19    H     0.45360   0.82600   0.59640   0.01267  Uiso   1.00
H20    H     0.44850   0.68810   0.58220   0.01267  Uiso   1.00
H21    H     0.40480   0.49980   0.84910   0.01267  Uiso   1.00
H22    H     0.41170   0.56930   0.95980   0.01267  Uiso   1.00
H23    H     0.44000   0.82640   0.92230   0.01267  Uiso   1.00
H24    H     0.45030   0.89390   0.82800   0.01267  Uiso   1.00
H25    H     0.08100   0.89280   0.06890   0.01267  Uiso   1.00
H26    H     0.17550   0.80140   0.01290   0.01267  Uiso   1.00
H27    H     0.57130   0.77970   0.12200   0.01267  Uiso   1.00
H28    H     0.62580   0.87820   0.19920   0.01267  Uiso   1.00
H29    H     0.39730   0.04260   0.25320   0.01267  Uiso   1.00
H30    H     0.25160   0.04480   0.22200   0.01267  Uiso   1.00
H31    H     0.29840   0.15330   0.52490   0.01267  Uiso   1.00
H32    H     0.39720   0.07620   0.58120   0.01267  Uiso   1.00
H33    H     0.26540   0.90360   0.84040   0.01267  Uiso   1.00
H34    H     0.11730   0.90960   0.87060   0.01267  Uiso   1.00
H35    H     0.99910   0.08840   0.73820   0.01267  Uiso   1.00
H36    H     0.04620   0.15020   0.64770   0.01267  Uiso   1.00
H37    H     0.04640   0.32600   0.09640   0.01267  Uiso   1.00
H38    H     0.05150   0.18810   0.08220   0.01267  Uiso   1.00
H39    H     0.09520   0.99980   0.34910   0.01267  Uiso   1.00
H40    H     0.08830   0.06930   0.45980   0.01267  Uiso   1.00
H41    H     0.06000   0.32640   0.42230   0.01267  Uiso   1.00
H42    H     0.04970   0.39390   0.32800   0.01267  Uiso   1.00
H43    H     0.41900   0.39280   0.56890   0.01267  Uiso   1.00
H44    H     0.32450   0.30140   0.51290   0.01267  Uiso   1.00
H45    H     0.92870   0.27970   0.62200   0.01267  Uiso   1.00
H46    H     0.87420   0.37820   0.69920   0.01267  Uiso   1.00
H47    H     0.10270   0.54260   0.75320   0.01267  Uiso   1.00
H48    H     0.24840   0.54480   0.72200   0.01267  Uiso   1.00
H49    H     0.20160   0.65330   0.02490   0.01267  Uiso   1.00
H50    H     0.10280   0.57620   0.08120   0.01267  Uiso   1.00
H51    H     0.23460   0.40360   0.34040   0.01267  Uiso   1.00
H52    H     0.38270   0.40960   0.37060   0.01267  Uiso   1.00
H53    H     0.50090   0.58840   0.23820   0.01267  Uiso   1.00
H54    H     0.45380   0.65020   0.14770   0.01267  Uiso   1.00
H55    H     0.54640   0.17400   0.40360   0.01267  Uiso   1.00
H56    H     0.55150   0.31190   0.41780   0.01267  Uiso   1.00
H57    H     0.59520   0.50020   0.15090   0.01267  Uiso   1.00
H58    H     0.58830   0.43070   0.04020   0.01267  Uiso   1.00
H59    H     0.56000   0.17360   0.07770   0.01267  Uiso   1.00
H60    H     0.54970   0.10610   0.17200   0.01267  Uiso   1.00
H61    H     0.91900   0.10720   0.93110   0.01267  Uiso   1.00
H62    H     0.82450   0.19860   0.98710   0.01267  Uiso   1.00
H63    H     0.42870   0.22030   0.87800   0.01267  Uiso   1.00
H64    H     0.37420   0.12180   0.80080   0.01267  Uiso   1.00
H65    H     0.60270   0.95740   0.74680   0.01267  Uiso   1.00
H66    H     0.74840   0.95520   0.77800   0.01267  Uiso   1.00
H67    H     0.70160   0.84670   0.47510   0.01267  Uiso   1.00
H68    H     0.60280   0.92380   0.41880   0.01267  Uiso   1.00
H69    H     0.73460   0.09640   0.15960   0.01267  Uiso   1.00
H70    H     0.88270   0.09040   0.12940   0.01267  Uiso   1.00
H71    H     0.00090   0.91160   0.26180   0.01267  Uiso   1.00
H72    H     0.95380   0.84980   0.35230   0.01267  Uiso   1.00
C1     C     0.93670   0.78560   0.75520   0.01267  Uiso   1.00
C2     C     0.94280   0.70310   0.74570   0.01267  Uiso   1.00
C3     C     0.94900   0.70170   0.86370   0.01267  Uiso   1.00
C4     C     0.94540   0.78510   0.87250   0.01267  Uiso   1.00
C5     C     0.92920   0.82890   0.69450   0.01267  Uiso   1.00
C6     C     0.91240   0.94430   0.64660   0.01267  Uiso   1.00
C7     C     0.91550   0.90220   0.57980   0.01267  Uiso   1.00
C8     C     0.93020   0.78570   0.62910   0.01267  Uiso   1.00
C9     C     0.93860   0.70170   0.62250   0.01267  Uiso   1.00
C10    C     0.94470   0.66210   0.67770   0.01267  Uiso   1.00
C11    C     0.81000   0.61300   0.38150   0.01267  Uiso   1.00
C12    C     0.75460   0.55430   0.34960   0.01267  Uiso   1.00
C13    C     0.64130   0.60630   0.41770   0.01267  Uiso   1.00
C14    C     0.69770   0.66230   0.45080   0.01267  Uiso   1.00
C15    C     0.89960   0.61620   0.35860   0.01267  Uiso   1.00
C16    C     0.03350   0.67780   0.36180   0.01267  Uiso   1.00
C17    C     0.06590   0.61880   0.31470   0.01267  Uiso   1.00
C18    C     0.93220   0.55820   0.30930   0.01267  Uiso   1.00
C19    C     0.87500   0.49740   0.28000   0.01267  Uiso   1.00
C20    C     0.78920   0.49560   0.29870   0.01267  Uiso   1.00
C21    C     0.73260   0.44150   0.82450   0.01267  Uiso   1.00
C22    C     0.67250   0.39350   0.85730   0.01267  Uiso   1.00
C23    C     0.77910   0.37060   0.93560   0.01267  Uiso   1.00
C24    C     0.83860   0.41760   0.90180   0.01267  Uiso   1.00
C25    C     0.70300   0.48070   0.76610   0.01267  Uiso   1.00
C26    C     0.72720   0.56460   0.68390   0.01267  Uiso   1.00
C27    C     0.63800   0.55990   0.66450   0.01267  Uiso   1.00
C28    C     0.61470   0.47250   0.74510   0.01267  Uiso   1.00
C29    C     0.55770   0.42010   0.77820   0.01267  Uiso   1.00
C30    C     0.58560   0.38360   0.83120   0.01267  Uiso   1.00
C31    C     0.43670   0.71440   0.74480   0.01267  Uiso   1.00
C32    C     0.44280   0.79690   0.75430   0.01267  Uiso   1.00
C33    C     0.44900   0.79830   0.63630   0.01267  Uiso   1.00
C34    C     0.44540   0.71490   0.62750   0.01267  Uiso   1.00
C35    C     0.42920   0.67110   0.80550   0.01267  Uiso   1.00
C36    C     0.41240   0.55570   0.85340   0.01267  Uiso   1.00
C37    C     0.41550   0.59780   0.92020   0.01267  Uiso   1.00
C38    C     0.43020   0.71430   0.87090   0.01267  Uiso   1.00
C39    C     0.43860   0.79830   0.87750   0.01267  Uiso   1.00
C40    C     0.44470   0.83790   0.82230   0.01267  Uiso   1.00
C41    C     0.31000   0.88700   0.11850   0.01267  Uiso   1.00
C42    C     0.25460   0.94570   0.15040   0.01267  Uiso   1.00
C43    C     0.14130   0.89370   0.08230   0.01267  Uiso   1.00
C44    C     0.19770   0.83770   0.04920   0.01267  Uiso   1.00
C45    C     0.39960   0.88380   0.14140   0.01267  Uiso   1.00
C46    C     0.53350   0.82220   0.13820   0.01267  Uiso   1.00
C47    C     0.56590   0.88120   0.18530   0.01267  Uiso   1.00
C48    C     0.43220   0.94180   0.19070   0.01267  Uiso   1.00
C49    C     0.37500   0.00260   0.22000   0.01267  Uiso   1.00
C50    C     0.28920   0.00440   0.20130   0.01267  Uiso   1.00
C51    C     0.23260   0.05850   0.67550   0.01267  Uiso   1.00
C52    C     0.17250   0.10650   0.64270   0.01267  Uiso   1.00
C53    C     0.27910   0.12940   0.56440   0.01267  Uiso   1.00
C54    C     0.33860   0.08240   0.59820   0.01267  Uiso   1.00
C55    C     0.20300   0.01930   0.73390   0.01267  Uiso   1.00
C56    C     0.22720   0.93540   0.81610   0.01267  Uiso   1.00
C57    C     0.13800   0.94010   0.83550   0.01267  Uiso   1.00
C58    C     0.11470   0.02750   0.75490   0.01267  Uiso   1.00
C59    C     0.05770   0.07990   0.72180   0.01267  Uiso   1.00
C60    C     0.08560   0.11640   0.66880   0.01267  Uiso   1.00
C61    C     0.06330   0.21440   0.24480   0.01267  Uiso   1.00
C62    C     0.05720   0.29690   0.25430   0.01267  Uiso   1.00
C63    C     0.05100   0.29830   0.13630   0.01267  Uiso   1.00
C64    C     0.05460   0.21490   0.12750   0.01267  Uiso   1.00
C65    C     0.07080   0.17110   0.30550   0.01267  Uiso   1.00
C66    C     0.08760   0.05570   0.35340   0.01267  Uiso   1.00
C67    C     0.08450   0.09780   0.42020   0.01267  Uiso   1.00
C68    C     0.06980   0.21430   0.37090   0.01267  Uiso   1.00
C69    C     0.06140   0.29830   0.37750   0.01267  Uiso   1.00
C70    C     0.05530   0.33790   0.32230   0.01267  Uiso   1.00
C71    C     0.19000   0.38700   0.61850   0.01267  Uiso   1.00
C72    C     0.24540   0.44570   0.65040   0.01267  Uiso   1.00
C73    C     0.35870   0.39370   0.58230   0.01267  Uiso   1.00
C74    C     0.30230   0.33770   0.54920   0.01267  Uiso   1.00
C75    C     0.10040   0.38380   0.64140   0.01267  Uiso   1.00
C76    C     0.96650   0.32220   0.63820   0.01267  Uiso   1.00
C77    C     0.93410   0.38120   0.68530   0.01267  Uiso   1.00
C78    C     0.06780   0.44180   0.69070   0.01267  Uiso   1.00
C79    C     0.12500   0.50260   0.72000   0.01267  Uiso   1.00
C80    C     0.21080   0.50440   0.70130   0.01267  Uiso   1.00
C81    C     0.26740   0.55850   0.17550   0.01267  Uiso   1.00
C82    C     0.32750   0.60650   0.14270   0.01267  Uiso   1.00
C83    C     0.22090   0.62940   0.06440   0.01267  Uiso   1.00
C84    C     0.16140   0.58240   0.09820   0.01267  Uiso   1.00
C85    C     0.29700   0.51930   0.23390   0.01267  Uiso   1.00
C86    C     0.27280   0.43540   0.31610   0.01267  Uiso   1.00
C87    C     0.36200   0.44010   0.33550   0.01267  Uiso   1.00
C88    C     0.38530   0.52750   0.25490   0.01267  Uiso   1.00
C89    C     0.44230   0.57990   0.22180   0.01267  Uiso   1.00
C90    C     0.41440   0.61640   0.16880   0.01267  Uiso   1.00
C91    C     0.56330   0.28560   0.25520   0.01267  Uiso   1.00
C92    C     0.55720   0.20310   0.24570   0.01267  Uiso   1.00
C93    C     0.55100   0.20170   0.36370   0.01267  Uiso   1.00
C94    C     0.55460   0.28510   0.37250   0.01267  Uiso   1.00
C95    C     0.57080   0.32890   0.19450   0.01267  Uiso   1.00
C96    C     0.58760   0.44430   0.14660   0.01267  Uiso   1.00
C97    C     0.58450   0.40220   0.07980   0.01267  Uiso   1.00
C98    C     0.56980   0.28570   0.12910   0.01267  Uiso   1.00
C99    C     0.56140   0.20170   0.12250   0.01267  Uiso   1.00
C100   C     0.55530   0.16210   0.17770   0.01267  Uiso   1.00
C101   C     0.69000   0.11300   0.88150   0.01267  Uiso   1.00
C102   C     0.74540   0.05430   0.84960   0.01267  Uiso   1.00
C103   C     0.85870   0.10630   0.91770   0.01267  Uiso   1.00
C104   C     0.80230   0.16230   0.95080   0.01267  Uiso   1.00
C105   C     0.60040   0.11620   0.85860   0.01267  Uiso   1.00
C106   C     0.46650   0.17780   0.86180   0.01267  Uiso   1.00
C107   C     0.43410   0.11880   0.81470   0.01267  Uiso   1.00
C108   C     0.56780   0.05820   0.80930   0.01267  Uiso   1.00
C109   C     0.62500   0.99740   0.78000   0.01267  Uiso   1.00
C110   C     0.71080   0.99560   0.79870   0.01267  Uiso   1.00
C111   C     0.76740   0.94150   0.32450   0.01267  Uiso   1.00
C112   C     0.82750   0.89350   0.35730   0.01267  Uiso   1.00
C113   C     0.72090   0.87060   0.43560   0.01267  Uiso   1.00
C114   C     0.66140   0.91760   0.40180   0.01267  Uiso   1.00
C115   C     0.79700   0.98070   0.26610   0.01267  Uiso   1.00
C116   C     0.77280   0.06460   0.18390   0.01267  Uiso   1.00
C117   C     0.86200   0.05990   0.16450   0.01267  Uiso   1.00
C118   C     0.88530   0.97250   0.24510   0.01267  Uiso   1.00
C119   C     0.94230   0.92010   0.27820   0.01267  Uiso   1.00
C120   C     0.91440   0.88360   0.33120   0.01267  Uiso   1.00
N1     N     0.93770   0.82650   0.81900   0.01267  Uiso   1.00
N2     N     0.94620   0.66050   0.80250   0.01267  Uiso   1.00
N3     N     0.91960   0.90790   0.70260   0.01267  Uiso   1.00
N4     N     0.92360   0.82450   0.57120   0.01267  Uiso   1.00
N5     N     0.78140   0.66640   0.43340   0.01267  Uiso   1.00
N6     N     0.66760   0.55140   0.36810   0.01267  Uiso   1.00
N7     N     0.95150   0.67730   0.38520   0.01267  Uiso   1.00
N8     N     0.01890   0.55920   0.28820   0.01267  Uiso   1.00
N9     N     0.81580   0.45290   0.84810   0.01267  Uiso   1.00
N10    N     0.69790   0.35890   0.91390   0.01267  Uiso   1.00
N11    N     0.76060   0.52690   0.73450   0.01267  Uiso   1.00
N12    N     0.58240   0.51360   0.69420   0.01267  Uiso   1.00
N13    N     0.43770   0.67350   0.68100   0.01267  Uiso   1.00
N14    N     0.44620   0.83950   0.69750   0.01267  Uiso   1.00
N15    N     0.41960   0.59210   0.79740   0.01267  Uiso   1.00
N16    N     0.42360   0.67550   0.92880   0.01267  Uiso   1.00
N17    N     0.28140   0.83360   0.06660   0.01267  Uiso   1.00
N18    N     0.16760   0.94860   0.13190   0.01267  Uiso   1.00
N19    N     0.45150   0.82270   0.11480   0.01267  Uiso   1.00
N20    N     0.51890   0.94080   0.21180   0.01267  Uiso   1.00
N21    N     0.31580   0.04710   0.65190   0.01267  Uiso   1.00
N22    N     0.19790   0.14110   0.58610   0.01267  Uiso   1.00
N23    N     0.26060   0.97310   0.76550   0.01267  Uiso   1.00
N24    N     0.08240   0.98640   0.80580   0.01267  Uiso   1.00
N25    N     0.06230   0.17350   0.18100   0.01267  Uiso   1.00
N26    N     0.05380   0.33950   0.19750   0.01267  Uiso   1.00
N27    N     0.08040   0.09210   0.29740   0.01267  Uiso   1.00
N28    N     0.07640   0.17550   0.42880   0.01267  Uiso   1.00
N29    N     0.21860   0.33360   0.56660   0.01267  Uiso   1.00
N30    N     0.33240   0.44860   0.63190   0.01267  Uiso   1.00
N31    N     0.04850   0.32270   0.61480   0.01267  Uiso   1.00
N32    N     0.98110   0.44080   0.71180   0.01267  Uiso   1.00
N33    N     0.18420   0.54710   0.15190   0.01267  Uiso   1.00
N34    N     0.30210   0.64110   0.08610   0.01267  Uiso   1.00
N35    N     0.23940   0.47310   0.26550   0.01267  Uiso   1.00
N36    N     0.41760   0.48640   0.30580   0.01267  Uiso   1.00
N37    N     0.56230   0.32650   0.31900   0.01267  Uiso   1.00
N38    N     0.55380   0.16050   0.30250   0.01267  Uiso   1.00
N39    N     0.58040   0.40790   0.20260   0.01267  Uiso   1.00
N40    N     0.57640   0.32450   0.07120   0.01267  Uiso   1.00
N41    N     0.71860   0.16640   0.93340   0.01267  Uiso   1.00
N42    N     0.83240   0.05140   0.86810   0.01267  Uiso   1.00
N43    N     0.54850   0.17730   0.88520   0.01267  Uiso   1.00
N44    N     0.48110   0.05920   0.78820   0.01267  Uiso   1.00
N45    N     0.68420   0.95290   0.34810   0.01267  Uiso   1.00
N46    N     0.80210   0.85890   0.41390   0.01267  Uiso   1.00
N47    N     0.73940   0.02690   0.23450   0.01267  Uiso   1.00
N48    N     0.91760   0.01360   0.19420   0.01267  Uiso   1.00
B1     B     0.29710   0.30180   0.77260   0.01267  Uiso   1.00
F1     F     0.35830   0.35160   0.80330   0.01267  Uiso   1.00
F2     F     0.21540   0.33680   0.76660   0.01267  Uiso   1.00
F3     F     0.28380   0.23690   0.80980   0.01267  Uiso   1.00
F4     F     0.32010   0.27000   0.70730   0.01267  Uiso   1.00
B2     B     0.68970   0.78460   0.63980   0.01267  Uiso   1.00
F5     F     0.63240   0.72760   0.61150   0.01267  Uiso   1.00
F6     F     0.64570   0.84710   0.67560   0.01267  Uiso   1.00
F7     F     0.74870   0.75240   0.68500   0.01267  Uiso   1.00
F8     F     0.73820   0.81230   0.58650   0.01267  Uiso   1.00
B3     B     0.79710   0.19820   0.72740   0.01267  Uiso   1.00
F9     F     0.85830   0.14840   0.69670   0.01267  Uiso   1.00
F10    F     0.71540   0.16320   0.73340   0.01267  Uiso   1.00
F11    F     0.78380   0.26310   0.69020   0.01267  Uiso   1.00
F12    F     0.82010   0.23000   0.79270   0.01267  Uiso   1.00
B4     B     0.18970   0.71540   0.86020   0.01267  Uiso   1.00
F13    F     0.13240   0.77240   0.88850   0.01267  Uiso   1.00
F14    F     0.14570   0.65290   0.82440   0.01267  Uiso   1.00
F15    F     0.24870   0.74760   0.81500   0.01267  Uiso   1.00
F16    F     0.23820   0.68770   0.91350   0.01267  Uiso   1.00
B5     B     0.70290   0.69820   0.22740   0.01267  Uiso   1.00
F17    F     0.64170   0.64840   0.19670   0.01267  Uiso   1.00
F18    F     0.78460   0.66320   0.23340   0.01267  Uiso   1.00
F19    F     0.71620   0.76310   0.19020   0.01267  Uiso   1.00
F20    F     0.67990   0.73000   0.29270   0.01267  Uiso   1.00
B6     B     0.31030   0.21540   0.36020   0.01267  Uiso   1.00
F21    F     0.36760   0.27240   0.38850   0.01267  Uiso   1.00
F22    F     0.35430   0.15290   0.32440   0.01267  Uiso   1.00
F23    F     0.25130   0.24760   0.31500   0.01267  Uiso   1.00
F24    F     0.26180   0.18770   0.41350   0.01267  Uiso   1.00
B7     B     0.20290   0.80180   0.27260   0.01267  Uiso   1.00
F25    F     0.14170   0.85160   0.30330   0.01267  Uiso   1.00
F26    F     0.28460   0.83680   0.26660   0.01267  Uiso   1.00
F27    F     0.21620   0.73690   0.30980   0.01267  Uiso   1.00
F28    F     0.17990   0.77000   0.20730   0.01267  Uiso   1.00
B8     B     0.81030   0.28460   0.13980   0.01267  Uiso   1.00
F29    F     0.86760   0.22760   0.11150   0.01267  Uiso   1.00
F30    F     0.85430   0.34710   0.17560   0.01267  Uiso   1.00
F31    F     0.75130   0.25240   0.18500   0.01267  Uiso   1.00
F32    F     0.76180   0.31230   0.08650   0.01267  Uiso   1.00
