data_image0
_cell_length_a       10.011
_cell_length_b       19.369
_cell_length_c       6.414
_cell_angle_alpha    90
_cell_angle_beta     90
_cell_angle_gamma    90

_symmetry_space_group_name_H-M    "P 1"
_symmetry_int_tables_number       1

loop_
  _symmetry_equiv_pos_as_xyz
  'x, y, z'

loop_
  _atom_site_label
  _atom_site_occupancy
  _atom_site_fract_x
  _atom_site_fract_y
  _atom_site_fract_z
  _atom_site_thermal_displace_type
  _atom_site_B_iso_or_equiv
  _atom_site_type_symbol
  N1       1.0000 0.26750  0.18646  0.68950  Biso   1.000  N
  C1       1.0000 0.32630  0.11640  0.68700  Biso   1.000  C
  H1       1.0000 0.25580  0.08280  0.68850  Biso   1.000  H
  H2       1.0000 0.37970  0.10970  0.80960  Biso   1.000  H
  C2       1.0000 0.37820  0.23700  0.68700  Biso   1.000  C
  H3       1.0000 0.43230  0.23050  0.80900  Biso   1.000  H
  H4       1.0000 0.34270  0.28300  0.69070  Biso   1.000  H
  H5       1.0000 0.57170  0.15080  0.37880  Biso   1.000  H
  N2       1.0000 0.73250  0.81354  0.68950  Biso   1.000  N
  C3       1.0000 0.67370  0.88360  0.68700  Biso   1.000  C
  H6       1.0000 0.74420  0.91720  0.68850  Biso   1.000  H
  H7       1.0000 0.62030  0.89030  0.80960  Biso   1.000  H
  C4       1.0000 0.62180  0.76300  0.68700  Biso   1.000  C
  H8       1.0000 0.56770  0.76950  0.80900  Biso   1.000  H
  H9       1.0000 0.65730  0.71700  0.69070  Biso   1.000  H
  H10      1.0000 0.42830  0.84920  0.37880  Biso   1.000  H
  N3       1.0000 0.23250  0.68646  0.81050  Biso   1.000  N
  C5       1.0000 0.17370  0.61640  0.81300  Biso   1.000  C
  H11      1.0000 0.24420  0.58280  0.81150  Biso   1.000  H
  H12      1.0000 0.12030  0.60970  0.69040  Biso   1.000  H
  C6       1.0000 0.12180  0.73700  0.81300  Biso   1.000  C
  H13      1.0000 0.06770  0.73050  0.69100  Biso   1.000  H
  H14      1.0000 0.15730  0.78300  0.80930  Biso   1.000  H
  H15      1.0000 0.92830  0.65080  0.12120  Biso   1.000  H
  N4       1.0000 0.76750  0.31354  0.81050  Biso   1.000  N
  C7       1.0000 0.82630  0.38360  0.81300  Biso   1.000  C
  H16      1.0000 0.75580  0.41720  0.81150  Biso   1.000  H
  H17      1.0000 0.87970  0.39030  0.69040  Biso   1.000  H
  C8       1.0000 0.87820  0.26300  0.81300  Biso   1.000  C
  H18      1.0000 0.93230  0.26950  0.69100  Biso   1.000  H
  H19      1.0000 0.84270  0.21700  0.80930  Biso   1.000  H
  H20      1.0000 0.07170  0.34920  0.12120  Biso   1.000  H
  N5       1.0000 0.73250  0.81354  0.31050  Biso   1.000  N
  C9       1.0000 0.67370  0.88360  0.31300  Biso   1.000  C
  H21      1.0000 0.74420  0.91720  0.31150  Biso   1.000  H
  H22      1.0000 0.62030  0.89030  0.19040  Biso   1.000  H
  C10      1.0000 0.62180  0.76300  0.31300  Biso   1.000  C
  H23      1.0000 0.56770  0.76950  0.19100  Biso   1.000  H
  H24      1.0000 0.65730  0.71700  0.30930  Biso   1.000  H
  H25      1.0000 0.42830  0.84920  0.62120  Biso   1.000  H
  N6       1.0000 0.26750  0.18646  0.31050  Biso   1.000  N
  C11      1.0000 0.32630  0.11640  0.31300  Biso   1.000  C
  H26      1.0000 0.25580  0.08280  0.31150  Biso   1.000  H
  H27      1.0000 0.37970  0.10970  0.19040  Biso   1.000  H
  C12      1.0000 0.37820  0.23700  0.31300  Biso   1.000  C
  H28      1.0000 0.43230  0.23050  0.19100  Biso   1.000  H
  H29      1.0000 0.34270  0.28300  0.30930  Biso   1.000  H
  H30      1.0000 0.57170  0.15080  0.62120  Biso   1.000  H
  N7       1.0000 0.76750  0.31354  0.18950  Biso   1.000  N
  C13      1.0000 0.82630  0.38360  0.18700  Biso   1.000  C
  H31      1.0000 0.75580  0.41720  0.18850  Biso   1.000  H
  H32      1.0000 0.87970  0.39030  0.30960  Biso   1.000  H
  C14      1.0000 0.87820  0.26300  0.18700  Biso   1.000  C
  H33      1.0000 0.93230  0.26950  0.30900  Biso   1.000  H
  H34      1.0000 0.84270  0.21700  0.19070  Biso   1.000  H
  H35      1.0000 0.07170  0.34920  0.87880  Biso   1.000  H
  N8       1.0000 0.23250  0.68646  0.18950  Biso   1.000  N
  C15      1.0000 0.17370  0.61640  0.18700  Biso   1.000  C
  H36      1.0000 0.24420  0.58280  0.18850  Biso   1.000  H
  H37      1.0000 0.12030  0.60970  0.30960  Biso   1.000  H
  C16      1.0000 0.12180  0.73700  0.18700  Biso   1.000  C
  H38      1.0000 0.06770  0.73050  0.30900  Biso   1.000  H
  H39      1.0000 0.15730  0.78300  0.19070  Biso   1.000  H
  H40      1.0000 0.92830  0.65080  0.87880  Biso   1.000  H
  Ag1      1.0000 0.14116  0.19616  0.00000  Biso   1.000  Ag
  Ag2      1.0000 0.85884  0.80384  0.00000  Biso   1.000  Ag
  Ag3      1.0000 0.35884  0.69616  0.50000  Biso   1.000  Ag
  Ag4      1.0000 0.64116  0.30384  0.50000  Biso   1.000  Ag
  Ag5      1.0000 0.50000  0.00000  0.50000  Biso   1.000  Ag
  Ag6      1.0000 0.00000  0.50000  0.00000  Biso   1.000  Ag
  N9       1.0000 0.40900  0.10610  0.50000  Biso   1.000  N
  N10      1.0000 0.46200  0.22850  0.50000  Biso   1.000  N
  C17      1.0000 0.18730  0.19560  0.50000  Biso   1.000  C
  H41      1.0000 0.11890  0.16090  0.50000  Biso   1.000  H
  H42      1.0000 0.14680  0.24060  0.50000  Biso   1.000  H
  C18      1.0000 0.51690  0.15730  0.50000  Biso   1.000  C
  N11      1.0000 0.59100  0.89390  0.50000  Biso   1.000  N
  N12      1.0000 0.53800  0.77150  0.50000  Biso   1.000  N
  C19      1.0000 0.81270  0.80440  0.50000  Biso   1.000  C
  H43      1.0000 0.88110  0.83910  0.50000  Biso   1.000  H
  H44      1.0000 0.85320  0.75940  0.50000  Biso   1.000  H
  C20      1.0000 0.48310  0.84270  0.50000  Biso   1.000  C
  N13      1.0000 0.09100  0.60610  0.00000  Biso   1.000  N
  N14      1.0000 0.03800  0.72850  0.00000  Biso   1.000  N
  C21      1.0000 0.31270  0.69560  0.00000  Biso   1.000  C
  H45      1.0000 0.38110  0.66090  0.00000  Biso   1.000  H
  H46      1.0000 0.35320  0.74060  0.00000  Biso   1.000  H
  C22      1.0000 0.98310  0.65730  0.00000  Biso   1.000  C
  N15      1.0000 0.90900  0.39390  0.00000  Biso   1.000  N
  N16      1.0000 0.96200  0.27150  0.00000  Biso   1.000  N
  C23      1.0000 0.68730  0.30440  0.00000  Biso   1.000  C
  H47      1.0000 0.61890  0.33910  0.00000  Biso   1.000  H
  H48      1.0000 0.64680  0.25940  0.00000  Biso   1.000  H
  C24      1.0000 0.01690  0.34270  0.00000  Biso   1.000  C
