data_XEBHOC_clean
_audit_creation_date              2014-07-02
_audit_creation_method            'Materials Studio'
_symmetry_space_group_name_H-M    'P1'
_symmetry_Int_Tables_number       1
_symmetry_cell_setting            triclinic
loop_
_symmetry_equiv_pos_as_xyz
  x,y,z
_cell_length_a                    15.3760
_cell_length_b                    19.8482
_cell_length_c                    19.8482
_cell_angle_alpha                 73.3583
_cell_angle_beta                  67.2109
_cell_angle_gamma                 67.2109
loop_
_atom_site_label
_atom_site_type_symbol
_atom_site_fract_x
_atom_site_fract_y
_atom_site_fract_z
_atom_site_U_iso_or_equiv
_atom_site_adp_type
_atom_site_occupancy
Cu1    Cu    0.53100   0.53200   0.53200   0.01267  Uiso   1.00
Cu2    Cu    0.09500   0.96800   0.96800   0.01267  Uiso   1.00
Cu3    Cu    0.90500   0.03200   0.03200   0.01267  Uiso   1.00
Cu4    Cu    0.46900   0.46800   0.46800   0.01267  Uiso   1.00
H1     H     0.66640   0.49780   0.24480   0.01267  Uiso   1.00
H2     H     0.77590   0.52890   0.13210   0.01267  Uiso   1.00
H3     H     0.86520   0.62960   0.22940   0.01267  Uiso   1.00
H4     H     0.75330   0.59960   0.34220   0.01267  Uiso   1.00
H5     H     0.93000   0.62290   0.95910   0.01267  Uiso   1.00
H6     H     0.90900   0.00220   0.25520   0.01267  Uiso   1.00
H7     H     0.93690   0.97110   0.36790   0.01267  Uiso   1.00
H8     H     0.22420   0.87040   0.27060   0.01267  Uiso   1.00
H9     H     0.19510   0.90040   0.15780   0.01267  Uiso   1.00
H10    H     0.01200   0.87710   0.54090   0.01267  Uiso   1.00
H11    H     0.09100   0.74480   0.99780   0.01267  Uiso   1.00
H12    H     0.06310   0.63210   0.02890   0.01267  Uiso   1.00
H13    H     0.77580   0.72940   0.12960   0.01267  Uiso   1.00
H14    H     0.80490   0.84220   0.09960   0.01267  Uiso   1.00
H15    H     0.98800   0.45910   0.12290   0.01267  Uiso   1.00
H16    H     0.33360   0.75520   0.50220   0.01267  Uiso   1.00
H17    H     0.22410   0.86790   0.47110   0.01267  Uiso   1.00
H18    H     0.13480   0.77060   0.37040   0.01267  Uiso   1.00
H19    H     0.24670   0.65780   0.40040   0.01267  Uiso   1.00
H20    H     0.07000   0.04090   0.37710   0.01267  Uiso   1.00
H21    H     0.33360   0.50220   0.75520   0.01267  Uiso   1.00
H22    H     0.22410   0.47110   0.86790   0.01267  Uiso   1.00
H23    H     0.13480   0.37040   0.77060   0.01267  Uiso   1.00
H24    H     0.24670   0.40040   0.65780   0.01267  Uiso   1.00
H25    H     0.07000   0.37710   0.04090   0.01267  Uiso   1.00
H26    H     0.09100   0.99780   0.74480   0.01267  Uiso   1.00
H27    H     0.06310   0.02890   0.63210   0.01267  Uiso   1.00
H28    H     0.77580   0.12960   0.72940   0.01267  Uiso   1.00
H29    H     0.80490   0.09960   0.84220   0.01267  Uiso   1.00
H30    H     0.98800   0.12290   0.45910   0.01267  Uiso   1.00
H31    H     0.90900   0.25520   0.00220   0.01267  Uiso   1.00
H32    H     0.93690   0.36790   0.97110   0.01267  Uiso   1.00
H33    H     0.22420   0.27060   0.87040   0.01267  Uiso   1.00
H34    H     0.19510   0.15780   0.90040   0.01267  Uiso   1.00
H35    H     0.01200   0.54090   0.87710   0.01267  Uiso   1.00
H36    H     0.66640   0.24480   0.49780   0.01267  Uiso   1.00
H37    H     0.77590   0.13210   0.52890   0.01267  Uiso   1.00
H38    H     0.86520   0.22940   0.62960   0.01267  Uiso   1.00
H39    H     0.75330   0.34220   0.59960   0.01267  Uiso   1.00
H40    H     0.93000   0.95910   0.62290   0.01267  Uiso   1.00
C1     C     0.62491   0.52837   0.37737   0.01267  Uiso   1.00
C2     C     0.69709   0.54625   0.30479   0.01267  Uiso   1.00
C3     C     0.70569   0.52490   0.24192   0.01267  Uiso   1.00
C4     C     0.77193   0.54303   0.17431   0.01267  Uiso   1.00
C5     C     0.83211   0.58192   0.16954   0.01267  Uiso   1.00
C6     C     0.82493   0.60322   0.23232   0.01267  Uiso   1.00
C7     C     0.75767   0.58530   0.30000   0.01267  Uiso   1.00
C8     C     0.95822   0.57319   0.97597   0.01267  Uiso   1.00
C9     C     0.03065   0.97163   0.12263   0.01267  Uiso   1.00
C10    C     0.04813   0.95375   0.19521   0.01267  Uiso   1.00
C11    C     0.97251   0.97510   0.25808   0.01267  Uiso   1.00
C12    C     0.98927   0.95697   0.32569   0.01267  Uiso   1.00
C13    C     0.08357   0.91808   0.33046   0.01267  Uiso   1.00
C14    C     0.16047   0.89678   0.26768   0.01267  Uiso   1.00
C15    C     0.14297   0.91470   0.20000   0.01267  Uiso   1.00
C16    C     0.00738   0.92681   0.52403   0.01267  Uiso   1.00
C17    C     0.96935   0.87737   0.02837   0.01267  Uiso   1.00
C18    C     0.95187   0.80479   0.04625   0.01267  Uiso   1.00
C19    C     0.02749   0.74192   0.02490   0.01267  Uiso   1.00
C20    C     0.01073   0.67431   0.04303   0.01267  Uiso   1.00
C21    C     0.91643   0.66954   0.08192   0.01267  Uiso   1.00
C22    C     0.83953   0.73232   0.10322   0.01267  Uiso   1.00
C23    C     0.85703   0.80000   0.08530   0.01267  Uiso   1.00
C24    C     0.99262   0.47597   0.07319   0.01267  Uiso   1.00
C25    C     0.37509   0.62263   0.47163   0.01267  Uiso   1.00
C26    C     0.30291   0.69521   0.45375   0.01267  Uiso   1.00
C27    C     0.29431   0.75808   0.47510   0.01267  Uiso   1.00
C28    C     0.22807   0.82569   0.45697   0.01267  Uiso   1.00
C29    C     0.16789   0.83046   0.41808   0.01267  Uiso   1.00
C30    C     0.17507   0.76768   0.39678   0.01267  Uiso   1.00
C31    C     0.24233   0.70000   0.41470   0.01267  Uiso   1.00
C32    C     0.04178   0.02403   0.42681   0.01267  Uiso   1.00
C33    C     0.37509   0.47163   0.62263   0.01267  Uiso   1.00
C34    C     0.30291   0.45375   0.69521   0.01267  Uiso   1.00
C35    C     0.29431   0.47510   0.75808   0.01267  Uiso   1.00
C36    C     0.22807   0.45697   0.82569   0.01267  Uiso   1.00
C37    C     0.16789   0.41808   0.83046   0.01267  Uiso   1.00
C38    C     0.17507   0.39678   0.76768   0.01267  Uiso   1.00
C39    C     0.24233   0.41470   0.70000   0.01267  Uiso   1.00
C40    C     0.04178   0.42681   0.02403   0.01267  Uiso   1.00
C41    C     0.96935   0.02837   0.87737   0.01267  Uiso   1.00
C42    C     0.95187   0.04625   0.80479   0.01267  Uiso   1.00
C43    C     0.02749   0.02490   0.74192   0.01267  Uiso   1.00
C44    C     0.01073   0.04303   0.67431   0.01267  Uiso   1.00
C45    C     0.91643   0.08192   0.66954   0.01267  Uiso   1.00
C46    C     0.83953   0.10322   0.73232   0.01267  Uiso   1.00
C47    C     0.85703   0.08530   0.80000   0.01267  Uiso   1.00
C48    C     0.99262   0.07319   0.47597   0.01267  Uiso   1.00
C49    C     0.03065   0.12263   0.97163   0.01267  Uiso   1.00
C50    C     0.04813   0.19521   0.95375   0.01267  Uiso   1.00
C51    C     0.97251   0.25808   0.97510   0.01267  Uiso   1.00
C52    C     0.98927   0.32569   0.95697   0.01267  Uiso   1.00
C53    C     0.08357   0.33046   0.91808   0.01267  Uiso   1.00
C54    C     0.16047   0.26768   0.89678   0.01267  Uiso   1.00
C55    C     0.14297   0.20000   0.91470   0.01267  Uiso   1.00
C56    C     0.00738   0.52403   0.92681   0.01267  Uiso   1.00
C57    C     0.62491   0.37737   0.52837   0.01267  Uiso   1.00
C58    C     0.69709   0.30479   0.54625   0.01267  Uiso   1.00
C59    C     0.70569   0.24192   0.52490   0.01267  Uiso   1.00
C60    C     0.77193   0.17431   0.54303   0.01267  Uiso   1.00
C61    C     0.83211   0.16954   0.58192   0.01267  Uiso   1.00
C62    C     0.82493   0.23232   0.60322   0.01267  Uiso   1.00
C63    C     0.75767   0.30000   0.58530   0.01267  Uiso   1.00
C64    C     0.95822   0.97597   0.57319   0.01267  Uiso   1.00
C65    C     0.94996   0.55004   0.05004   0.01267  Uiso   1.00
C66    C     0.05004   0.94996   0.44996   0.01267  Uiso   1.00
C67    C     0.05004   0.44996   0.94996   0.01267  Uiso   1.00
C68    C     0.94996   0.05004   0.55004   0.01267  Uiso   1.00
N1     N     0.89918   0.60082   0.10082   0.01267  Uiso   1.00
N2     N     0.10082   0.89918   0.39918   0.01267  Uiso   1.00
N3     N     0.10082   0.39918   0.89918   0.01267  Uiso   1.00
N4     N     0.89918   0.10082   0.60082   0.01267  Uiso   1.00
O1     O     0.62211   0.54892   0.43230   0.01267  Uiso   1.00
O2     O     0.57052   0.49419   0.37817   0.01267  Uiso   1.00
O3     O     0.10333   0.95108   0.06770   0.01267  Uiso   1.00
O4     O     0.94288   0.00581   0.12183   0.01267  Uiso   1.00
O5     O     0.89667   0.93230   0.04892   0.01267  Uiso   1.00
O6     O     0.05712   0.87817   0.99419   0.01267  Uiso   1.00
O7     O     0.37789   0.56770   0.45108   0.01267  Uiso   1.00
O8     O     0.42948   0.62183   0.50581   0.01267  Uiso   1.00
O9     O     0.37789   0.45108   0.56770   0.01267  Uiso   1.00
O10    O     0.42948   0.50581   0.62183   0.01267  Uiso   1.00
O11    O     0.89667   0.04892   0.93230   0.01267  Uiso   1.00
O12    O     0.05712   0.99419   0.87817   0.01267  Uiso   1.00
O13    O     0.10333   0.06770   0.95108   0.01267  Uiso   1.00
O14    O     0.94288   0.12183   0.00581   0.01267  Uiso   1.00
O15    O     0.62211   0.43230   0.54892   0.01267  Uiso   1.00
O16    O     0.57052   0.37817   0.49419   0.01267  Uiso   1.00
