data_XEDLUN01_clean
_audit_creation_date              2014-07-02
_audit_creation_method            'Materials Studio'
_symmetry_space_group_name_H-M    'P1'
_symmetry_Int_Tables_number       1
_symmetry_cell_setting            triclinic
loop_
_symmetry_equiv_pos_as_xyz
  x,y,z
_cell_length_a                    10.1370
_cell_length_b                    15.7450
_cell_length_c                    15.9880
_cell_angle_alpha                 90.0000
_cell_angle_beta                  90.0000
_cell_angle_gamma                 107.7600
loop_
_atom_site_label
_atom_site_type_symbol
_atom_site_fract_x
_atom_site_fract_y
_atom_site_fract_z
_atom_site_U_iso_or_equiv
_atom_site_adp_type
_atom_site_occupancy
Ti1    Ti    0.61780   0.59240   0.03808   0.01267  Uiso   1.00
Ti2    Ti    0.88220   0.90760   0.53808   0.01267  Uiso   1.00
Ti3    Ti    0.38220   0.40760   0.96192   0.01267  Uiso   1.00
Ti4    Ti    0.11780   0.09240   0.46192   0.01267  Uiso   1.00
H1     H     0.70300   0.35880   0.98650   0.01267  Uiso   1.00
H2     H     0.81020   0.27440   0.06550   0.01267  Uiso   1.00
H3     H     0.80740   0.15360   0.14160   0.01267  Uiso   1.00
H4     H     0.91430   0.06940   0.22090   0.01267  Uiso   1.00
H5     H     0.96760   0.24540   0.40920   0.01267  Uiso   1.00
H6     H     0.86080   0.32930   0.33060   0.01267  Uiso   1.00
H7     H     0.66280   0.34980   0.27820   0.01267  Uiso   1.00
H8     H     0.54940   0.43180   0.19840   0.01267  Uiso   1.00
H9     H     0.81700   0.78290   0.12080   0.01267  Uiso   1.00
H10    H     0.97980   0.92110   0.12020   0.01267  Uiso   1.00
H11    H     0.85140   0.96680   0.89360   0.01267  Uiso   1.00
H12    H     0.69920   0.82910   0.88900   0.01267  Uiso   1.00
H13    H     0.79700   0.14120   0.48650   0.01267  Uiso   1.00
H14    H     0.68980   0.22560   0.56550   0.01267  Uiso   1.00
H15    H     0.69260   0.34640   0.64160   0.01267  Uiso   1.00
H16    H     0.58570   0.43060   0.72090   0.01267  Uiso   1.00
H17    H     0.53240   0.25460   0.90920   0.01267  Uiso   1.00
H18    H     0.63920   0.17070   0.83060   0.01267  Uiso   1.00
H19    H     0.83720   0.15020   0.77820   0.01267  Uiso   1.00
H20    H     0.95060   0.06820   0.69840   0.01267  Uiso   1.00
H21    H     0.68300   0.71710   0.62080   0.01267  Uiso   1.00
H22    H     0.52020   0.57890   0.62020   0.01267  Uiso   1.00
H23    H     0.64860   0.53320   0.39360   0.01267  Uiso   1.00
H24    H     0.80080   0.67090   0.38900   0.01267  Uiso   1.00
H25    H     0.29700   0.64120   0.01350   0.01267  Uiso   1.00
H26    H     0.18980   0.72560   0.93450   0.01267  Uiso   1.00
H27    H     0.19260   0.84640   0.85840   0.01267  Uiso   1.00
H28    H     0.08570   0.93060   0.77910   0.01267  Uiso   1.00
H29    H     0.03240   0.75460   0.59080   0.01267  Uiso   1.00
H30    H     0.13920   0.67070   0.66940   0.01267  Uiso   1.00
H31    H     0.33720   0.65020   0.72180   0.01267  Uiso   1.00
H32    H     0.45060   0.56820   0.80160   0.01267  Uiso   1.00
H33    H     0.18300   0.21710   0.87920   0.01267  Uiso   1.00
H34    H     0.02020   0.07890   0.87980   0.01267  Uiso   1.00
H35    H     0.14860   0.03320   0.10640   0.01267  Uiso   1.00
H36    H     0.30080   0.17090   0.11100   0.01267  Uiso   1.00
H37    H     0.20300   0.85880   0.51350   0.01267  Uiso   1.00
H38    H     0.31020   0.77440   0.43450   0.01267  Uiso   1.00
H39    H     0.30740   0.65360   0.35840   0.01267  Uiso   1.00
H40    H     0.41430   0.56940   0.27910   0.01267  Uiso   1.00
H41    H     0.46760   0.74540   0.09080   0.01267  Uiso   1.00
H42    H     0.36080   0.82930   0.16940   0.01267  Uiso   1.00
H43    H     0.16280   0.84980   0.22180   0.01267  Uiso   1.00
H44    H     0.04940   0.93180   0.30160   0.01267  Uiso   1.00
H45    H     0.31700   0.28290   0.37920   0.01267  Uiso   1.00
H46    H     0.47980   0.42110   0.37980   0.01267  Uiso   1.00
H47    H     0.35140   0.46680   0.60640   0.01267  Uiso   1.00
H48    H     0.19920   0.32910   0.61100   0.01267  Uiso   1.00
C1     C     0.61780   0.40540   0.08620   0.01267  Uiso   1.00
C2     C     0.69450   0.35720   0.04560   0.01267  Uiso   1.00
C3     C     0.75800   0.30660   0.09300   0.01267  Uiso   1.00
C4     C     0.74640   0.30180   0.18020   0.01267  Uiso   1.00
C5     C     0.81610   0.24800   0.22860   0.01267  Uiso   1.00
C6     C     0.83740   0.17220   0.19680   0.01267  Uiso   1.00
C7     C     0.90300   0.12220   0.24400   0.01267  Uiso   1.00
C8     C     0.95140   0.14760   0.32260   0.01267  Uiso   1.00
C9     C     0.93430   0.22600   0.35480   0.01267  Uiso   1.00
C10    C     0.86950   0.27550   0.30820   0.01267  Uiso   1.00
C11    C     0.67040   0.35040   0.21890   0.01267  Uiso   1.00
C12    C     0.60420   0.40070   0.17100   0.01267  Uiso   1.00
C13    C     0.73630   0.78530   0.00400   0.01267  Uiso   1.00
C14    C     0.82580   0.81880   0.07220   0.01267  Uiso   1.00
C15    C     0.92520   0.90150   0.07170   0.01267  Uiso   1.00
C16    C     0.94720   0.95700   0.00120   0.01267  Uiso   1.00
C17    C     0.85110   0.92740   0.93860   0.01267  Uiso   1.00
C18    C     0.75580   0.84600   0.93700   0.01267  Uiso   1.00
C19    C     0.88220   0.09460   0.58620   0.01267  Uiso   1.00
C20    C     0.80550   0.14280   0.54560   0.01267  Uiso   1.00
C21    C     0.74200   0.19340   0.59300   0.01267  Uiso   1.00
C22    C     0.75360   0.19820   0.68020   0.01267  Uiso   1.00
C23    C     0.68390   0.25200   0.72860   0.01267  Uiso   1.00
C24    C     0.66260   0.32780   0.69680   0.01267  Uiso   1.00
C25    C     0.59700   0.37780   0.74400   0.01267  Uiso   1.00
C26    C     0.54860   0.35240   0.82260   0.01267  Uiso   1.00
C27    C     0.56570   0.27400   0.85480   0.01267  Uiso   1.00
C28    C     0.63050   0.22450   0.80820   0.01267  Uiso   1.00
C29    C     0.82960   0.14960   0.71890   0.01267  Uiso   1.00
C30    C     0.89580   0.09930   0.67100   0.01267  Uiso   1.00
C31    C     0.76370   0.71470   0.50400   0.01267  Uiso   1.00
C32    C     0.67420   0.68120   0.57220   0.01267  Uiso   1.00
C33    C     0.57480   0.59850   0.57170   0.01267  Uiso   1.00
C34    C     0.55280   0.54300   0.50120   0.01267  Uiso   1.00
C35    C     0.64890   0.57260   0.43860   0.01267  Uiso   1.00
C36    C     0.74420   0.65400   0.43700   0.01267  Uiso   1.00
C37    C     0.38220   0.59460   0.91380   0.01267  Uiso   1.00
C38    C     0.30550   0.64280   0.95440   0.01267  Uiso   1.00
C39    C     0.24200   0.69340   0.90700   0.01267  Uiso   1.00
C40    C     0.25360   0.69820   0.81980   0.01267  Uiso   1.00
C41    C     0.18390   0.75200   0.77140   0.01267  Uiso   1.00
C42    C     0.16260   0.82780   0.80320   0.01267  Uiso   1.00
C43    C     0.09700   0.87780   0.75600   0.01267  Uiso   1.00
C44    C     0.04860   0.85240   0.67740   0.01267  Uiso   1.00
C45    C     0.06570   0.77400   0.64520   0.01267  Uiso   1.00
C46    C     0.13050   0.72450   0.69180   0.01267  Uiso   1.00
C47    C     0.32960   0.64960   0.78110   0.01267  Uiso   1.00
C48    C     0.39580   0.59930   0.82900   0.01267  Uiso   1.00
C49    C     0.26370   0.21470   0.99600   0.01267  Uiso   1.00
C50    C     0.17420   0.18120   0.92780   0.01267  Uiso   1.00
C51    C     0.07480   0.09850   0.92830   0.01267  Uiso   1.00
C52    C     0.05280   0.04300   0.99880   0.01267  Uiso   1.00
C53    C     0.14890   0.07260   0.06140   0.01267  Uiso   1.00
C54    C     0.24420   0.15400   0.06300   0.01267  Uiso   1.00
C55    C     0.11780   0.90540   0.41380   0.01267  Uiso   1.00
C56    C     0.19450   0.85720   0.45440   0.01267  Uiso   1.00
C57    C     0.25800   0.80660   0.40700   0.01267  Uiso   1.00
C58    C     0.24640   0.80180   0.31980   0.01267  Uiso   1.00
C59    C     0.31610   0.74800   0.27140   0.01267  Uiso   1.00
C60    C     0.33740   0.67220   0.30320   0.01267  Uiso   1.00
C61    C     0.40300   0.62220   0.25600   0.01267  Uiso   1.00
C62    C     0.45140   0.64760   0.17740   0.01267  Uiso   1.00
C63    C     0.43430   0.72600   0.14520   0.01267  Uiso   1.00
C64    C     0.36950   0.77550   0.19180   0.01267  Uiso   1.00
C65    C     0.17040   0.85040   0.28110   0.01267  Uiso   1.00
C66    C     0.10420   0.90070   0.32900   0.01267  Uiso   1.00
C67    C     0.23630   0.28530   0.49600   0.01267  Uiso   1.00
C68    C     0.32580   0.31880   0.42780   0.01267  Uiso   1.00
C69    C     0.42520   0.40150   0.42830   0.01267  Uiso   1.00
C70    C     0.44720   0.45700   0.49880   0.01267  Uiso   1.00
C71    C     0.35110   0.42740   0.56140   0.01267  Uiso   1.00
C72    C     0.25580   0.34600   0.56300   0.01267  Uiso   1.00
O1     O     0.55540   0.45540   0.03940   0.01267  Uiso   1.00
O2     O     0.00520   0.09390   0.36910   0.01267  Uiso   1.00
O3     O     0.64260   0.70710   0.00300   0.01267  Uiso   1.00
O4     O     0.94460   0.04460   0.53940   0.01267  Uiso   1.00
O5     O     0.49480   0.40610   0.86910   0.01267  Uiso   1.00
O6     O     0.85740   0.79290   0.50300   0.01267  Uiso   1.00
O7     O     0.44460   0.54460   0.96060   0.01267  Uiso   1.00
O8     O     0.99480   0.90610   0.63090   0.01267  Uiso   1.00
O9     O     0.35740   0.29290   0.99700   0.01267  Uiso   1.00
O10    O     0.05540   0.95540   0.46060   0.01267  Uiso   1.00
O11    O     0.50520   0.59390   0.13090   0.01267  Uiso   1.00
O12    O     0.14260   0.20710   0.49700   0.01267  Uiso   1.00
