data_XEDPON_clean
_audit_creation_date              2014-07-02
_audit_creation_method            'Materials Studio'
_symmetry_space_group_name_H-M    'P1'
_symmetry_Int_Tables_number       1
_symmetry_cell_setting            triclinic
loop_
_symmetry_equiv_pos_as_xyz
  x,y,z
_cell_length_a                    9.5700
_cell_length_b                    11.6489
_cell_length_c                    11.6489
_cell_angle_alpha                 80.2860
_cell_angle_beta                  65.7468
_cell_angle_gamma                 65.7469
loop_
_atom_site_label
_atom_site_type_symbol
_atom_site_fract_x
_atom_site_fract_y
_atom_site_fract_z
_atom_site_U_iso_or_equiv
_atom_site_adp_type
_atom_site_occupancy
Zn1    Zn    0.30292   0.47529   0.83255   0.01267  Uiso   1.00
Zn2    Zn    0.61076   0.52471   0.16745   0.01267  Uiso   1.00
Zn3    Zn    0.86453   0.83255   0.52471   0.01267  Uiso   1.00
Zn4    Zn    0.22179   0.16745   0.47529   0.01267  Uiso   1.00
H1     H     0.99760   0.43390   0.05050   0.01267  Uiso   1.00
H2     H     0.59190   0.82020   0.76920   0.01267  Uiso   1.00
H3     H     0.07810   0.66370   0.65930   0.01267  Uiso   1.00
H4     H     0.48200   0.56610   0.94950   0.01267  Uiso   1.00
H5     H     0.18130   0.17980   0.23080   0.01267  Uiso   1.00
H6     H     0.40110   0.33630   0.34070   0.01267  Uiso   1.00
H7     H     0.95190   0.05050   0.56610   0.01267  Uiso   1.00
H8     H     0.63890   0.76920   0.17980   0.01267  Uiso   1.00
H9     H     0.26260   0.65930   0.33630   0.01267  Uiso   1.00
H10    H     0.56850   0.94950   0.43390   0.01267  Uiso   1.00
H11    H     0.58790   0.23080   0.82020   0.01267  Uiso   1.00
H12    H     0.25820   0.34070   0.66370   0.01267  Uiso   1.00
C1     C     0.95810   0.49140   0.99440   0.01267  Uiso   1.00
C2     C     0.79010   0.62670   0.91550   0.01267  Uiso   1.00
C3     C     0.68300   0.76340   0.78660   0.01267  Uiso   1.00
C4     C     0.97320   0.67270   0.71870   0.01267  Uiso   1.00
C5     C     0.95180   0.60730   0.83350   0.01267  Uiso   1.00
C6     C     0.44390   0.50860   0.00560   0.01267  Uiso   1.00
C7     C     0.33230   0.37330   0.08450   0.01267  Uiso   1.00
C8     C     0.23300   0.23660   0.21340   0.01267  Uiso   1.00
C9     C     0.36460   0.32730   0.28130   0.01267  Uiso   1.00
C10    C     0.39260   0.39270   0.16650   0.01267  Uiso   1.00
C11    C     0.04750   0.99440   0.50860   0.01267  Uiso   1.00
C12    C     0.29440   0.91550   0.37330   0.01267  Uiso   1.00
C13    C     0.53040   0.78660   0.23660   0.01267  Uiso   1.00
C14    C     0.30810   0.71870   0.32730   0.01267  Uiso   1.00
C15    C     0.21470   0.83350   0.39270   0.01267  Uiso   1.00
C16    C     0.55050   0.00560   0.49140   0.01267  Uiso   1.00
C17    C     0.58320   0.08450   0.62670   0.01267  Uiso   1.00
C18    C     0.55360   0.21340   0.76340   0.01267  Uiso   1.00
C19    C     0.35410   0.28130   0.67270   0.01267  Uiso   1.00
C20    C     0.44090   0.16650   0.60730   0.01267  Uiso   1.00
N1     N     0.05880   0.52230   0.88430   0.01267  Uiso   1.00
N2     N     0.79760   0.54990   0.01610   0.01267  Uiso   1.00
N3     N     0.65410   0.70300   0.89540   0.01267  Uiso   1.00
N4     N     0.83580   0.74880   0.69840   0.01267  Uiso   1.00
N5     N     0.46540   0.47770   0.11570   0.01267  Uiso   1.00
N6     N     0.36360   0.45010   0.98390   0.01267  Uiso   1.00
N7     N     0.25250   0.29700   0.10460   0.01267  Uiso   1.00
N8     N     0.28300   0.25120   0.30160   0.01267  Uiso   1.00
N9     N     0.05690   0.88430   0.47770   0.01267  Uiso   1.00
N10    N     0.18630   0.01610   0.45010   0.01267  Uiso   1.00
N11    N     0.45050   0.89540   0.29700   0.01267  Uiso   1.00
N12    N     0.46580   0.69840   0.25120   0.01267  Uiso   1.00
N13    N     0.41890   0.11570   0.52230   0.01267  Uiso   1.00
N14    N     0.65250   0.98390   0.54990   0.01267  Uiso   1.00
N15    N     0.64290   0.10460   0.70300   0.01267  Uiso   1.00
N16    N     0.41540   0.30160   0.74880   0.01267  Uiso   1.00
