data_image0
_cell_length_a       17.327
_cell_length_b       17.327
_cell_length_c       7.7288
_cell_angle_alpha    90
_cell_angle_beta     90
_cell_angle_gamma    90

_symmetry_space_group_name_H-M    "P 1"
_symmetry_int_tables_number       1

loop_
  _symmetry_equiv_pos_as_xyz
  'x, y, z'

loop_
  _atom_site_label
  _atom_site_occupancy
  _atom_site_fract_x
  _atom_site_fract_y
  _atom_site_fract_z
  _atom_site_thermal_displace_type
  _atom_site_B_iso_or_equiv
  _atom_site_type_symbol
  N1       1.0000 0.00159  0.34230  0.96240  Biso   1.000  N
  C1       1.0000 0.99460  0.45290  0.70290  Biso   1.000  C
  N2       1.0000 0.98823  0.51111  0.57260  Biso   1.000  N
  C2       1.0000 0.94250  0.45400  0.83720  Biso   1.000  C
  H1       1.0000 0.90410  0.49300  0.84380  Biso   1.000  H
  C3       1.0000 0.94710  0.39730  0.96190  Biso   1.000  C
  H2       1.0000 0.90980  0.39710  0.05200  Biso   1.000  H
  C4       1.0000 0.05350  0.34410  0.83490  Biso   1.000  C
  H3       1.0000 0.09320  0.30640  0.83520  Biso   1.000  H
  C5       1.0000 0.05280  0.39760  0.70310  Biso   1.000  C
  H4       1.0000 0.09100  0.39670  0.61490  Biso   1.000  H
  N3       1.0000 0.50159  0.84230  0.46240  Biso   1.000  N
  C6       1.0000 0.49460  0.95290  0.20290  Biso   1.000  C
  N4       1.0000 0.48823  0.01111  0.07260  Biso   1.000  N
  C7       1.0000 0.44250  0.95400  0.33720  Biso   1.000  C
  H5       1.0000 0.40410  0.99300  0.34380  Biso   1.000  H
  C8       1.0000 0.44710  0.89730  0.46190  Biso   1.000  C
  H6       1.0000 0.40980  0.89710  0.55200  Biso   1.000  H
  C9       1.0000 0.55350  0.84410  0.33490  Biso   1.000  C
  H7       1.0000 0.59320  0.80640  0.33520  Biso   1.000  H
  C10      1.0000 0.55280  0.89760  0.20310  Biso   1.000  C
  H8       1.0000 0.59100  0.89670  0.11490  Biso   1.000  H
  N5       1.0000 0.49841  0.65770  0.46240  Biso   1.000  N
  C11      1.0000 0.50540  0.54710  0.20290  Biso   1.000  C
  N6       1.0000 0.51177  0.48889  0.07260  Biso   1.000  N
  C12      1.0000 0.55750  0.54600  0.33720  Biso   1.000  C
  H9       1.0000 0.59590  0.50700  0.34380  Biso   1.000  H
  C13      1.0000 0.55290  0.60270  0.46190  Biso   1.000  C
  H10      1.0000 0.59020  0.60290  0.55200  Biso   1.000  H
  C14      1.0000 0.44650  0.65590  0.33490  Biso   1.000  C
  H11      1.0000 0.40680  0.69360  0.33520  Biso   1.000  H
  C15      1.0000 0.44720  0.60240  0.20310  Biso   1.000  C
  H12      1.0000 0.40900  0.60330  0.11490  Biso   1.000  H
  N7       1.0000 0.99841  0.15770  0.96240  Biso   1.000  N
  C16      1.0000 0.00540  0.04710  0.70290  Biso   1.000  C
  N8       1.0000 0.01177  0.98889  0.57260  Biso   1.000  N
  C17      1.0000 0.05750  0.04600  0.83720  Biso   1.000  C
  H13      1.0000 0.09590  0.00700  0.84380  Biso   1.000  H
  C18      1.0000 0.05290  0.10270  0.96190  Biso   1.000  C
  H14      1.0000 0.09020  0.10290  0.05200  Biso   1.000  H
  C19      1.0000 0.94650  0.15590  0.83490  Biso   1.000  C
  H15      1.0000 0.90680  0.19360  0.83520  Biso   1.000  H
  C20      1.0000 0.94720  0.10240  0.70310  Biso   1.000  C
  H16      1.0000 0.90900  0.10330  0.61490  Biso   1.000  H
  N9       1.0000 0.40770  0.25159  0.21240  Biso   1.000  N
  C21      1.0000 0.29710  0.24460  0.95290  Biso   1.000  C
  N10      1.0000 0.23889  0.23823  0.82260  Biso   1.000  N
  C22      1.0000 0.29600  0.19250  0.08720  Biso   1.000  C
  H17      1.0000 0.25700  0.15410  0.09380  Biso   1.000  H
  C23      1.0000 0.35270  0.19710  0.21190  Biso   1.000  C
  H18      1.0000 0.35290  0.15980  0.30200  Biso   1.000  H
  C24      1.0000 0.40590  0.30350  0.08490  Biso   1.000  C
  H19      1.0000 0.44360  0.34320  0.08520  Biso   1.000  H
  C25      1.0000 0.35240  0.30280  0.95310  Biso   1.000  C
  H20      1.0000 0.35330  0.34100  0.86490  Biso   1.000  H
  N11      1.0000 0.90770  0.75159  0.71240  Biso   1.000  N
  C26      1.0000 0.79710  0.74460  0.45290  Biso   1.000  C
  N12      1.0000 0.73889  0.73823  0.32260  Biso   1.000  N
  C27      1.0000 0.79600  0.69250  0.58720  Biso   1.000  C
  H21      1.0000 0.75700  0.65410  0.59380  Biso   1.000  H
  C28      1.0000 0.85270  0.69710  0.71190  Biso   1.000  C
  H22      1.0000 0.85290  0.65980  0.80200  Biso   1.000  H
  C29      1.0000 0.90590  0.80350  0.58490  Biso   1.000  C
  H23      1.0000 0.94360  0.84320  0.58520  Biso   1.000  H
  C30      1.0000 0.85240  0.80280  0.45310  Biso   1.000  C
  H24      1.0000 0.85330  0.84100  0.36490  Biso   1.000  H
  N13      1.0000 0.09230  0.74841  0.71240  Biso   1.000  N
  C31      1.0000 0.20290  0.75540  0.45290  Biso   1.000  C
  N14      1.0000 0.26111  0.76177  0.32260  Biso   1.000  N
  C32      1.0000 0.20400  0.80750  0.58720  Biso   1.000  C
  H25      1.0000 0.24300  0.84590  0.59380  Biso   1.000  H
  C33      1.0000 0.14730  0.80290  0.71190  Biso   1.000  C
  H26      1.0000 0.14710  0.84020  0.80200  Biso   1.000  H
  C34      1.0000 0.09410  0.69650  0.58490  Biso   1.000  C
  H27      1.0000 0.05640  0.65680  0.58520  Biso   1.000  H
  C35      1.0000 0.14760  0.69720  0.45310  Biso   1.000  C
  H28      1.0000 0.14670  0.65900  0.36490  Biso   1.000  H
  N15      1.0000 0.59230  0.24841  0.21240  Biso   1.000  N
  C36      1.0000 0.70290  0.25540  0.95290  Biso   1.000  C
  N16      1.0000 0.76111  0.26177  0.82260  Biso   1.000  N
  C37      1.0000 0.70400  0.30750  0.08720  Biso   1.000  C
  H29      1.0000 0.74300  0.34590  0.09380  Biso   1.000  H
  C38      1.0000 0.64730  0.30290  0.21190  Biso   1.000  C
  H30      1.0000 0.64710  0.34020  0.30200  Biso   1.000  H
  C39      1.0000 0.59410  0.19650  0.08490  Biso   1.000  C
  H31      1.0000 0.55640  0.15680  0.08520  Biso   1.000  H
  C40      1.0000 0.64760  0.19720  0.95310  Biso   1.000  C
  H32      1.0000 0.64670  0.15900  0.86490  Biso   1.000  H
  N17      1.0000 0.99841  0.65770  0.03760  Biso   1.000  N
  C41      1.0000 0.00540  0.54710  0.29710  Biso   1.000  C
  N18      1.0000 0.01177  0.48889  0.42740  Biso   1.000  N
  C42      1.0000 0.05750  0.54600  0.16280  Biso   1.000  C
  H33      1.0000 0.09590  0.50700  0.15620  Biso   1.000  H
  C43      1.0000 0.05290  0.60270  0.03810  Biso   1.000  C
  H34      1.0000 0.09020  0.60290  0.94800  Biso   1.000  H
  C44      1.0000 0.94650  0.65590  0.16510  Biso   1.000  C
  H35      1.0000 0.90680  0.69360  0.16480  Biso   1.000  H
  C45      1.0000 0.94720  0.60240  0.29690  Biso   1.000  C
  H36      1.0000 0.90900  0.60330  0.38510  Biso   1.000  H
  N19      1.0000 0.49841  0.15770  0.53760  Biso   1.000  N
  C46      1.0000 0.50540  0.04710  0.79710  Biso   1.000  C
  N20      1.0000 0.51177  0.98889  0.92740  Biso   1.000  N
  C47      1.0000 0.55750  0.04600  0.66280  Biso   1.000  C
  H37      1.0000 0.59590  0.00700  0.65620  Biso   1.000  H
  C48      1.0000 0.55290  0.10270  0.53810  Biso   1.000  C
  H38      1.0000 0.59020  0.10290  0.44800  Biso   1.000  H
  C49      1.0000 0.44650  0.15590  0.66510  Biso   1.000  C
  H39      1.0000 0.40680  0.19360  0.66480  Biso   1.000  H
  C50      1.0000 0.44720  0.10240  0.79690  Biso   1.000  C
  H40      1.0000 0.40900  0.10330  0.88510  Biso   1.000  H
  N21      1.0000 0.50159  0.34230  0.53760  Biso   1.000  N
  C51      1.0000 0.49460  0.45290  0.79710  Biso   1.000  C
  N22      1.0000 0.48823  0.51111  0.92740  Biso   1.000  N
  C52      1.0000 0.44250  0.45400  0.66280  Biso   1.000  C
  H41      1.0000 0.40410  0.49300  0.65620  Biso   1.000  H
  C53      1.0000 0.44710  0.39730  0.53810  Biso   1.000  C
  H42      1.0000 0.40980  0.39710  0.44800  Biso   1.000  H
  C54      1.0000 0.55350  0.34410  0.66510  Biso   1.000  C
  H43      1.0000 0.59320  0.30640  0.66480  Biso   1.000  H
  C55      1.0000 0.55280  0.39760  0.79690  Biso   1.000  C
  H44      1.0000 0.59100  0.39670  0.88510  Biso   1.000  H
  N23      1.0000 0.00159  0.84230  0.03760  Biso   1.000  N
  C56      1.0000 0.99460  0.95290  0.29710  Biso   1.000  C
  N24      1.0000 0.98823  0.01111  0.42740  Biso   1.000  N
  C57      1.0000 0.94250  0.95400  0.16280  Biso   1.000  C
  H45      1.0000 0.90410  0.99300  0.15620  Biso   1.000  H
  C58      1.0000 0.94710  0.89730  0.03810  Biso   1.000  C
  H46      1.0000 0.90980  0.89710  0.94800  Biso   1.000  H
  C59      1.0000 0.05350  0.84410  0.16510  Biso   1.000  C
  H47      1.0000 0.09320  0.80640  0.16480  Biso   1.000  H
  C60      1.0000 0.05280  0.89760  0.29690  Biso   1.000  C
  H48      1.0000 0.09100  0.89670  0.38510  Biso   1.000  H
  N25      1.0000 0.59230  0.74841  0.78760  Biso   1.000  N
  C61      1.0000 0.70290  0.75540  0.04710  Biso   1.000  C
  N26      1.0000 0.76111  0.76177  0.17740  Biso   1.000  N
  C62      1.0000 0.70400  0.80750  0.91280  Biso   1.000  C
  H49      1.0000 0.74300  0.84590  0.90620  Biso   1.000  H
  C63      1.0000 0.64730  0.80290  0.78810  Biso   1.000  C
  H50      1.0000 0.64710  0.84020  0.69800  Biso   1.000  H
  C64      1.0000 0.59410  0.69650  0.91510  Biso   1.000  C
  H51      1.0000 0.55640  0.65680  0.91480  Biso   1.000  H
  C65      1.0000 0.64760  0.69720  0.04690  Biso   1.000  C
  H52      1.0000 0.64670  0.65900  0.13510  Biso   1.000  H
  N27      1.0000 0.09230  0.24841  0.28760  Biso   1.000  N
  C66      1.0000 0.20290  0.25540  0.54710  Biso   1.000  C
  N28      1.0000 0.26111  0.26177  0.67740  Biso   1.000  N
  C67      1.0000 0.20400  0.30750  0.41280  Biso   1.000  C
  H53      1.0000 0.24300  0.34590  0.40620  Biso   1.000  H
  C68      1.0000 0.14730  0.30290  0.28810  Biso   1.000  C
  H54      1.0000 0.14710  0.34020  0.19800  Biso   1.000  H
  C69      1.0000 0.09410  0.19650  0.41510  Biso   1.000  C
  H55      1.0000 0.05640  0.15680  0.41480  Biso   1.000  H
  C70      1.0000 0.14760  0.19720  0.54690  Biso   1.000  C
  H56      1.0000 0.14670  0.15900  0.63510  Biso   1.000  H
  N29      1.0000 0.90770  0.25159  0.28760  Biso   1.000  N
  C71      1.0000 0.79710  0.24460  0.54710  Biso   1.000  C
  N30      1.0000 0.73889  0.23823  0.67740  Biso   1.000  N
  C72      1.0000 0.79600  0.19250  0.41280  Biso   1.000  C
  H57      1.0000 0.75700  0.15410  0.40620  Biso   1.000  H
  C73      1.0000 0.85270  0.19710  0.28810  Biso   1.000  C
  H58      1.0000 0.85290  0.15980  0.19800  Biso   1.000  H
  C74      1.0000 0.90590  0.30350  0.41510  Biso   1.000  C
  H59      1.0000 0.94360  0.34320  0.41480  Biso   1.000  H
  C75      1.0000 0.85240  0.30280  0.54690  Biso   1.000  C
  H60      1.0000 0.85330  0.34100  0.63510  Biso   1.000  H
  N31      1.0000 0.40770  0.75159  0.78760  Biso   1.000  N
  C76      1.0000 0.29710  0.74460  0.04710  Biso   1.000  C
  N32      1.0000 0.23889  0.73823  0.17740  Biso   1.000  N
  C77      1.0000 0.29600  0.69250  0.91280  Biso   1.000  C
  H61      1.0000 0.25700  0.65410  0.90620  Biso   1.000  H
  C78      1.0000 0.35270  0.69710  0.78810  Biso   1.000  C
  H62      1.0000 0.35290  0.65980  0.69800  Biso   1.000  H
  C79      1.0000 0.40590  0.80350  0.91510  Biso   1.000  C
  H63      1.0000 0.44360  0.84320  0.91480  Biso   1.000  H
  C80      1.0000 0.35240  0.80280  0.04690  Biso   1.000  C
  H64      1.0000 0.35330  0.84100  0.13510  Biso   1.000  H
  Cu1      1.0000 0.00000  0.25000  0.12500  Biso   1.000  Cu
  Cu2      1.0000 0.50000  0.75000  0.62500  Biso   1.000  Cu
  Cu3      1.0000 0.50000  0.25000  0.37500  Biso   1.000  Cu
  Cu4      1.0000 0.00000  0.75000  0.87500  Biso   1.000  Cu
