data_image0
_cell_length_a       17.765
_cell_length_b       17.765
_cell_length_c       7.567
_cell_angle_alpha    90
_cell_angle_beta     90
_cell_angle_gamma    90

_symmetry_space_group_name_H-M    "P 1"
_symmetry_int_tables_number       1

loop_
  _symmetry_equiv_pos_as_xyz
  'x, y, z'

loop_
  _atom_site_label
  _atom_site_occupancy
  _atom_site_fract_x
  _atom_site_fract_y
  _atom_site_fract_z
  _atom_site_thermal_displace_type
  _atom_site_B_iso_or_equiv
  _atom_site_type_symbol
  N1       1.0000 0.50030  0.09220  0.58620  Biso   1.000  N
  C1       1.0000 0.55140  0.14680  0.58790  Biso   1.000  C
  H1       1.0000 0.58690  0.14700  0.67820  Biso   1.000  H
  C2       1.0000 0.55470  0.20370  0.46170  Biso   1.000  C
  H2       1.0000 0.58980  0.24240  0.47030  Biso   1.000  H
  C3       1.0000 0.50430  0.20090  0.32390  Biso   1.000  C
  C4       1.0000 0.45020  0.14550  0.32410  Biso   1.000  C
  H3       1.0000 0.41580  0.14240  0.23180  Biso   1.000  H
  C5       1.0000 0.44720  0.09470  0.46150  Biso   1.000  C
  H4       1.0000 0.40700  0.06130  0.46770  Biso   1.000  H
  N2       1.0000 0.51260  0.26080  0.19630  Biso   1.000  N
  N3       1.0000 0.49010  0.24000  0.04790  Biso   1.000  N
  C6       1.0000 0.54960  0.40800  0.79770  Biso   1.000  C
  H5       1.0000 0.58240  0.44830  0.81310  Biso   1.000  H
  C7       1.0000 0.55350  0.34930  0.91400  Biso   1.000  C
  H6       1.0000 0.59380  0.34460  0.99170  Biso   1.000  H
  C8       1.0000 0.49630  0.29790  0.91280  Biso   1.000  C
  C9       1.0000 0.44310  0.30100  0.78210  Biso   1.000  C
  H7       1.0000 0.40460  0.26560  0.77670  Biso   1.000  H
  C10      1.0000 0.44820  0.35740  0.65960  Biso   1.000  C
  H8       1.0000 0.41290  0.35910  0.56890  Biso   1.000  H
  N4       1.0000 0.50180  0.41030  0.66500  Biso   1.000  N
  N5       1.0000 0.00030  0.59220  0.08620  Biso   1.000  N
  C11      1.0000 0.05140  0.64680  0.08790  Biso   1.000  C
  H9       1.0000 0.08690  0.64700  0.17820  Biso   1.000  H
  C12      1.0000 0.05470  0.70370  0.96170  Biso   1.000  C
  H10      1.0000 0.08980  0.74240  0.97030  Biso   1.000  H
  C13      1.0000 0.00430  0.70090  0.82390  Biso   1.000  C
  C14      1.0000 0.95020  0.64550  0.82410  Biso   1.000  C
  H11      1.0000 0.91580  0.64240  0.73180  Biso   1.000  H
  C15      1.0000 0.94720  0.59470  0.96150  Biso   1.000  C
  H12      1.0000 0.90700  0.56130  0.96770  Biso   1.000  H
  N6       1.0000 0.01260  0.76080  0.69630  Biso   1.000  N
  N7       1.0000 0.99010  0.74000  0.54790  Biso   1.000  N
  C16      1.0000 0.04960  0.90800  0.29770  Biso   1.000  C
  H13      1.0000 0.08240  0.94830  0.31310  Biso   1.000  H
  C17      1.0000 0.05350  0.84930  0.41400  Biso   1.000  C
  H14      1.0000 0.09380  0.84460  0.49170  Biso   1.000  H
  C18      1.0000 0.99630  0.79790  0.41280  Biso   1.000  C
  C19      1.0000 0.94310  0.80100  0.28210  Biso   1.000  C
  H15      1.0000 0.90460  0.76560  0.27670  Biso   1.000  H
  C20      1.0000 0.94820  0.85740  0.15960  Biso   1.000  C
  H16      1.0000 0.91290  0.85910  0.06890  Biso   1.000  H
  N8       1.0000 0.00180  0.91030  0.16500  Biso   1.000  N
  N9       1.0000 0.49970  0.90780  0.58620  Biso   1.000  N
  C21      1.0000 0.44860  0.85320  0.58790  Biso   1.000  C
  H17      1.0000 0.41310  0.85300  0.67820  Biso   1.000  H
  C22      1.0000 0.44530  0.79630  0.46170  Biso   1.000  C
  H18      1.0000 0.41020  0.75760  0.47030  Biso   1.000  H
  C23      1.0000 0.49570  0.79910  0.32390  Biso   1.000  C
  C24      1.0000 0.54980  0.85450  0.32410  Biso   1.000  C
  H19      1.0000 0.58420  0.85760  0.23180  Biso   1.000  H
  C25      1.0000 0.55280  0.90530  0.46150  Biso   1.000  C
  H20      1.0000 0.59300  0.93870  0.46770  Biso   1.000  H
  N10      1.0000 0.48740  0.73920  0.19630  Biso   1.000  N
  N11      1.0000 0.50990  0.76000  0.04790  Biso   1.000  N
  C26      1.0000 0.45040  0.59200  0.79770  Biso   1.000  C
  H21      1.0000 0.41760  0.55170  0.81310  Biso   1.000  H
  C27      1.0000 0.44650  0.65070  0.91400  Biso   1.000  C
  H22      1.0000 0.40620  0.65540  0.99170  Biso   1.000  H
  C28      1.0000 0.50370  0.70210  0.91280  Biso   1.000  C
  C29      1.0000 0.55690  0.69900  0.78210  Biso   1.000  C
  H23      1.0000 0.59540  0.73440  0.77670  Biso   1.000  H
  C30      1.0000 0.55180  0.64260  0.65960  Biso   1.000  C
  H24      1.0000 0.58710  0.64090  0.56890  Biso   1.000  H
  N12      1.0000 0.49820  0.58970  0.66500  Biso   1.000  N
  N13      1.0000 0.99970  0.40780  0.08620  Biso   1.000  N
  C31      1.0000 0.94860  0.35320  0.08790  Biso   1.000  C
  H25      1.0000 0.91310  0.35300  0.17820  Biso   1.000  H
  C32      1.0000 0.94530  0.29630  0.96170  Biso   1.000  C
  H26      1.0000 0.91020  0.25760  0.97030  Biso   1.000  H
  C33      1.0000 0.99570  0.29910  0.82390  Biso   1.000  C
  C34      1.0000 0.04980  0.35450  0.82410  Biso   1.000  C
  H27      1.0000 0.08420  0.35760  0.73180  Biso   1.000  H
  C35      1.0000 0.05280  0.40530  0.96150  Biso   1.000  C
  H28      1.0000 0.09300  0.43870  0.96770  Biso   1.000  H
  N14      1.0000 0.98740  0.23920  0.69630  Biso   1.000  N
  N15      1.0000 0.00990  0.26000  0.54790  Biso   1.000  N
  C36      1.0000 0.95040  0.09200  0.29770  Biso   1.000  C
  H29      1.0000 0.91760  0.05170  0.31310  Biso   1.000  H
  C37      1.0000 0.94650  0.15070  0.41400  Biso   1.000  C
  H30      1.0000 0.90620  0.15540  0.49170  Biso   1.000  H
  C38      1.0000 0.00370  0.20210  0.41280  Biso   1.000  C
  C39      1.0000 0.05690  0.19900  0.28210  Biso   1.000  C
  H31      1.0000 0.09540  0.23440  0.27670  Biso   1.000  H
  C40      1.0000 0.05180  0.14260  0.15960  Biso   1.000  C
  H32      1.0000 0.08710  0.14090  0.06890  Biso   1.000  H
  N16      1.0000 0.99820  0.08970  0.16500  Biso   1.000  N
  N17      1.0000 0.09220  0.49970  0.41380  Biso   1.000  N
  C41      1.0000 0.14680  0.44860  0.41210  Biso   1.000  C
  H33      1.0000 0.14700  0.41310  0.32180  Biso   1.000  H
  C42      1.0000 0.20370  0.44530  0.53830  Biso   1.000  C
  H34      1.0000 0.24240  0.41020  0.52970  Biso   1.000  H
  C43      1.0000 0.20090  0.49570  0.67610  Biso   1.000  C
  C44      1.0000 0.14550  0.54980  0.67590  Biso   1.000  C
  H35      1.0000 0.14240  0.58420  0.76820  Biso   1.000  H
  C45      1.0000 0.09470  0.55280  0.53850  Biso   1.000  C
  H36      1.0000 0.06130  0.59300  0.53230  Biso   1.000  H
  N18      1.0000 0.26080  0.48740  0.80370  Biso   1.000  N
  N19      1.0000 0.24000  0.50990  0.95210  Biso   1.000  N
  C46      1.0000 0.40800  0.45040  0.20230  Biso   1.000  C
  H37      1.0000 0.44830  0.41760  0.18690  Biso   1.000  H
  C47      1.0000 0.34930  0.44650  0.08600  Biso   1.000  C
  H38      1.0000 0.34460  0.40620  0.00830  Biso   1.000  H
  C48      1.0000 0.29790  0.50370  0.08720  Biso   1.000  C
  C49      1.0000 0.30100  0.55690  0.21790  Biso   1.000  C
  H39      1.0000 0.26560  0.59540  0.22330  Biso   1.000  H
  C50      1.0000 0.35740  0.55180  0.34040  Biso   1.000  C
  H40      1.0000 0.35910  0.58710  0.43110  Biso   1.000  H
  N20      1.0000 0.41030  0.49820  0.33500  Biso   1.000  N
  N21      1.0000 0.59220  0.99970  0.91380  Biso   1.000  N
  C51      1.0000 0.64680  0.94860  0.91210  Biso   1.000  C
  H41      1.0000 0.64700  0.91310  0.82180  Biso   1.000  H
  C52      1.0000 0.70370  0.94530  0.03830  Biso   1.000  C
  H42      1.0000 0.74240  0.91020  0.02970  Biso   1.000  H
  C53      1.0000 0.70090  0.99570  0.17610  Biso   1.000  C
  C54      1.0000 0.64550  0.04980  0.17590  Biso   1.000  C
  H43      1.0000 0.64240  0.08420  0.26820  Biso   1.000  H
  C55      1.0000 0.59470  0.05280  0.03850  Biso   1.000  C
  H44      1.0000 0.56130  0.09300  0.03230  Biso   1.000  H
  N22      1.0000 0.76080  0.98740  0.30370  Biso   1.000  N
  N23      1.0000 0.74000  0.00990  0.45210  Biso   1.000  N
  C56      1.0000 0.90800  0.95040  0.70230  Biso   1.000  C
  H45      1.0000 0.94830  0.91760  0.68690  Biso   1.000  H
  C57      1.0000 0.84930  0.94650  0.58600  Biso   1.000  C
  H46      1.0000 0.84460  0.90620  0.50830  Biso   1.000  H
  C58      1.0000 0.79790  0.00370  0.58720  Biso   1.000  C
  C59      1.0000 0.80100  0.05690  0.71790  Biso   1.000  C
  H47      1.0000 0.76560  0.09540  0.72330  Biso   1.000  H
  C60      1.0000 0.85740  0.05180  0.84040  Biso   1.000  C
  H48      1.0000 0.85910  0.08710  0.93110  Biso   1.000  H
  N24      1.0000 0.91030  0.99820  0.83500  Biso   1.000  N
  N25      1.0000 0.90780  0.50030  0.41380  Biso   1.000  N
  C61      1.0000 0.85320  0.55140  0.41210  Biso   1.000  C
  H49      1.0000 0.85300  0.58690  0.32180  Biso   1.000  H
  C62      1.0000 0.79630  0.55470  0.53830  Biso   1.000  C
  H50      1.0000 0.75760  0.58980  0.52970  Biso   1.000  H
  C63      1.0000 0.79910  0.50430  0.67610  Biso   1.000  C
  C64      1.0000 0.85450  0.45020  0.67590  Biso   1.000  C
  H51      1.0000 0.85760  0.41580  0.76820  Biso   1.000  H
  C65      1.0000 0.90530  0.44720  0.53850  Biso   1.000  C
  H52      1.0000 0.93870  0.40700  0.53230  Biso   1.000  H
  N26      1.0000 0.73920  0.51260  0.80370  Biso   1.000  N
  N27      1.0000 0.76000  0.49010  0.95210  Biso   1.000  N
  C66      1.0000 0.59200  0.54960  0.20230  Biso   1.000  C
  H53      1.0000 0.55170  0.58240  0.18690  Biso   1.000  H
  C67      1.0000 0.65070  0.55350  0.08600  Biso   1.000  C
  H54      1.0000 0.65540  0.59380  0.00830  Biso   1.000  H
  C68      1.0000 0.70210  0.49630  0.08720  Biso   1.000  C
  C69      1.0000 0.69900  0.44310  0.21790  Biso   1.000  C
  H55      1.0000 0.73440  0.40460  0.22330  Biso   1.000  H
  C70      1.0000 0.64260  0.44820  0.34040  Biso   1.000  C
  H56      1.0000 0.64090  0.41290  0.43110  Biso   1.000  H
  N28      1.0000 0.58970  0.50180  0.33500  Biso   1.000  N
  N29      1.0000 0.40780  0.00030  0.91380  Biso   1.000  N
  C71      1.0000 0.35320  0.05140  0.91210  Biso   1.000  C
  H57      1.0000 0.35300  0.08690  0.82180  Biso   1.000  H
  C72      1.0000 0.29630  0.05470  0.03830  Biso   1.000  C
  H58      1.0000 0.25760  0.08980  0.02970  Biso   1.000  H
  C73      1.0000 0.29910  0.00430  0.17610  Biso   1.000  C
  C74      1.0000 0.35450  0.95020  0.17590  Biso   1.000  C
  H59      1.0000 0.35760  0.91580  0.26820  Biso   1.000  H
  C75      1.0000 0.40530  0.94720  0.03850  Biso   1.000  C
  H60      1.0000 0.43870  0.90700  0.03230  Biso   1.000  H
  N30      1.0000 0.23920  0.01260  0.30370  Biso   1.000  N
  N31      1.0000 0.26000  0.99010  0.45210  Biso   1.000  N
  C76      1.0000 0.09200  0.04960  0.70230  Biso   1.000  C
  H61      1.0000 0.05170  0.08240  0.68690  Biso   1.000  H
  C77      1.0000 0.15070  0.05350  0.58600  Biso   1.000  C
  H62      1.0000 0.15540  0.09380  0.50830  Biso   1.000  H
  C78      1.0000 0.20210  0.99630  0.58720  Biso   1.000  C
  C79      1.0000 0.19900  0.94310  0.71790  Biso   1.000  C
  H63      1.0000 0.23440  0.90460  0.72330  Biso   1.000  H
  C80      1.0000 0.14260  0.94820  0.84040  Biso   1.000  C
  H64      1.0000 0.14090  0.91290  0.93110  Biso   1.000  H
  N32      1.0000 0.08970  0.00180  0.83500  Biso   1.000  N
  Cu1      1.0000 0.50000  0.00000  0.75000  Biso   1.000  Cu
  Cu2      1.0000 0.00000  0.50000  0.25000  Biso   1.000  Cu
  Cu3      1.0000 0.50000  0.50000  0.50000  Biso   1.000  Cu
  Cu4      1.0000 0.00000  0.00000  0.00000  Biso   1.000  Cu
