data_image0
_cell_length_a       13.103
_cell_length_b       30.424
_cell_length_c       23.434
_cell_angle_alpha    90
_cell_angle_beta     101.392
_cell_angle_gamma    90

_symmetry_space_group_name_H-M    "P 1"
_symmetry_int_tables_number       1

loop_
  _symmetry_equiv_pos_as_xyz
  'x, y, z'

loop_
  _atom_site_label
  _atom_site_occupancy
  _atom_site_fract_x
  _atom_site_fract_y
  _atom_site_fract_z
  _atom_site_thermal_displace_type
  _atom_site_B_iso_or_equiv
  _atom_site_type_symbol
  Gd1      1.0000 0.14953  0.23067  0.27149  Biso   1.000  Gd
  Gd2      1.0000 0.84782  0.25831  0.20341  Biso   1.000  Gd
  O1       1.0000 0.09230  0.22773  0.36266  Biso   1.000  O
  O2       1.0000 0.95660  0.24378  0.29406  Biso   1.000  O
  O3       1.0000 0.53400  0.25868  0.68147  Biso   1.000  O
  O4       1.0000 0.41880  0.22641  0.61350  Biso   1.000  O
  O5       1.0000 0.63610  0.28720  0.35820  Biso   1.000  O
  O6       1.0000 0.63670  0.29600  0.44780  Biso   1.000  O
  O7       1.0000 0.87690  0.17560  0.56490  Biso   1.000  O
  O8       1.0000 0.03200  0.18590  0.55420  Biso   1.000  O
  O9       1.0000 0.69780  0.16125  0.44520  Biso   1.000  O
  O10      1.0000 0.53360  0.17538  0.43530  Biso   1.000  O
  O11      1.0000 0.91780  0.28070  0.57410  Biso   1.000  O
  O12      1.0000 0.81820  0.33084  0.59590  Biso   1.000  O
  O13      1.0000 0.11130  0.30693  0.28463  Biso   1.000  O
  O14      1.0000 0.96060  0.32137  0.22301  Biso   1.000  O
  O15      1.0000 0.25240  0.66398  0.18296  Biso   1.000  O
  O16      1.0000 0.25070  0.67867  0.27497  Biso   1.000  O
  O17      1.0000 0.87050  0.46841  0.16616  Biso   1.000  O
  O18      1.0000 0.93810  0.52316  0.21850  Biso   1.000  O
  O19      1.0000 0.35940  0.42344  0.32550  Biso   1.000  O
  O20      1.0000 0.31240  0.49068  0.32790  Biso   1.000  O
  O21      1.0000 0.07900  0.50355  0.36040  Biso   1.000  O
  O22      1.0000 0.13080  0.56685  0.39350  Biso   1.000  O
  O23      1.0000 0.18100  0.46549  0.16300  Biso   1.000  O
  O24      1.0000 0.13540  0.51979  0.10540  Biso   1.000  O
  O25      1.0000 0.04290  0.16615  0.25259  Biso   1.000  O
  O26      1.0000 0.88020  0.18005  0.20505  Biso   1.000  O
  O27      1.0000 0.75860  0.82388  0.33111  Biso   1.000  O
  O28      1.0000 0.72360  0.81334  0.23549  Biso   1.000  O
  O29      1.0000 0.12260  0.02020  0.33290  Biso   1.000  O
  O30      1.0000 0.06350  0.96705  0.27530  Biso   1.000  O
  O31      1.0000 0.63270  0.06384  0.17440  Biso   1.000  O
  O32      1.0000 0.67400  0.99586  0.18840  Biso   1.000  O
  O33      1.0000 0.82910  0.02350  0.34520  Biso   1.000  O
  O34      1.0000 0.89320  0.97002  0.40180  Biso   1.000  O
  O35      1.0000 0.89610  0.98246  0.13900  Biso   1.000  O
  O36      1.0000 0.85800  0.91880  0.11380  Biso   1.000  O
  N1       1.0000 0.67440  0.28208  0.40800  Biso   1.000  N
  N2       1.0000 0.93960  0.19162  0.53870  Biso   1.000  N
  N3       1.0000 0.62490  0.17922  0.46040  Biso   1.000  N
  N4       1.0000 0.83140  0.29550  0.57770  Biso   1.000  N
  N5       1.0000 0.93640  0.48460  0.20480  Biso   1.000  N
  N6       1.0000 0.29330  0.45264  0.31560  Biso   1.000  N
  N7       1.0000 0.11650  0.53953  0.35500  Biso   1.000  N
  N8       1.0000 0.16070  0.50407  0.15410  Biso   1.000  N
  N9       1.0000 0.06070  0.00466  0.29080  Biso   1.000  N
  N10      1.0000 0.69600  0.03469  0.18960  Biso   1.000  N
  N11      1.0000 0.85550  0.98546  0.35390  Biso   1.000  N
  N12      1.0000 0.86520  0.94719  0.14820  Biso   1.000  N
  C1       1.0000 0.99730  0.23583  0.34660  Biso   1.000  C
  C2       1.0000 0.93000  0.23714  0.39120  Biso   1.000  C
  C3       1.0000 0.83400  0.25757  0.37980  Biso   1.000  C
  H1       1.0000 0.81020  0.27110  0.34410  Biso   1.000  H
  C4       1.0000 0.77340  0.25774  0.42200  Biso   1.000  C
  C5       1.0000 0.80370  0.23643  0.47590  Biso   1.000  C
  C6       1.0000 0.90090  0.21663  0.48560  Biso   1.000  C
  C7       1.0000 0.96550  0.21750  0.44500  Biso   1.000  C
  H2       1.0000 0.03160  0.20510  0.45380  Biso   1.000  H
  C8       1.0000 0.73280  0.23548  0.51910  Biso   1.000  C
  C9       1.0000 0.64540  0.20884  0.51080  Biso   1.000  C
  C10      1.0000 0.57230  0.21018  0.54600  Biso   1.000  C
  H3       1.0000 0.51420  0.19200  0.53860  Biso   1.000  H
  C11      1.0000 0.58730  0.23931  0.59290  Biso   1.000  C
  C12      1.0000 0.67150  0.26683  0.60230  Biso   1.000  C
  H4       1.0000 0.68060  0.28690  0.63280  Biso   1.000  H
  C13      1.0000 0.74330  0.26464  0.56600  Biso   1.000  C
  C14      1.0000 0.50720  0.24132  0.63170  Biso   1.000  C
  C15      1.0000 0.04390  0.33192  0.25640  Biso   1.000  C
  C16      1.0000 0.06750  0.38084  0.26120  Biso   1.000  C
  C17      1.0000 0.99330  0.41082  0.23430  Biso   1.000  C
  H5       1.0000 0.92800  0.40130  0.21530  Biso   1.000  H
  C18      1.0000 0.01780  0.45498  0.23620  Biso   1.000  C
  C19      1.0000 0.11380  0.47167  0.26280  Biso   1.000  C
  C20      1.0000 0.18600  0.43998  0.28930  Biso   1.000  C
  C21      1.0000 0.16270  0.39523  0.28920  Biso   1.000  C
  H6       1.0000 0.21190  0.37540  0.30820  Biso   1.000  H
  C22      1.0000 0.14190  0.51901  0.25540  Biso   1.000  C
  C23      1.0000 0.14430  0.55128  0.29910  Biso   1.000  C
  C24      1.0000 0.17230  0.59413  0.29180  Biso   1.000  C
  H7       1.0000 0.17460  0.61430  0.32190  Biso   1.000  H
  C25      1.0000 0.19700  0.60735  0.23970  Biso   1.000  C
  C26      1.0000 0.19030  0.57756  0.19470  Biso   1.000  C
  H8       1.0000 0.20340  0.58640  0.15890  Biso   1.000  H
  C27      1.0000 0.16400  0.53413  0.20350  Biso   1.000  C
  C28      1.0000 0.23420  0.65317  0.23190  Biso   1.000  C
  C29      1.0000 0.95270  0.15556  0.22960  Biso   1.000  C
  C30      1.0000 0.92670  0.10665  0.23050  Biso   1.000  C
  C31      1.0000 0.00220  0.07764  0.25680  Biso   1.000  C
  H9       1.0000 0.06920  0.08750  0.27200  Biso   1.000  H
  C32      1.0000 0.97750  0.03356  0.26040  Biso   1.000  C
  C33      1.0000 0.87830  0.01642  0.23900  Biso   1.000  C
  C34      1.0000 0.80500  0.04753  0.21370  Biso   1.000  C
  C35      1.0000 0.82820  0.09185  0.20910  Biso   1.000  C
  H10      1.0000 0.77680  0.11130  0.19160  Biso   1.000  H
  C36      1.0000 0.85390  0.96934  0.24910  Biso   1.000  C
  C37      1.0000 0.84160  0.95472  0.30330  Biso   1.000  C
  C38      1.0000 0.81670  0.91189  0.31460  Biso   1.000  C
  H11      1.0000 0.81240  0.90350  0.35220  Biso   1.000  H
  C39      1.0000 0.79830  0.88162  0.26990  Biso   1.000  C
  C40      1.0000 0.81430  0.89391  0.21520  Biso   1.000  C
  H12      1.0000 0.80470  0.87370  0.18490  Biso   1.000  H
  C41      1.0000 0.84460  0.93631  0.20630  Biso   1.000  C
  C42      1.0000 0.75820  0.83626  0.27940  Biso   1.000  C
  Gd3      1.0000 0.35047  0.73067  0.22851  Biso   1.000  Gd
  Gd4      1.0000 0.65218  0.75831  0.29659  Biso   1.000  Gd
  O37      1.0000 0.40770  0.72773  0.13734  Biso   1.000  O
  O38      1.0000 0.54340  0.74378  0.20594  Biso   1.000  O
  O39      1.0000 0.96600  0.75868  0.81853  Biso   1.000  O
  O40      1.0000 0.08120  0.72641  0.88650  Biso   1.000  O
  O41      1.0000 0.86390  0.78720  0.14180  Biso   1.000  O
  O42      1.0000 0.86330  0.79600  0.05220  Biso   1.000  O
  O43      1.0000 0.62310  0.67560  0.93510  Biso   1.000  O
  O44      1.0000 0.46800  0.68590  0.94580  Biso   1.000  O
  O45      1.0000 0.80220  0.66125  0.05480  Biso   1.000  O
  O46      1.0000 0.96640  0.67538  0.06470  Biso   1.000  O
  O47      1.0000 0.58220  0.78070  0.92590  Biso   1.000  O
  O48      1.0000 0.68180  0.83084  0.90410  Biso   1.000  O
  O49      1.0000 0.38870  0.80693  0.21537  Biso   1.000  O
  O50      1.0000 0.53940  0.82137  0.27699  Biso   1.000  O
  O51      1.0000 0.24760  0.16398  0.31704  Biso   1.000  O
  O52      1.0000 0.24930  0.17867  0.22503  Biso   1.000  O
  O53      1.0000 0.62950  0.96841  0.33384  Biso   1.000  O
  O54      1.0000 0.56190  0.02316  0.28150  Biso   1.000  O
  O55      1.0000 0.14060  0.92344  0.17450  Biso   1.000  O
  O56      1.0000 0.18760  0.99068  0.17210  Biso   1.000  O
  O57      1.0000 0.42100  0.00355  0.13960  Biso   1.000  O
  O58      1.0000 0.36920  0.06685  0.10650  Biso   1.000  O
  O59      1.0000 0.31900  0.96549  0.33700  Biso   1.000  O
  O60      1.0000 0.36460  0.01979  0.39460  Biso   1.000  O
  O61      1.0000 0.45710  0.66615  0.24741  Biso   1.000  O
  O62      1.0000 0.61980  0.68005  0.29495  Biso   1.000  O
  O63      1.0000 0.74140  0.32388  0.16889  Biso   1.000  O
  O64      1.0000 0.77640  0.31334  0.26451  Biso   1.000  O
  O65      1.0000 0.37740  0.52020  0.16710  Biso   1.000  O
  O66      1.0000 0.43650  0.46705  0.22470  Biso   1.000  O
  O67      1.0000 0.86730  0.56384  0.32560  Biso   1.000  O
  O68      1.0000 0.82600  0.49586  0.31160  Biso   1.000  O
  O69      1.0000 0.67090  0.52350  0.15480  Biso   1.000  O
  O70      1.0000 0.60680  0.47002  0.09820  Biso   1.000  O
  O71      1.0000 0.60390  0.48246  0.36100  Biso   1.000  O
  O72      1.0000 0.64200  0.41880  0.38620  Biso   1.000  O
  N13      1.0000 0.82560  0.78208  0.09200  Biso   1.000  N
  N14      1.0000 0.56040  0.69162  0.96130  Biso   1.000  N
  N15      1.0000 0.87510  0.67922  0.03960  Biso   1.000  N
  N16      1.0000 0.66860  0.79550  0.92230  Biso   1.000  N
  N17      1.0000 0.56360  0.98460  0.29520  Biso   1.000  N
  N18      1.0000 0.20670  0.95264  0.18440  Biso   1.000  N
  N19      1.0000 0.38350  0.03953  0.14500  Biso   1.000  N
  N20      1.0000 0.33930  0.00407  0.34590  Biso   1.000  N
  N21      1.0000 0.43930  0.50466  0.20920  Biso   1.000  N
  N22      1.0000 0.80400  0.53469  0.31040  Biso   1.000  N
  N23      1.0000 0.64450  0.48546  0.14610  Biso   1.000  N
  N24      1.0000 0.63480  0.44719  0.35180  Biso   1.000  N
  C43      1.0000 0.50270  0.73583  0.15340  Biso   1.000  C
  C44      1.0000 0.57000  0.73714  0.10880  Biso   1.000  C
  C45      1.0000 0.66600  0.75757  0.12020  Biso   1.000  C
  H13      1.0000 0.68980  0.77110  0.15590  Biso   1.000  H
  C46      1.0000 0.72660  0.75774  0.07800  Biso   1.000  C
  C47      1.0000 0.69630  0.73643  0.02410  Biso   1.000  C
  C48      1.0000 0.59910  0.71663  0.01440  Biso   1.000  C
  C49      1.0000 0.53450  0.71750  0.05500  Biso   1.000  C
  H14      1.0000 0.46840  0.70510  0.04620  Biso   1.000  H
  C50      1.0000 0.76720  0.73548  0.98090  Biso   1.000  C
  C51      1.0000 0.85460  0.70884  0.98920  Biso   1.000  C
  C52      1.0000 0.92770  0.71018  0.95400  Biso   1.000  C
  H15      1.0000 0.98580  0.69200  0.96140  Biso   1.000  H
  C53      1.0000 0.91270  0.73931  0.90710  Biso   1.000  C
  C54      1.0000 0.82850  0.76683  0.89770  Biso   1.000  C
  H16      1.0000 0.81940  0.78690  0.86720  Biso   1.000  H
  C55      1.0000 0.75670  0.76464  0.93400  Biso   1.000  C
  C56      1.0000 0.99280  0.74132  0.86830  Biso   1.000  C
  C57      1.0000 0.45610  0.83192  0.24360  Biso   1.000  C
  C58      1.0000 0.43250  0.88084  0.23880  Biso   1.000  C
  C59      1.0000 0.50670  0.91082  0.26570  Biso   1.000  C
  H17      1.0000 0.57200  0.90130  0.28470  Biso   1.000  H
  C60      1.0000 0.48220  0.95498  0.26380  Biso   1.000  C
  C61      1.0000 0.38620  0.97167  0.23720  Biso   1.000  C
  C62      1.0000 0.31400  0.93998  0.21070  Biso   1.000  C
  C63      1.0000 0.33730  0.89523  0.21080  Biso   1.000  C
  H18      1.0000 0.28810  0.87540  0.19180  Biso   1.000  H
  C64      1.0000 0.35810  0.01901  0.24460  Biso   1.000  C
  C65      1.0000 0.35570  0.05128  0.20090  Biso   1.000  C
  C66      1.0000 0.32770  0.09413  0.20820  Biso   1.000  C
  H19      1.0000 0.32540  0.11430  0.17810  Biso   1.000  H
  C67      1.0000 0.30300  0.10735  0.26030  Biso   1.000  C
  C68      1.0000 0.30970  0.07756  0.30530  Biso   1.000  C
  H20      1.0000 0.29660  0.08640  0.34110  Biso   1.000  H
  C69      1.0000 0.33600  0.03413  0.29650  Biso   1.000  C
  C70      1.0000 0.26580  0.15317  0.26810  Biso   1.000  C
  C71      1.0000 0.54730  0.65556  0.27040  Biso   1.000  C
  C72      1.0000 0.57330  0.60665  0.26950  Biso   1.000  C
  C73      1.0000 0.49780  0.57764  0.24320  Biso   1.000  C
  H21      1.0000 0.43080  0.58750  0.22800  Biso   1.000  H
  C74      1.0000 0.52250  0.53356  0.23960  Biso   1.000  C
  C75      1.0000 0.62170  0.51642  0.26100  Biso   1.000  C
  C76      1.0000 0.69500  0.54753  0.28630  Biso   1.000  C
  C77      1.0000 0.67180  0.59185  0.29090  Biso   1.000  C
  H22      1.0000 0.72320  0.61130  0.30840  Biso   1.000  H
  C78      1.0000 0.64610  0.46934  0.25090  Biso   1.000  C
  C79      1.0000 0.65840  0.45472  0.19670  Biso   1.000  C
  C80      1.0000 0.68330  0.41189  0.18540  Biso   1.000  C
  H23      1.0000 0.68760  0.40350  0.14780  Biso   1.000  H
  C81      1.0000 0.70170  0.38162  0.23010  Biso   1.000  C
  C82      1.0000 0.68570  0.39391  0.28480  Biso   1.000  C
  H24      1.0000 0.69530  0.37370  0.31510  Biso   1.000  H
  C83      1.0000 0.65540  0.43631  0.29370  Biso   1.000  C
  C84      1.0000 0.74180  0.33626  0.22060  Biso   1.000  C
  Gd5      1.0000 0.85047  0.76933  0.72851  Biso   1.000  Gd
  Gd6      1.0000 0.15218  0.74169  0.79659  Biso   1.000  Gd
  O73      1.0000 0.90770  0.77227  0.63734  Biso   1.000  O
  O74      1.0000 0.04340  0.75622  0.70594  Biso   1.000  O
  O75      1.0000 0.46600  0.74132  0.31853  Biso   1.000  O
  O76      1.0000 0.58120  0.77359  0.38650  Biso   1.000  O
  O77      1.0000 0.36390  0.71280  0.64180  Biso   1.000  O
  O78      1.0000 0.36330  0.70400  0.55220  Biso   1.000  O
  O79      1.0000 0.12310  0.82440  0.43510  Biso   1.000  O
  O80      1.0000 0.96800  0.81410  0.44580  Biso   1.000  O
  O81      1.0000 0.30220  0.83875  0.55480  Biso   1.000  O
  O82      1.0000 0.46640  0.82462  0.56470  Biso   1.000  O
  O83      1.0000 0.08220  0.71930  0.42590  Biso   1.000  O
  O84      1.0000 0.18180  0.66916  0.40410  Biso   1.000  O
  O85      1.0000 0.88870  0.69307  0.71537  Biso   1.000  O
  O86      1.0000 0.03940  0.67863  0.77699  Biso   1.000  O
  O87      1.0000 0.74760  0.33602  0.81704  Biso   1.000  O
  O88      1.0000 0.74930  0.32133  0.72503  Biso   1.000  O
  O89      1.0000 0.12950  0.53159  0.83384  Biso   1.000  O
  O90      1.0000 0.06190  0.47684  0.78150  Biso   1.000  O
  O91      1.0000 0.64060  0.57656  0.67450  Biso   1.000  O
  O92      1.0000 0.68760  0.50932  0.67210  Biso   1.000  O
  O93      1.0000 0.92100  0.49645  0.63960  Biso   1.000  O
  O94      1.0000 0.86920  0.43315  0.60650  Biso   1.000  O
  O95      1.0000 0.81900  0.53451  0.83700  Biso   1.000  O
  O96      1.0000 0.86460  0.48021  0.89460  Biso   1.000  O
  O97      1.0000 0.95710  0.83385  0.74741  Biso   1.000  O
  O98      1.0000 0.11980  0.81995  0.79495  Biso   1.000  O
  O99      1.0000 0.24140  0.17612  0.66889  Biso   1.000  O
  O100     1.0000 0.27640  0.18666  0.76451  Biso   1.000  O
  O101     1.0000 0.87740  0.97980  0.66710  Biso   1.000  O
  O102     1.0000 0.93650  0.03295  0.72470  Biso   1.000  O
  O103     1.0000 0.36730  0.93616  0.82560  Biso   1.000  O
  O104     1.0000 0.32600  0.00414  0.81160  Biso   1.000  O
  O105     1.0000 0.17090  0.97650  0.65480  Biso   1.000  O
  O106     1.0000 0.10680  0.02998  0.59820  Biso   1.000  O
  O107     1.0000 0.10390  0.01754  0.86100  Biso   1.000  O
  O108     1.0000 0.14200  0.08120  0.88620  Biso   1.000  O
  N25      1.0000 0.32560  0.71792  0.59200  Biso   1.000  N
  N26      1.0000 0.06040  0.80838  0.46130  Biso   1.000  N
  N27      1.0000 0.37510  0.82078  0.53960  Biso   1.000  N
  N28      1.0000 0.16860  0.70450  0.42230  Biso   1.000  N
  N29      1.0000 0.06360  0.51540  0.79520  Biso   1.000  N
  N30      1.0000 0.70670  0.54736  0.68440  Biso   1.000  N
  N31      1.0000 0.88350  0.46047  0.64500  Biso   1.000  N
  N32      1.0000 0.83930  0.49593  0.84590  Biso   1.000  N
  N33      1.0000 0.93930  0.99534  0.70920  Biso   1.000  N
  N34      1.0000 0.30400  0.96531  0.81040  Biso   1.000  N
  N35      1.0000 0.14450  0.01454  0.64610  Biso   1.000  N
  N36      1.0000 0.13480  0.05281  0.85180  Biso   1.000  N
  C85      1.0000 0.00270  0.76417  0.65340  Biso   1.000  C
  C86      1.0000 0.07000  0.76286  0.60880  Biso   1.000  C
  C87      1.0000 0.16600  0.74243  0.62020  Biso   1.000  C
  H25      1.0000 0.18980  0.72890  0.65590  Biso   1.000  H
  C88      1.0000 0.22660  0.74226  0.57800  Biso   1.000  C
  C89      1.0000 0.19630  0.76357  0.52410  Biso   1.000  C
  C90      1.0000 0.09910  0.78337  0.51440  Biso   1.000  C
  C91      1.0000 0.03450  0.78250  0.55500  Biso   1.000  C
  H26      1.0000 0.96840  0.79490  0.54620  Biso   1.000  H
  C92      1.0000 0.26720  0.76452  0.48090  Biso   1.000  C
  C93      1.0000 0.35460  0.79116  0.48920  Biso   1.000  C
  C94      1.0000 0.42770  0.78982  0.45400  Biso   1.000  C
  H27      1.0000 0.48580  0.80800  0.46140  Biso   1.000  H
  C95      1.0000 0.41270  0.76069  0.40710  Biso   1.000  C
  C96      1.0000 0.32850  0.73317  0.39770  Biso   1.000  C
  H28      1.0000 0.31940  0.71310  0.36720  Biso   1.000  H
  C97      1.0000 0.25670  0.73536  0.43400  Biso   1.000  C
  C98      1.0000 0.49280  0.75868  0.36830  Biso   1.000  C
  C99      1.0000 0.95610  0.66808  0.74360  Biso   1.000  C
  C100     1.0000 0.93250  0.61916  0.73880  Biso   1.000  C
  C101     1.0000 0.00670  0.58918  0.76570  Biso   1.000  C
  H29      1.0000 0.07200  0.59870  0.78470  Biso   1.000  H
  C102     1.0000 0.98220  0.54502  0.76380  Biso   1.000  C
  C103     1.0000 0.88620  0.52833  0.73720  Biso   1.000  C
  C104     1.0000 0.81400  0.56002  0.71070  Biso   1.000  C
  C105     1.0000 0.83730  0.60477  0.71080  Biso   1.000  C
  H30      1.0000 0.78810  0.62460  0.69180  Biso   1.000  H
  C106     1.0000 0.85810  0.48099  0.74460  Biso   1.000  C
  C107     1.0000 0.85570  0.44872  0.70090  Biso   1.000  C
  C108     1.0000 0.82770  0.40587  0.70820  Biso   1.000  C
  H31      1.0000 0.82540  0.38570  0.67810  Biso   1.000  H
  C109     1.0000 0.80300  0.39265  0.76030  Biso   1.000  C
  C110     1.0000 0.80970  0.42244  0.80530  Biso   1.000  C
  H32      1.0000 0.79660  0.41360  0.84110  Biso   1.000  H
  C111     1.0000 0.83600  0.46587  0.79650  Biso   1.000  C
  C112     1.0000 0.76580  0.34683  0.76810  Biso   1.000  C
  C113     1.0000 0.04730  0.84444  0.77040  Biso   1.000  C
  C114     1.0000 0.07330  0.89335  0.76950  Biso   1.000  C
  C115     1.0000 0.99780  0.92236  0.74320  Biso   1.000  C
  H33      1.0000 0.93080  0.91250  0.72800  Biso   1.000  H
  C116     1.0000 0.02250  0.96644  0.73960  Biso   1.000  C
  C117     1.0000 0.12170  0.98358  0.76100  Biso   1.000  C
  C118     1.0000 0.19500  0.95247  0.78630  Biso   1.000  C
  C119     1.0000 0.17180  0.90815  0.79090  Biso   1.000  C
  H34      1.0000 0.22320  0.88870  0.80840  Biso   1.000  H
  C120     1.0000 0.14610  0.03066  0.75090  Biso   1.000  C
  C121     1.0000 0.15840  0.04528  0.69670  Biso   1.000  C
  C122     1.0000 0.18330  0.08811  0.68540  Biso   1.000  C
  H35      1.0000 0.18760  0.09650  0.64780  Biso   1.000  H
  C123     1.0000 0.20170  0.11838  0.73010  Biso   1.000  C
  C124     1.0000 0.18570  0.10609  0.78480  Biso   1.000  C
  H36      1.0000 0.19530  0.12630  0.81510  Biso   1.000  H
  C125     1.0000 0.15540  0.06369  0.79370  Biso   1.000  C
  C126     1.0000 0.24180  0.16374  0.72060  Biso   1.000  C
  Gd7      1.0000 0.64953  0.26933  0.77149  Biso   1.000  Gd
  Gd8      1.0000 0.34782  0.24169  0.70341  Biso   1.000  Gd
  O109     1.0000 0.59230  0.27227  0.86266  Biso   1.000  O
  O110     1.0000 0.45660  0.25622  0.79406  Biso   1.000  O
  O111     1.0000 0.03400  0.24132  0.18147  Biso   1.000  O
  O112     1.0000 0.91880  0.27359  0.11350  Biso   1.000  O
  O113     1.0000 0.13610  0.21280  0.85820  Biso   1.000  O
  O114     1.0000 0.13670  0.20400  0.94780  Biso   1.000  O
  O115     1.0000 0.37690  0.32440  0.06490  Biso   1.000  O
  O116     1.0000 0.53200  0.31410  0.05420  Biso   1.000  O
  O117     1.0000 0.19780  0.33875  0.94520  Biso   1.000  O
  O118     1.0000 0.03360  0.32462  0.93530  Biso   1.000  O
  O119     1.0000 0.41780  0.21930  0.07410  Biso   1.000  O
  O120     1.0000 0.31820  0.16916  0.09590  Biso   1.000  O
  O121     1.0000 0.61130  0.19307  0.78463  Biso   1.000  O
  O122     1.0000 0.46060  0.17863  0.72301  Biso   1.000  O
  O123     1.0000 0.75240  0.83602  0.68296  Biso   1.000  O
  O124     1.0000 0.75070  0.82133  0.77497  Biso   1.000  O
  O125     1.0000 0.37050  0.03159  0.66616  Biso   1.000  O
  O126     1.0000 0.43810  0.97684  0.71850  Biso   1.000  O
  O127     1.0000 0.85940  0.07656  0.82550  Biso   1.000  O
  O128     1.0000 0.81240  0.00932  0.82790  Biso   1.000  O
  O129     1.0000 0.57900  0.99645  0.86040  Biso   1.000  O
  O130     1.0000 0.63080  0.93315  0.89350  Biso   1.000  O
  O131     1.0000 0.68100  0.03451  0.66300  Biso   1.000  O
  O132     1.0000 0.63540  0.98021  0.60540  Biso   1.000  O
  O133     1.0000 0.54290  0.33385  0.75259  Biso   1.000  O
  O134     1.0000 0.38020  0.31995  0.70505  Biso   1.000  O
  O135     1.0000 0.25860  0.67612  0.83111  Biso   1.000  O
  O136     1.0000 0.22360  0.68666  0.73549  Biso   1.000  O
  O137     1.0000 0.62260  0.47980  0.83290  Biso   1.000  O
  O138     1.0000 0.56350  0.53295  0.77530  Biso   1.000  O
  O139     1.0000 0.13270  0.43616  0.67440  Biso   1.000  O
  O140     1.0000 0.17400  0.50414  0.68840  Biso   1.000  O
  O141     1.0000 0.32910  0.47650  0.84520  Biso   1.000  O
  O142     1.0000 0.39320  0.52998  0.90180  Biso   1.000  O
  O143     1.0000 0.39610  0.51754  0.63900  Biso   1.000  O
  O144     1.0000 0.35800  0.58120  0.61380  Biso   1.000  O
  N37      1.0000 0.17440  0.21792  0.90800  Biso   1.000  N
  N38      1.0000 0.43960  0.30838  0.03870  Biso   1.000  N
  N39      1.0000 0.12490  0.32078  0.96040  Biso   1.000  N
  N40      1.0000 0.33140  0.20450  0.07770  Biso   1.000  N
  N41      1.0000 0.43640  0.01540  0.70480  Biso   1.000  N
  N42      1.0000 0.79330  0.04736  0.81560  Biso   1.000  N
  N43      1.0000 0.61650  0.96047  0.85500  Biso   1.000  N
  N44      1.0000 0.66070  0.99593  0.65410  Biso   1.000  N
  N45      1.0000 0.56070  0.49534  0.79080  Biso   1.000  N
  N46      1.0000 0.19600  0.46531  0.68960  Biso   1.000  N
  N47      1.0000 0.35550  0.51454  0.85390  Biso   1.000  N
  N48      1.0000 0.36520  0.55281  0.64820  Biso   1.000  N
  C127     1.0000 0.49730  0.26417  0.84660  Biso   1.000  C
  C128     1.0000 0.43000  0.26286  0.89120  Biso   1.000  C
  C129     1.0000 0.33400  0.24243  0.87980  Biso   1.000  C
  H37      1.0000 0.31020  0.22890  0.84410  Biso   1.000  H
  C130     1.0000 0.27340  0.24226  0.92200  Biso   1.000  C
  C131     1.0000 0.30370  0.26357  0.97590  Biso   1.000  C
  C132     1.0000 0.40090  0.28337  0.98560  Biso   1.000  C
  C133     1.0000 0.46550  0.28250  0.94500  Biso   1.000  C
  H38      1.0000 0.53160  0.29490  0.95380  Biso   1.000  H
  C134     1.0000 0.23280  0.26452  0.01910  Biso   1.000  C
  C135     1.0000 0.14540  0.29116  0.01080  Biso   1.000  C
  C136     1.0000 0.07230  0.28982  0.04600  Biso   1.000  C
  H39      1.0000 0.01420  0.30800  0.03860  Biso   1.000  H
  C137     1.0000 0.08730  0.26069  0.09290  Biso   1.000  C
  C138     1.0000 0.17150  0.23317  0.10230  Biso   1.000  C
  H40      1.0000 0.18060  0.21310  0.13280  Biso   1.000  H
  C139     1.0000 0.24330  0.23536  0.06600  Biso   1.000  C
  C140     1.0000 0.00720  0.25868  0.13170  Biso   1.000  C
  C141     1.0000 0.54390  0.16808  0.75640  Biso   1.000  C
  C142     1.0000 0.56750  0.11916  0.76120  Biso   1.000  C
  C143     1.0000 0.49330  0.08918  0.73430  Biso   1.000  C
  H41      1.0000 0.42800  0.09870  0.71530  Biso   1.000  H
  C144     1.0000 0.51780  0.04502  0.73620  Biso   1.000  C
  C145     1.0000 0.61380  0.02833  0.76280  Biso   1.000  C
  C146     1.0000 0.68600  0.06002  0.78930  Biso   1.000  C
  C147     1.0000 0.66270  0.10477  0.78920  Biso   1.000  C
  H42      1.0000 0.71190  0.12460  0.80820  Biso   1.000  H
  C148     1.0000 0.64190  0.98099  0.75540  Biso   1.000  C
  C149     1.0000 0.64430  0.94872  0.79910  Biso   1.000  C
  C150     1.0000 0.67230  0.90587  0.79180  Biso   1.000  C
  H43      1.0000 0.67460  0.88570  0.82190  Biso   1.000  H
  C151     1.0000 0.69700  0.89265  0.73970  Biso   1.000  C
  C152     1.0000 0.69030  0.92244  0.69470  Biso   1.000  C
  H44      1.0000 0.70340  0.91360  0.65890  Biso   1.000  H
  C153     1.0000 0.66400  0.96587  0.70350  Biso   1.000  C
  C154     1.0000 0.73420  0.84683  0.73190  Biso   1.000  C
  C155     1.0000 0.45270  0.34444  0.72960  Biso   1.000  C
  C156     1.0000 0.42670  0.39335  0.73050  Biso   1.000  C
  C157     1.0000 0.50220  0.42236  0.75680  Biso   1.000  C
  H45      1.0000 0.56920  0.41250  0.77200  Biso   1.000  H
  C158     1.0000 0.47750  0.46644  0.76040  Biso   1.000  C
  C159     1.0000 0.37830  0.48358  0.73900  Biso   1.000  C
  C160     1.0000 0.30500  0.45247  0.71370  Biso   1.000  C
  C161     1.0000 0.32820  0.40815  0.70910  Biso   1.000  C
  H46      1.0000 0.27680  0.38870  0.69160  Biso   1.000  H
  C162     1.0000 0.35390  0.53066  0.74910  Biso   1.000  C
  C163     1.0000 0.34160  0.54528  0.80330  Biso   1.000  C
  C164     1.0000 0.31670  0.58811  0.81460  Biso   1.000  C
  H47      1.0000 0.31240  0.59650  0.85220  Biso   1.000  H
  C165     1.0000 0.29830  0.61838  0.76990  Biso   1.000  C
  C166     1.0000 0.31430  0.60609  0.71520  Biso   1.000  C
  H48      1.0000 0.30470  0.62630  0.68490  Biso   1.000  H
  C167     1.0000 0.34460  0.56369  0.70630  Biso   1.000  C
  C168     1.0000 0.25820  0.66374  0.77940  Biso   1.000  C
