data_XEGJOK_clean
_audit_creation_date              2014-07-02
_audit_creation_method            'Materials Studio'
_symmetry_space_group_name_H-M    'P1'
_symmetry_Int_Tables_number       1
_symmetry_cell_setting            triclinic
loop_
_symmetry_equiv_pos_as_xyz
  x,y,z
_cell_length_a                    13.3560
_cell_length_b                    19.4413
_cell_length_c                    19.4413
_cell_angle_alpha                 102.1580
_cell_angle_beta                  93.8474
_cell_angle_gamma                 93.8474
loop_
_atom_site_label
_atom_site_type_symbol
_atom_site_fract_x
_atom_site_fract_y
_atom_site_fract_z
_atom_site_U_iso_or_equiv
_atom_site_adp_type
_atom_site_occupancy
Gd1    Gd    0.35247   0.98479   0.46126   0.01267  Uiso   1.00
Gd2    Gd    0.14753   0.53874   0.01521   0.01267  Uiso   1.00
Gd3    Gd    0.64753   0.01521   0.53874   0.01267  Uiso   1.00
Gd4    Gd    0.85247   0.46126   0.98479   0.01267  Uiso   1.00
H1     H     0.29590   0.83070   0.59810   0.01267  Uiso   1.00
H2     H     0.57010   0.88360   0.69640   0.01267  Uiso   1.00
H3     H     0.34020   0.57340   0.81180   0.01267  Uiso   1.00
H4     H     0.28470   0.74950   0.94370   0.01267  Uiso   1.00
H5     H     0.32230   0.14660   0.56980   0.01267  Uiso   1.00
H6     H     0.50640   0.16330   0.74310   0.01267  Uiso   1.00
H7     H     0.20410   0.40190   0.16930   0.01267  Uiso   1.00
H8     H     0.92990   0.30360   0.11640   0.01267  Uiso   1.00
H9     H     0.15980   0.18820   0.42660   0.01267  Uiso   1.00
H10    H     0.21530   0.05630   0.25050   0.01267  Uiso   1.00
H11    H     0.17770   0.43020   0.85340   0.01267  Uiso   1.00
H12    H     0.99360   0.25690   0.83670   0.01267  Uiso   1.00
H13    H     0.70410   0.16930   0.40190   0.01267  Uiso   1.00
H14    H     0.42990   0.11640   0.30360   0.01267  Uiso   1.00
H15    H     0.65980   0.42660   0.18820   0.01267  Uiso   1.00
H16    H     0.71530   0.25050   0.05630   0.01267  Uiso   1.00
H17    H     0.67770   0.85340   0.43020   0.01267  Uiso   1.00
H18    H     0.49360   0.83670   0.25690   0.01267  Uiso   1.00
H19    H     0.79590   0.59810   0.83070   0.01267  Uiso   1.00
H20    H     0.07010   0.69640   0.88360   0.01267  Uiso   1.00
H21    H     0.84020   0.81180   0.57340   0.01267  Uiso   1.00
H22    H     0.78470   0.94370   0.74950   0.01267  Uiso   1.00
H23    H     0.82230   0.56980   0.14660   0.01267  Uiso   1.00
H24    H     0.00640   0.74310   0.16330   0.01267  Uiso   1.00
C1     C     0.45810   0.90880   0.58520   0.01267  Uiso   1.00
C2     C     0.43750   0.86190   0.63670   0.01267  Uiso   1.00
C3     C     0.34440   0.82640   0.63320   0.01267  Uiso   1.00
C4     C     0.32040   0.78550   0.67890   0.01267  Uiso   1.00
C5     C     0.38860   0.77680   0.73280   0.01267  Uiso   1.00
C6     C     0.48040   0.81460   0.73720   0.01267  Uiso   1.00
C7     C     0.50740   0.85830   0.69070   0.01267  Uiso   1.00
C8     C     0.36480   0.73350   0.78710   0.01267  Uiso   1.00
C9     C     0.36780   0.66090   0.77570   0.01267  Uiso   1.00
C10    C     0.33750   0.62210   0.82210   0.01267  Uiso   1.00
C11    C     0.30300   0.65550   0.88410   0.01267  Uiso   1.00
C12    C     0.30380   0.72660   0.90020   0.01267  Uiso   1.00
C13    C     0.33320   0.76560   0.85180   0.01267  Uiso   1.00
C14    C     0.26260   0.61200   0.93440   0.01267  Uiso   1.00
C15    C     0.49540   0.09890   0.60850   0.01267  Uiso   1.00
C16    C     0.42050   0.14180   0.65060   0.01267  Uiso   1.00
C17    C     0.33570   0.16080   0.61860   0.01267  Uiso   1.00
C18    C     0.26940   0.20130   0.65830   0.01267  Uiso   1.00
C19    C     0.28480   0.22310   0.73070   0.01267  Uiso   1.00
C20    C     0.37600   0.20790   0.76230   0.01267  Uiso   1.00
C21    C     0.44420   0.16980   0.72200   0.01267  Uiso   1.00
C22    C     0.04190   0.41480   0.09120   0.01267  Uiso   1.00
C23    C     0.06250   0.36330   0.13810   0.01267  Uiso   1.00
C24    C     0.15560   0.36680   0.17360   0.01267  Uiso   1.00
C25    C     0.17960   0.32110   0.21450   0.01267  Uiso   1.00
C26    C     0.11140   0.26720   0.22320   0.01267  Uiso   1.00
C27    C     0.01960   0.26280   0.18540   0.01267  Uiso   1.00
C28    C     0.99260   0.30930   0.14170   0.01267  Uiso   1.00
C29    C     0.13520   0.21290   0.26650   0.01267  Uiso   1.00
C30    C     0.13220   0.22430   0.33910   0.01267  Uiso   1.00
C31    C     0.16250   0.17790   0.37790   0.01267  Uiso   1.00
C32    C     0.19700   0.11590   0.34450   0.01267  Uiso   1.00
C33    C     0.19620   0.09980   0.27340   0.01267  Uiso   1.00
C34    C     0.16680   0.14820   0.23440   0.01267  Uiso   1.00
C35    C     0.23740   0.06560   0.38800   0.01267  Uiso   1.00
C36    C     0.00460   0.39150   0.90110   0.01267  Uiso   1.00
C37    C     0.07950   0.34940   0.85820   0.01267  Uiso   1.00
C38    C     0.16430   0.38140   0.83920   0.01267  Uiso   1.00
C39    C     0.23060   0.34170   0.79870   0.01267  Uiso   1.00
C40    C     0.21520   0.26930   0.77690   0.01267  Uiso   1.00
C41    C     0.12400   0.23770   0.79210   0.01267  Uiso   1.00
C42    C     0.05580   0.27800   0.83020   0.01267  Uiso   1.00
C43    C     0.54190   0.09120   0.41480   0.01267  Uiso   1.00
C44    C     0.56250   0.13810   0.36330   0.01267  Uiso   1.00
C45    C     0.65560   0.17360   0.36680   0.01267  Uiso   1.00
C46    C     0.67960   0.21450   0.32110   0.01267  Uiso   1.00
C47    C     0.61140   0.22320   0.26720   0.01267  Uiso   1.00
C48    C     0.51960   0.18540   0.26280   0.01267  Uiso   1.00
C49    C     0.49260   0.14170   0.30930   0.01267  Uiso   1.00
C50    C     0.63520   0.26650   0.21290   0.01267  Uiso   1.00
C51    C     0.63220   0.33910   0.22430   0.01267  Uiso   1.00
C52    C     0.66250   0.37790   0.17790   0.01267  Uiso   1.00
C53    C     0.69700   0.34450   0.11590   0.01267  Uiso   1.00
C54    C     0.69620   0.27340   0.09980   0.01267  Uiso   1.00
C55    C     0.66680   0.23440   0.14820   0.01267  Uiso   1.00
C56    C     0.73740   0.38800   0.06560   0.01267  Uiso   1.00
C57    C     0.50460   0.90110   0.39150   0.01267  Uiso   1.00
C58    C     0.57950   0.85820   0.34940   0.01267  Uiso   1.00
C59    C     0.66430   0.83920   0.38140   0.01267  Uiso   1.00
C60    C     0.73060   0.79870   0.34170   0.01267  Uiso   1.00
C61    C     0.71520   0.77690   0.26930   0.01267  Uiso   1.00
C62    C     0.62400   0.79210   0.23770   0.01267  Uiso   1.00
C63    C     0.55580   0.83020   0.27800   0.01267  Uiso   1.00
C64    C     0.95810   0.58520   0.90880   0.01267  Uiso   1.00
C65    C     0.93750   0.63670   0.86190   0.01267  Uiso   1.00
C66    C     0.84440   0.63320   0.82640   0.01267  Uiso   1.00
C67    C     0.82040   0.67890   0.78550   0.01267  Uiso   1.00
C68    C     0.88860   0.73280   0.77680   0.01267  Uiso   1.00
C69    C     0.98040   0.73720   0.81460   0.01267  Uiso   1.00
C70    C     0.00740   0.69070   0.85830   0.01267  Uiso   1.00
C71    C     0.86480   0.78710   0.73350   0.01267  Uiso   1.00
C72    C     0.86780   0.77570   0.66090   0.01267  Uiso   1.00
C73    C     0.83750   0.82210   0.62210   0.01267  Uiso   1.00
C74    C     0.80300   0.88410   0.65550   0.01267  Uiso   1.00
C75    C     0.80380   0.90020   0.72660   0.01267  Uiso   1.00
C76    C     0.83320   0.85180   0.76560   0.01267  Uiso   1.00
C77    C     0.76260   0.93440   0.61200   0.01267  Uiso   1.00
C78    C     0.99540   0.60850   0.09890   0.01267  Uiso   1.00
C79    C     0.92050   0.65060   0.14180   0.01267  Uiso   1.00
C80    C     0.83570   0.61860   0.16080   0.01267  Uiso   1.00
C81    C     0.76940   0.65830   0.20130   0.01267  Uiso   1.00
C82    C     0.78480   0.73070   0.22310   0.01267  Uiso   1.00
C83    C     0.87600   0.76230   0.20790   0.01267  Uiso   1.00
C84    C     0.94420   0.72200   0.16980   0.01267  Uiso   1.00
N1     N     0.22050   0.75210   0.67190   0.01267  Uiso   1.00
N2     N     0.55730   0.81450   0.79590   0.01267  Uiso   1.00
N3     N     0.40710   0.62280   0.71000   0.01267  Uiso   1.00
N4     N     0.32840   0.84140   0.87040   0.01267  Uiso   1.00
N5     N     0.18370   0.21980   0.62260   0.01267  Uiso   1.00
N6     N     0.39970   0.22890   0.83690   0.01267  Uiso   1.00
N7     N     0.27950   0.32810   0.24790   0.01267  Uiso   1.00
N8     N     0.94270   0.20410   0.18550   0.01267  Uiso   1.00
N9     N     0.09290   0.29000   0.37720   0.01267  Uiso   1.00
N10    N     0.17160   0.12960   0.15860   0.01267  Uiso   1.00
N11    N     0.31630   0.37740   0.78020   0.01267  Uiso   1.00
N12    N     0.10030   0.16310   0.77110   0.01267  Uiso   1.00
N13    N     0.77950   0.24790   0.32810   0.01267  Uiso   1.00
N14    N     0.44270   0.18550   0.20410   0.01267  Uiso   1.00
N15    N     0.59290   0.37720   0.29000   0.01267  Uiso   1.00
N16    N     0.67160   0.15860   0.12960   0.01267  Uiso   1.00
N17    N     0.81630   0.78020   0.37740   0.01267  Uiso   1.00
N18    N     0.60030   0.77110   0.16310   0.01267  Uiso   1.00
N19    N     0.72050   0.67190   0.75210   0.01267  Uiso   1.00
N20    N     0.05730   0.79590   0.81450   0.01267  Uiso   1.00
N21    N     0.90710   0.71000   0.62280   0.01267  Uiso   1.00
N22    N     0.82840   0.87040   0.84140   0.01267  Uiso   1.00
N23    N     0.68370   0.62260   0.21980   0.01267  Uiso   1.00
N24    N     0.89970   0.83690   0.22890   0.01267  Uiso   1.00
O1     O     0.39160   0.91030   0.53890   0.01267  Uiso   1.00
O2     O     0.54450   0.94320   0.59760   0.01267  Uiso   1.00
O3     O     0.23880   0.54750   0.90970   0.01267  Uiso   1.00
O4     O     0.24880   0.64180   0.99560   0.01267  Uiso   1.00
O5     O     0.15710   0.76800   0.63380   0.01267  Uiso   1.00
O6     O     0.19620   0.71110   0.70630   0.01267  Uiso   1.00
O7     O     0.61920   0.87060   0.81420   0.01267  Uiso   1.00
O8     O     0.55540   0.77460   0.83060   0.01267  Uiso   1.00
O9     O     0.43760   0.65550   0.66890   0.01267  Uiso   1.00
O10    O     0.42040   0.56290   0.70690   0.01267  Uiso   1.00
O11    O     0.31450   0.87440   0.82420   0.01267  Uiso   1.00
O12    O     0.33170   0.87020   0.93420   0.01267  Uiso   1.00
O13    O     0.45970   0.05970   0.55090   0.01267  Uiso   1.00
O14    O     0.58220   0.10250   0.63250   0.01267  Uiso   1.00
O15    O     0.11000   0.23620   0.64900   0.01267  Uiso   1.00
O16    O     0.15900   0.19910   0.56090   0.01267  Uiso   1.00
O17    O     0.33820   0.23930   0.87790   0.01267  Uiso   1.00
O18    O     0.48990   0.23940   0.85640   0.01267  Uiso   1.00
O19    O     0.10840   0.46110   0.08970   0.01267  Uiso   1.00
O20    O     0.95550   0.40240   0.05680   0.01267  Uiso   1.00
O21    O     0.26120   0.09030   0.45250   0.01267  Uiso   1.00
O22    O     0.25120   0.00440   0.35820   0.01267  Uiso   1.00
O23    O     0.34290   0.36620   0.23200   0.01267  Uiso   1.00
O24    O     0.30380   0.29370   0.28890   0.01267  Uiso   1.00
O25    O     0.88080   0.18580   0.12940   0.01267  Uiso   1.00
O26    O     0.94460   0.16940   0.22540   0.01267  Uiso   1.00
O27    O     0.06240   0.33110   0.34450   0.01267  Uiso   1.00
O28    O     0.07960   0.29310   0.43710   0.01267  Uiso   1.00
O29    O     0.18550   0.17580   0.12560   0.01267  Uiso   1.00
O30    O     0.16830   0.06580   0.12980   0.01267  Uiso   1.00
O31    O     0.04030   0.44910   0.94030   0.01267  Uiso   1.00
O32    O     0.91780   0.36750   0.89750   0.01267  Uiso   1.00
O33    O     0.39000   0.35100   0.76380   0.01267  Uiso   1.00
O34    O     0.34100   0.43910   0.80090   0.01267  Uiso   1.00
O35    O     0.16180   0.12210   0.76070   0.01267  Uiso   1.00
O36    O     0.01010   0.14360   0.76060   0.01267  Uiso   1.00
O37    O     0.60840   0.08970   0.46110   0.01267  Uiso   1.00
O38    O     0.45550   0.05680   0.40240   0.01267  Uiso   1.00
O39    O     0.76120   0.45250   0.09030   0.01267  Uiso   1.00
O40    O     0.75120   0.35820   0.00440   0.01267  Uiso   1.00
O41    O     0.84290   0.23200   0.36620   0.01267  Uiso   1.00
O42    O     0.80380   0.28890   0.29370   0.01267  Uiso   1.00
O43    O     0.38080   0.12940   0.18580   0.01267  Uiso   1.00
O44    O     0.44460   0.22540   0.16940   0.01267  Uiso   1.00
O45    O     0.56240   0.34450   0.33110   0.01267  Uiso   1.00
O46    O     0.57960   0.43710   0.29310   0.01267  Uiso   1.00
O47    O     0.68550   0.12560   0.17580   0.01267  Uiso   1.00
O48    O     0.66830   0.12980   0.06580   0.01267  Uiso   1.00
O49    O     0.54030   0.94030   0.44910   0.01267  Uiso   1.00
O50    O     0.41780   0.89750   0.36750   0.01267  Uiso   1.00
O51    O     0.89000   0.76380   0.35100   0.01267  Uiso   1.00
O52    O     0.84100   0.80090   0.43910   0.01267  Uiso   1.00
O53    O     0.66180   0.76070   0.12210   0.01267  Uiso   1.00
O54    O     0.51010   0.76060   0.14360   0.01267  Uiso   1.00
O55    O     0.89160   0.53890   0.91030   0.01267  Uiso   1.00
O56    O     0.04450   0.59760   0.94320   0.01267  Uiso   1.00
O57    O     0.73880   0.90970   0.54750   0.01267  Uiso   1.00
O58    O     0.74880   0.99560   0.64180   0.01267  Uiso   1.00
O59    O     0.65710   0.63380   0.76800   0.01267  Uiso   1.00
O60    O     0.69620   0.70630   0.71110   0.01267  Uiso   1.00
O61    O     0.11920   0.81420   0.87060   0.01267  Uiso   1.00
O62    O     0.05540   0.83060   0.77460   0.01267  Uiso   1.00
O63    O     0.93760   0.66890   0.65550   0.01267  Uiso   1.00
O64    O     0.92040   0.70690   0.56290   0.01267  Uiso   1.00
O65    O     0.81450   0.82420   0.87440   0.01267  Uiso   1.00
O66    O     0.83170   0.93420   0.87020   0.01267  Uiso   1.00
O67    O     0.95970   0.55090   0.05970   0.01267  Uiso   1.00
O68    O     0.08220   0.63250   0.10250   0.01267  Uiso   1.00
O69    O     0.61000   0.64900   0.23620   0.01267  Uiso   1.00
O70    O     0.65900   0.56090   0.19910   0.01267  Uiso   1.00
O71    O     0.83820   0.87790   0.23930   0.01267  Uiso   1.00
O72    O     0.98990   0.85640   0.23940   0.01267  Uiso   1.00
