data_XEGKOL_clean
_audit_creation_date              2014-07-02
_audit_creation_method            'Materials Studio'
_symmetry_space_group_name_H-M    'P1'
_symmetry_Int_Tables_number       1
_symmetry_cell_setting            triclinic
loop_
_symmetry_equiv_pos_as_xyz
  x,y,z
_cell_length_a                    14.6360
_cell_length_b                    19.2662
_cell_length_c                    19.2662
_cell_angle_alpha                 101.2410
_cell_angle_beta                  92.7000
_cell_angle_gamma                 92.7000
loop_
_atom_site_label
_atom_site_type_symbol
_atom_site_fract_x
_atom_site_fract_y
_atom_site_fract_z
_atom_site_U_iso_or_equiv
_atom_site_adp_type
_atom_site_occupancy
Gd1    Gd    0.36875   0.45527   0.98247   0.01267  Uiso   1.00
Gd2    Gd    0.13125   0.01753   0.54473   0.01267  Uiso   1.00
Gd3    Gd    0.63125   0.54473   0.01753   0.01267  Uiso   1.00
Gd4    Gd    0.86875   0.98247   0.45527   0.01267  Uiso   1.00
H1     H     0.44740   0.30930   0.13210   0.01267  Uiso   1.00
H2     H     0.69650   0.40660   0.16540   0.01267  Uiso   1.00
H3     H     0.75800   0.05830   0.23790   0.01267  Uiso   1.00
H4     H     0.67270   0.17410   0.41790   0.01267  Uiso   1.00
H5     H     0.68570   0.43050   0.85970   0.01267  Uiso   1.00
H6     H     0.51610   0.25800   0.84160   0.01267  Uiso   1.00
H7     H     0.14330   0.48940   0.99600   0.01267  Uiso   1.00
H8     H     0.02760   0.56020   0.98540   0.01267  Uiso   1.00
H9     H     0.21560   0.71630   0.97770   0.01267  Uiso   1.00
H10    H     0.32640   0.63870   0.98810   0.01267  Uiso   1.00
H11    H     0.05020   0.74410   0.97690   0.01267  Uiso   1.00
H12    H     0.05260   0.86790   0.69070   0.01267  Uiso   1.00
H13    H     0.80350   0.83460   0.59340   0.01267  Uiso   1.00
H14    H     0.74200   0.76210   0.94170   0.01267  Uiso   1.00
H15    H     0.82730   0.58210   0.82590   0.01267  Uiso   1.00
H16    H     0.81430   0.14030   0.56950   0.01267  Uiso   1.00
H17    H     0.98390   0.15840   0.74200   0.01267  Uiso   1.00
H18    H     0.35670   0.00400   0.51060   0.01267  Uiso   1.00
H19    H     0.47240   0.01460   0.43980   0.01267  Uiso   1.00
H20    H     0.28440   0.02230   0.28370   0.01267  Uiso   1.00
H21    H     0.17360   0.01190   0.36130   0.01267  Uiso   1.00
H22    H     0.44980   0.02310   0.25590   0.01267  Uiso   1.00
H23    H     0.55260   0.69070   0.86790   0.01267  Uiso   1.00
H24    H     0.30350   0.59340   0.83460   0.01267  Uiso   1.00
H25    H     0.24200   0.94170   0.76210   0.01267  Uiso   1.00
H26    H     0.32730   0.82590   0.58210   0.01267  Uiso   1.00
H27    H     0.31430   0.56950   0.14030   0.01267  Uiso   1.00
H28    H     0.48390   0.74200   0.15840   0.01267  Uiso   1.00
H29    H     0.85670   0.51060   0.00400   0.01267  Uiso   1.00
H30    H     0.97240   0.43980   0.01460   0.01267  Uiso   1.00
H31    H     0.78440   0.28370   0.02230   0.01267  Uiso   1.00
H32    H     0.67360   0.36130   0.01190   0.01267  Uiso   1.00
H33    H     0.94980   0.25590   0.02310   0.01267  Uiso   1.00
H34    H     0.94740   0.13210   0.30930   0.01267  Uiso   1.00
H35    H     0.19650   0.16540   0.40660   0.01267  Uiso   1.00
H36    H     0.25800   0.23790   0.05830   0.01267  Uiso   1.00
H37    H     0.17270   0.41790   0.17410   0.01267  Uiso   1.00
H38    H     0.18570   0.85970   0.43050   0.01267  Uiso   1.00
H39    H     0.01610   0.84160   0.25800   0.01267  Uiso   1.00
H40    H     0.64330   0.99600   0.48940   0.01267  Uiso   1.00
H41    H     0.52760   0.98540   0.56020   0.01267  Uiso   1.00
H42    H     0.71560   0.97770   0.71630   0.01267  Uiso   1.00
H43    H     0.82640   0.98810   0.63870   0.01267  Uiso   1.00
H44    H     0.55020   0.97690   0.74410   0.01267  Uiso   1.00
C1     C     0.53900   0.42150   0.09990   0.01267  Uiso   1.00
C2     C     0.56710   0.36820   0.14180   0.01267  Uiso   1.00
C3     C     0.50770   0.31250   0.15050   0.01267  Uiso   1.00
C4     C     0.53910   0.26090   0.18730   0.01267  Uiso   1.00
C5     C     0.62660   0.26300   0.21680   0.01267  Uiso   1.00
C6     C     0.68450   0.31800   0.20560   0.01267  Uiso   1.00
C7     C     0.65530   0.36990   0.17010   0.01267  Uiso   1.00
C8     C     0.65820   0.20630   0.25610   0.01267  Uiso   1.00
C9     C     0.69980   0.14840   0.22540   0.01267  Uiso   1.00
C10    C     0.73180   0.09860   0.26180   0.01267  Uiso   1.00
C11    C     0.72440   0.10940   0.33500   0.01267  Uiso   1.00
C12    C     0.68070   0.16730   0.36950   0.01267  Uiso   1.00
C13    C     0.64940   0.21430   0.33050   0.01267  Uiso   1.00
C14    C     0.76630   0.05940   0.37740   0.01267  Uiso   1.00
C15    C     0.52370   0.39140   0.90520   0.01267  Uiso   1.00
C16    C     0.59190   0.35060   0.85820   0.01267  Uiso   1.00
C17    C     0.67160   0.38240   0.84280   0.01267  Uiso   1.00
C18    C     0.73160   0.34030   0.80050   0.01267  Uiso   1.00
C19    C     0.71640   0.27000   0.77500   0.01267  Uiso   1.00
C20    C     0.63470   0.23870   0.79110   0.01267  Uiso   1.00
C21    C     0.57130   0.27910   0.83210   0.01267  Uiso   1.00
C22    C     0.15830   0.53580   0.99180   0.01267  Uiso   1.00
C23    C     0.08810   0.57760   0.98580   0.01267  Uiso   1.00
C24    C     0.10900   0.64770   0.98030   0.01267  Uiso   1.00
C25    C     0.19910   0.67000   0.98120   0.01267  Uiso   1.00
C26    C     0.26540   0.62250   0.98730   0.01267  Uiso   1.00
C27    C     0.03440   0.69720   0.97880   0.01267  Uiso   1.00
C28    C     0.96100   0.90010   0.57850   0.01267  Uiso   1.00
C29    C     0.93290   0.85820   0.63180   0.01267  Uiso   1.00
C30    C     0.99230   0.84950   0.68750   0.01267  Uiso   1.00
C31    C     0.96090   0.81270   0.73910   0.01267  Uiso   1.00
C32    C     0.87340   0.78320   0.73700   0.01267  Uiso   1.00
C33    C     0.81550   0.79440   0.68200   0.01267  Uiso   1.00
C34    C     0.84470   0.82990   0.63010   0.01267  Uiso   1.00
C35    C     0.84180   0.74390   0.79370   0.01267  Uiso   1.00
C36    C     0.80020   0.77460   0.85160   0.01267  Uiso   1.00
C37    C     0.76820   0.73820   0.90140   0.01267  Uiso   1.00
C38    C     0.77560   0.66500   0.89060   0.01267  Uiso   1.00
C39    C     0.81930   0.63050   0.83270   0.01267  Uiso   1.00
C40    C     0.85060   0.66950   0.78570   0.01267  Uiso   1.00
C41    C     0.73370   0.62260   0.94060   0.01267  Uiso   1.00
C42    C     0.97630   0.09480   0.60860   0.01267  Uiso   1.00
C43    C     0.90810   0.14180   0.64940   0.01267  Uiso   1.00
C44    C     0.82840   0.15720   0.61760   0.01267  Uiso   1.00
C45    C     0.76840   0.19950   0.65970   0.01267  Uiso   1.00
C46    C     0.78360   0.22500   0.73000   0.01267  Uiso   1.00
C47    C     0.86530   0.20890   0.76130   0.01267  Uiso   1.00
C48    C     0.92870   0.16790   0.72090   0.01267  Uiso   1.00
C49    C     0.34170   0.00820   0.46420   0.01267  Uiso   1.00
C50    C     0.41190   0.01420   0.42240   0.01267  Uiso   1.00
C51    C     0.39100   0.01970   0.35230   0.01267  Uiso   1.00
C52    C     0.30090   0.01880   0.33000   0.01267  Uiso   1.00
C53    C     0.23460   0.01270   0.37750   0.01267  Uiso   1.00
C54    C     0.46560   0.02120   0.30280   0.01267  Uiso   1.00
C55    C     0.46100   0.57850   0.90010   0.01267  Uiso   1.00
C56    C     0.43290   0.63180   0.85820   0.01267  Uiso   1.00
C57    C     0.49230   0.68750   0.84950   0.01267  Uiso   1.00
C58    C     0.46090   0.73910   0.81270   0.01267  Uiso   1.00
C59    C     0.37340   0.73700   0.78320   0.01267  Uiso   1.00
C60    C     0.31550   0.68200   0.79440   0.01267  Uiso   1.00
C61    C     0.34470   0.63010   0.82990   0.01267  Uiso   1.00
C62    C     0.34180   0.79370   0.74390   0.01267  Uiso   1.00
C63    C     0.30020   0.85160   0.77460   0.01267  Uiso   1.00
C64    C     0.26820   0.90140   0.73820   0.01267  Uiso   1.00
C65    C     0.27560   0.89060   0.66500   0.01267  Uiso   1.00
C66    C     0.31930   0.83270   0.63050   0.01267  Uiso   1.00
C67    C     0.35060   0.78570   0.66950   0.01267  Uiso   1.00
C68    C     0.23370   0.94060   0.62260   0.01267  Uiso   1.00
C69    C     0.47630   0.60860   0.09480   0.01267  Uiso   1.00
C70    C     0.40810   0.64940   0.14180   0.01267  Uiso   1.00
C71    C     0.32840   0.61760   0.15720   0.01267  Uiso   1.00
C72    C     0.26840   0.65970   0.19950   0.01267  Uiso   1.00
C73    C     0.28360   0.73000   0.22500   0.01267  Uiso   1.00
C74    C     0.36530   0.76130   0.20890   0.01267  Uiso   1.00
C75    C     0.42870   0.72090   0.16790   0.01267  Uiso   1.00
C76    C     0.84170   0.46420   0.00820   0.01267  Uiso   1.00
C77    C     0.91190   0.42240   0.01420   0.01267  Uiso   1.00
C78    C     0.89100   0.35230   0.01970   0.01267  Uiso   1.00
C79    C     0.80090   0.33000   0.01880   0.01267  Uiso   1.00
C80    C     0.73460   0.37750   0.01270   0.01267  Uiso   1.00
C81    C     0.96560   0.30280   0.02120   0.01267  Uiso   1.00
C82    C     0.03900   0.09990   0.42150   0.01267  Uiso   1.00
C83    C     0.06710   0.14180   0.36820   0.01267  Uiso   1.00
C84    C     0.00770   0.15050   0.31250   0.01267  Uiso   1.00
C85    C     0.03910   0.18730   0.26090   0.01267  Uiso   1.00
C86    C     0.12660   0.21680   0.26300   0.01267  Uiso   1.00
C87    C     0.18450   0.20560   0.31800   0.01267  Uiso   1.00
C88    C     0.15530   0.17010   0.36990   0.01267  Uiso   1.00
C89    C     0.15820   0.25610   0.20630   0.01267  Uiso   1.00
C90    C     0.19980   0.22540   0.14840   0.01267  Uiso   1.00
C91    C     0.23180   0.26180   0.09860   0.01267  Uiso   1.00
C92    C     0.22440   0.33500   0.10940   0.01267  Uiso   1.00
C93    C     0.18070   0.36950   0.16730   0.01267  Uiso   1.00
C94    C     0.14940   0.33050   0.21430   0.01267  Uiso   1.00
C95    C     0.26630   0.37740   0.05940   0.01267  Uiso   1.00
C96    C     0.02370   0.90520   0.39140   0.01267  Uiso   1.00
C97    C     0.09190   0.85820   0.35060   0.01267  Uiso   1.00
C98    C     0.17160   0.84280   0.38240   0.01267  Uiso   1.00
C99    C     0.23160   0.80050   0.34030   0.01267  Uiso   1.00
C100   C     0.21640   0.77500   0.27000   0.01267  Uiso   1.00
C101   C     0.13470   0.79110   0.23870   0.01267  Uiso   1.00
C102   C     0.07130   0.83210   0.27910   0.01267  Uiso   1.00
C103   C     0.65830   0.99180   0.53580   0.01267  Uiso   1.00
C104   C     0.58810   0.98580   0.57760   0.01267  Uiso   1.00
C105   C     0.60900   0.98030   0.64770   0.01267  Uiso   1.00
C106   C     0.69910   0.98120   0.67000   0.01267  Uiso   1.00
C107   C     0.76540   0.98730   0.62250   0.01267  Uiso   1.00
C108   C     0.53440   0.97880   0.69720   0.01267  Uiso   1.00
N1     N     0.46840   0.20480   0.19480   0.01267  Uiso   1.00
N2     N     0.78220   0.32430   0.22990   0.01267  Uiso   1.00
N3     N     0.71440   0.13280   0.14780   0.01267  Uiso   1.00
N4     N     0.60030   0.27280   0.36840   0.01267  Uiso   1.00
N5     N     0.81570   0.37970   0.78410   0.01267  Uiso   1.00
N6     N     0.61190   0.16310   0.77230   0.01267  Uiso   1.00
N7     N     0.24840   0.55500   0.99220   0.01267  Uiso   1.00
N8     N     0.03160   0.80520   0.79520   0.01267  Uiso   1.00
N9     N     0.71780   0.77010   0.67570   0.01267  Uiso   1.00
N10    N     0.78560   0.85220   0.86720   0.01267  Uiso   1.00
N11    N     0.89970   0.63160   0.72720   0.01267  Uiso   1.00
N12    N     0.68430   0.21590   0.62030   0.01267  Uiso   1.00
N13    N     0.88810   0.22770   0.83690   0.01267  Uiso   1.00
N14    N     0.25160   0.00780   0.44500   0.01267  Uiso   1.00
N15    N     0.53160   0.79520   0.80520   0.01267  Uiso   1.00
N16    N     0.21780   0.67570   0.77010   0.01267  Uiso   1.00
N17    N     0.28560   0.86720   0.85220   0.01267  Uiso   1.00
N18    N     0.39970   0.72720   0.63160   0.01267  Uiso   1.00
N19    N     0.18430   0.62030   0.21590   0.01267  Uiso   1.00
N20    N     0.38810   0.83690   0.22770   0.01267  Uiso   1.00
N21    N     0.75160   0.44500   0.00780   0.01267  Uiso   1.00
N22    N     0.96840   0.19480   0.20480   0.01267  Uiso   1.00
N23    N     0.28220   0.22990   0.32430   0.01267  Uiso   1.00
N24    N     0.21440   0.14780   0.13280   0.01267  Uiso   1.00
N25    N     0.10030   0.36840   0.27280   0.01267  Uiso   1.00
N26    N     0.31570   0.78410   0.37970   0.01267  Uiso   1.00
N27    N     0.11190   0.77230   0.16310   0.01267  Uiso   1.00
N28    N     0.74840   0.99220   0.55500   0.01267  Uiso   1.00
O1     O     0.46190   0.40930   0.06790   0.01267  Uiso   1.00
O2     O     0.59480   0.47180   0.09920   0.01267  Uiso   1.00
O3     O     0.76760   0.07500   0.44380   0.01267  Uiso   1.00
O4     O     0.79570   0.00360   0.34440   0.01267  Uiso   1.00
O5     O     0.40630   0.19060   0.14960   0.01267  Uiso   1.00
O6     O     0.47700   0.17730   0.24530   0.01267  Uiso   1.00
O7     O     0.83310   0.36580   0.20560   0.01267  Uiso   1.00
O8     O     0.80800   0.28720   0.26980   0.01267  Uiso   1.00
O9     O     0.70990   0.18310   0.11650   0.01267  Uiso   1.00
O10    O     0.73360   0.07310   0.12050   0.01267  Uiso   1.00
O11    O     0.59900   0.32850   0.34670   0.01267  Uiso   1.00
O12    O     0.56330   0.26450   0.42250   0.01267  Uiso   1.00
O13    O     0.55330   0.44730   0.94650   0.01267  Uiso   1.00
O14    O     0.44380   0.36730   0.90030   0.01267  Uiso   1.00
O15    O     0.84810   0.42710   0.82910   0.01267  Uiso   1.00
O16    O     0.84980   0.35800   0.72880   0.01267  Uiso   1.00
O17    O     0.67710   0.12420   0.77380   0.01267  Uiso   1.00
O18    O     0.53960   0.13960   0.76540   0.01267  Uiso   1.00
O19    O     0.95380   0.67950   0.97990   0.01267  Uiso   1.00
O20    O     0.03810   0.93210   0.59070   0.01267  Uiso   1.00
O21    O     0.90520   0.90080   0.52820   0.01267  Uiso   1.00
O22    O     0.73240   0.55620   0.92500   0.01267  Uiso   1.00
O23    O     0.70430   0.65560   0.99640   0.01267  Uiso   1.00
O24    O     0.09370   0.85040   0.80940   0.01267  Uiso   1.00
O25    O     0.02300   0.75470   0.82270   0.01267  Uiso   1.00
O26    O     0.66690   0.79440   0.63420   0.01267  Uiso   1.00
O27    O     0.69200   0.73020   0.71280   0.01267  Uiso   1.00
O28    O     0.79010   0.88350   0.81690   0.01267  Uiso   1.00
O29    O     0.76640   0.87950   0.92690   0.01267  Uiso   1.00
O30    O     0.90100   0.65330   0.67150   0.01267  Uiso   1.00
O31    O     0.93670   0.57750   0.73550   0.01267  Uiso   1.00
O32    O     0.94670   0.05350   0.55270   0.01267  Uiso   1.00
O33    O     0.05620   0.09970   0.63270   0.01267  Uiso   1.00
O34    O     0.65190   0.17090   0.57290   0.01267  Uiso   1.00
O35    O     0.65020   0.27120   0.64200   0.01267  Uiso   1.00
O36    O     0.82290   0.22620   0.87580   0.01267  Uiso   1.00
O37    O     0.96040   0.23460   0.86040   0.01267  Uiso   1.00
O38    O     0.54620   0.02010   0.32050   0.01267  Uiso   1.00
O39    O     0.53810   0.59070   0.93210   0.01267  Uiso   1.00
O40    O     0.40520   0.52820   0.90080   0.01267  Uiso   1.00
O41    O     0.23240   0.92500   0.55620   0.01267  Uiso   1.00
O42    O     0.20430   0.99640   0.65560   0.01267  Uiso   1.00
O43    O     0.59370   0.80940   0.85040   0.01267  Uiso   1.00
O44    O     0.52300   0.82270   0.75470   0.01267  Uiso   1.00
O45    O     0.16690   0.63420   0.79440   0.01267  Uiso   1.00
O46    O     0.19200   0.71280   0.73020   0.01267  Uiso   1.00
O47    O     0.29010   0.81690   0.88350   0.01267  Uiso   1.00
O48    O     0.26640   0.92690   0.87950   0.01267  Uiso   1.00
O49    O     0.40100   0.67150   0.65330   0.01267  Uiso   1.00
O50    O     0.43670   0.73550   0.57750   0.01267  Uiso   1.00
O51    O     0.44670   0.55270   0.05350   0.01267  Uiso   1.00
O52    O     0.55620   0.63270   0.09970   0.01267  Uiso   1.00
O53    O     0.15190   0.57290   0.17090   0.01267  Uiso   1.00
O54    O     0.15020   0.64200   0.27120   0.01267  Uiso   1.00
O55    O     0.32290   0.87580   0.22620   0.01267  Uiso   1.00
O56    O     0.46040   0.86040   0.23460   0.01267  Uiso   1.00
O57    O     0.04620   0.32050   0.02010   0.01267  Uiso   1.00
O58    O     0.96190   0.06790   0.40930   0.01267  Uiso   1.00
O59    O     0.09480   0.09920   0.47180   0.01267  Uiso   1.00
O60    O     0.26760   0.44380   0.07500   0.01267  Uiso   1.00
O61    O     0.29570   0.34440   0.00360   0.01267  Uiso   1.00
O62    O     0.90630   0.14960   0.19060   0.01267  Uiso   1.00
O63    O     0.97700   0.24530   0.17730   0.01267  Uiso   1.00
O64    O     0.33310   0.20560   0.36580   0.01267  Uiso   1.00
O65    O     0.30800   0.26980   0.28720   0.01267  Uiso   1.00
O66    O     0.20990   0.11650   0.18310   0.01267  Uiso   1.00
O67    O     0.23360   0.12050   0.07310   0.01267  Uiso   1.00
O68    O     0.09900   0.34670   0.32850   0.01267  Uiso   1.00
O69    O     0.06330   0.42250   0.26450   0.01267  Uiso   1.00
O70    O     0.05330   0.94650   0.44730   0.01267  Uiso   1.00
O71    O     0.94380   0.90030   0.36730   0.01267  Uiso   1.00
O72    O     0.34810   0.82910   0.42710   0.01267  Uiso   1.00
O73    O     0.34980   0.72880   0.35800   0.01267  Uiso   1.00
O74    O     0.17710   0.77380   0.12420   0.01267  Uiso   1.00
O75    O     0.03960   0.76540   0.13960   0.01267  Uiso   1.00
O76    O     0.45380   0.97990   0.67950   0.01267  Uiso   1.00
