data_XEGKAX_clean
_audit_creation_date              2014-07-02
_audit_creation_method            'Materials Studio'
_symmetry_space_group_name_H-M    'P1'
_symmetry_Int_Tables_number       1
_symmetry_cell_setting            triclinic
loop_
_symmetry_equiv_pos_as_xyz
  x,y,z
_cell_length_a                    13.6520
_cell_length_b                    24.6980
_cell_length_c                    30.1430
_cell_angle_alpha                 90.0000
_cell_angle_beta                  90.0000
_cell_angle_gamma                 94.9350
loop_
_atom_site_label
_atom_site_type_symbol
_atom_site_fract_x
_atom_site_fract_y
_atom_site_fract_z
_atom_site_U_iso_or_equiv
_atom_site_adp_type
_atom_site_occupancy
Gd1    Gd    0.35763   0.22222   0.74635   0.01267  Uiso   1.00
Gd2    Gd    0.64000   0.27732   0.77367   0.01267  Uiso   1.00
Gd3    Gd    0.14237   0.27778   0.24635   0.01267  Uiso   1.00
Gd4    Gd    0.86000   0.22268   0.27367   0.01267  Uiso   1.00
Gd5    Gd    0.64237   0.77778   0.25365   0.01267  Uiso   1.00
Gd6    Gd    0.36000   0.72268   0.22633   0.01267  Uiso   1.00
Gd7    Gd    0.85763   0.72222   0.75365   0.01267  Uiso   1.00
Gd8    Gd    0.14000   0.77732   0.72633   0.01267  Uiso   1.00
H1     H     0.67950   0.14140   0.79350   0.01267  Uiso   1.00
H2     H     0.52950   0.06570   0.69380   0.01267  Uiso   1.00
H3     H     0.00230   0.95330   0.70130   0.01267  Uiso   1.00
H4     H     0.81130   0.85860   0.77380   0.01267  Uiso   1.00
H5     H     0.55790   0.28330   0.91720   0.01267  Uiso   1.00
H6     H     0.30220   0.19710   0.89400   0.01267  Uiso   1.00
H7     H     0.26000   0.33160   0.10290   0.01267  Uiso   1.00
H8     H     0.35090   0.18850   0.13480   0.01267  Uiso   1.00
H9     H     0.70690   0.29440   0.63230   0.01267  Uiso   1.00
H10    H     0.43360   0.23930   0.59890   0.01267  Uiso   1.00
H11    H     0.69120   0.32130   0.39320   0.01267  Uiso   1.00
H12    H     0.72590   0.16470   0.41690   0.01267  Uiso   1.00
H13    H     0.82050   0.35860   0.29350   0.01267  Uiso   1.00
H14    H     0.97050   0.43430   0.19380   0.01267  Uiso   1.00
H15    H     0.49770   0.54670   0.20130   0.01267  Uiso   1.00
H16    H     0.68870   0.64140   0.27380   0.01267  Uiso   1.00
H17    H     0.94210   0.21670   0.41720   0.01267  Uiso   1.00
H18    H     0.19780   0.30290   0.39400   0.01267  Uiso   1.00
H19    H     0.24000   0.16840   0.60290   0.01267  Uiso   1.00
H20    H     0.14910   0.31150   0.63480   0.01267  Uiso   1.00
H21    H     0.79310   0.20560   0.13230   0.01267  Uiso   1.00
H22    H     0.06640   0.26070   0.09890   0.01267  Uiso   1.00
H23    H     0.80880   0.17870   0.89320   0.01267  Uiso   1.00
H24    H     0.77410   0.33530   0.91690   0.01267  Uiso   1.00
H25    H     0.32050   0.85860   0.20650   0.01267  Uiso   1.00
H26    H     0.47050   0.93430   0.30620   0.01267  Uiso   1.00
H27    H     0.99770   0.04670   0.29870   0.01267  Uiso   1.00
H28    H     0.18870   0.14140   0.22620   0.01267  Uiso   1.00
H29    H     0.44210   0.71670   0.08280   0.01267  Uiso   1.00
H30    H     0.69780   0.80290   0.10600   0.01267  Uiso   1.00
H31    H     0.74000   0.66840   0.89710   0.01267  Uiso   1.00
H32    H     0.64910   0.81150   0.86520   0.01267  Uiso   1.00
H33    H     0.29310   0.70560   0.36770   0.01267  Uiso   1.00
H34    H     0.56640   0.76070   0.40110   0.01267  Uiso   1.00
H35    H     0.30880   0.67870   0.60680   0.01267  Uiso   1.00
H36    H     0.27410   0.83530   0.58310   0.01267  Uiso   1.00
H37    H     0.17950   0.64140   0.70650   0.01267  Uiso   1.00
H38    H     0.02950   0.56570   0.80620   0.01267  Uiso   1.00
H39    H     0.50230   0.45330   0.79870   0.01267  Uiso   1.00
H40    H     0.31130   0.35860   0.72620   0.01267  Uiso   1.00
H41    H     0.05790   0.78330   0.58280   0.01267  Uiso   1.00
H42    H     0.80220   0.69710   0.60600   0.01267  Uiso   1.00
H43    H     0.76000   0.83160   0.39710   0.01267  Uiso   1.00
H44    H     0.85090   0.68850   0.36520   0.01267  Uiso   1.00
H45    H     0.20690   0.79440   0.86770   0.01267  Uiso   1.00
H46    H     0.93360   0.73930   0.90110   0.01267  Uiso   1.00
H47    H     0.19120   0.82130   0.10680   0.01267  Uiso   1.00
H48    H     0.22590   0.66470   0.08310   0.01267  Uiso   1.00
C1     C     0.51570   0.15030   0.74500   0.01267  Uiso   1.00
C2     C     0.59080   0.10940   0.74430   0.01267  Uiso   1.00
C3     C     0.66950   0.11230   0.77390   0.01267  Uiso   1.00
C4     C     0.73190   0.07170   0.77380   0.01267  Uiso   1.00
C5     C     0.72350   0.02780   0.74430   0.01267  Uiso   1.00
C6     C     0.64680   0.02840   0.71420   0.01267  Uiso   1.00
C7     C     0.58080   0.06760   0.71420   0.01267  Uiso   1.00
C8     C     0.79360   0.98390   0.74370   0.01267  Uiso   1.00
C9     C     0.88280   0.98900   0.72120   0.01267  Uiso   1.00
C10    C     0.94390   0.94810   0.71720   0.01267  Uiso   1.00
C11    C     0.91580   0.89780   0.73790   0.01267  Uiso   1.00
C12    C     0.83050   0.89170   0.76050   0.01267  Uiso   1.00
C13    C     0.77070   0.93420   0.76420   0.01267  Uiso   1.00
C14    C     0.98220   0.85230   0.73300   0.01267  Uiso   1.00
C15    C     0.45490   0.24160   0.84840   0.01267  Uiso   1.00
C16    C     0.43330   0.24010   0.89780   0.01267  Uiso   1.00
C17    C     0.49890   0.26610   0.92750   0.01267  Uiso   1.00
C18    C     0.47770   0.26680   0.97170   0.01267  Uiso   1.00
C19    C     0.39050   0.24030   0.98950   0.01267  Uiso   1.00
C20    C     0.32920   0.21390   0.95840   0.01267  Uiso   1.00
C21    C     0.34760   0.21430   0.91350   0.01267  Uiso   1.00
C22    C     0.36120   0.24760   0.03720   0.01267  Uiso   1.00
C23    C     0.31580   0.29230   0.05140   0.01267  Uiso   1.00
C24    C     0.28700   0.29970   0.09480   0.01267  Uiso   1.00
C25    C     0.29810   0.26060   0.12530   0.01267  Uiso   1.00
C26    C     0.34220   0.21520   0.11370   0.01267  Uiso   1.00
C27    C     0.37410   0.20890   0.07050   0.01267  Uiso   1.00
C28    C     0.25970   0.26840   0.17170   0.01267  Uiso   1.00
C29    C     0.53560   0.26450   0.67100   0.01267  Uiso   1.00
C30    C     0.56630   0.26620   0.62240   0.01267  Uiso   1.00
C31    C     0.66150   0.28180   0.61090   0.01267  Uiso   1.00
C32    C     0.68920   0.27860   0.56700   0.01267  Uiso   1.00
C33    C     0.62410   0.26120   0.53360   0.01267  Uiso   1.00
C34    C     0.52880   0.24690   0.54760   0.01267  Uiso   1.00
C35    C     0.49860   0.24920   0.59110   0.01267  Uiso   1.00
C36    C     0.65430   0.25540   0.48610   0.01267  Uiso   1.00
C37    C     0.65380   0.29640   0.45530   0.01267  Uiso   1.00
C38    C     0.68680   0.29150   0.41220   0.01267  Uiso   1.00
C39    C     0.71330   0.24160   0.39770   0.01267  Uiso   1.00
C40    C     0.70940   0.19850   0.42650   0.01267  Uiso   1.00
C41    C     0.68080   0.20560   0.47000   0.01267  Uiso   1.00
C42    C     0.75250   0.23540   0.35140   0.01267  Uiso   1.00
C43    C     0.98430   0.34970   0.24500   0.01267  Uiso   1.00
C44    C     0.90920   0.39060   0.24430   0.01267  Uiso   1.00
C45    C     0.83050   0.38770   0.27390   0.01267  Uiso   1.00
C46    C     0.76810   0.42830   0.27380   0.01267  Uiso   1.00
C47    C     0.77650   0.47220   0.24430   0.01267  Uiso   1.00
C48    C     0.85320   0.47160   0.21420   0.01267  Uiso   1.00
C49    C     0.91920   0.43240   0.21420   0.01267  Uiso   1.00
C50    C     0.70640   0.51610   0.24370   0.01267  Uiso   1.00
C51    C     0.61720   0.51100   0.22120   0.01267  Uiso   1.00
C52    C     0.55610   0.55190   0.21720   0.01267  Uiso   1.00
C53    C     0.58420   0.60220   0.23790   0.01267  Uiso   1.00
C54    C     0.66950   0.60830   0.26050   0.01267  Uiso   1.00
C55    C     0.72930   0.56580   0.26420   0.01267  Uiso   1.00
C56    C     0.51780   0.64770   0.23300   0.01267  Uiso   1.00
C57    C     0.04510   0.25840   0.34840   0.01267  Uiso   1.00
C58    C     0.06670   0.25990   0.39780   0.01267  Uiso   1.00
C59    C     0.00110   0.23390   0.42750   0.01267  Uiso   1.00
C60    C     0.02230   0.23320   0.47170   0.01267  Uiso   1.00
C61    C     0.10950   0.25970   0.48950   0.01267  Uiso   1.00
C62    C     0.17080   0.28610   0.45840   0.01267  Uiso   1.00
C63    C     0.15240   0.28570   0.41350   0.01267  Uiso   1.00
C64    C     0.13880   0.25240   0.53720   0.01267  Uiso   1.00
C65    C     0.18420   0.20770   0.55140   0.01267  Uiso   1.00
C66    C     0.21300   0.20030   0.59480   0.01267  Uiso   1.00
C67    C     0.20190   0.23940   0.62530   0.01267  Uiso   1.00
C68    C     0.15780   0.28480   0.61370   0.01267  Uiso   1.00
C69    C     0.12590   0.29110   0.57050   0.01267  Uiso   1.00
C70    C     0.24030   0.23160   0.67170   0.01267  Uiso   1.00
C71    C     0.96440   0.23550   0.17100   0.01267  Uiso   1.00
C72    C     0.93370   0.23380   0.12240   0.01267  Uiso   1.00
C73    C     0.83850   0.21820   0.11090   0.01267  Uiso   1.00
C74    C     0.81080   0.22140   0.06700   0.01267  Uiso   1.00
C75    C     0.87590   0.23880   0.03360   0.01267  Uiso   1.00
C76    C     0.97120   0.25310   0.04760   0.01267  Uiso   1.00
C77    C     0.00140   0.25080   0.09110   0.01267  Uiso   1.00
C78    C     0.84570   0.24460   0.98610   0.01267  Uiso   1.00
C79    C     0.84620   0.20360   0.95530   0.01267  Uiso   1.00
C80    C     0.81320   0.20850   0.91220   0.01267  Uiso   1.00
C81    C     0.78670   0.25840   0.89770   0.01267  Uiso   1.00
C82    C     0.79060   0.30150   0.92650   0.01267  Uiso   1.00
C83    C     0.81920   0.29440   0.97000   0.01267  Uiso   1.00
C84    C     0.74750   0.26460   0.85140   0.01267  Uiso   1.00
C85    C     0.48430   0.84970   0.25500   0.01267  Uiso   1.00
C86    C     0.40920   0.89060   0.25570   0.01267  Uiso   1.00
C87    C     0.33050   0.88770   0.22610   0.01267  Uiso   1.00
C88    C     0.26810   0.92830   0.22620   0.01267  Uiso   1.00
C89    C     0.27650   0.97220   0.25570   0.01267  Uiso   1.00
C90    C     0.35320   0.97160   0.28580   0.01267  Uiso   1.00
C91    C     0.41920   0.93240   0.28580   0.01267  Uiso   1.00
C92    C     0.20640   0.01610   0.25630   0.01267  Uiso   1.00
C93    C     0.11720   0.01100   0.27880   0.01267  Uiso   1.00
C94    C     0.05610   0.05190   0.28280   0.01267  Uiso   1.00
C95    C     0.08420   0.10220   0.26210   0.01267  Uiso   1.00
C96    C     0.16950   0.10830   0.23950   0.01267  Uiso   1.00
C97    C     0.22930   0.06580   0.23580   0.01267  Uiso   1.00
C98    C     0.01780   0.14770   0.26700   0.01267  Uiso   1.00
C99    C     0.54510   0.75840   0.15160   0.01267  Uiso   1.00
C100   C     0.56670   0.75990   0.10220   0.01267  Uiso   1.00
C101   C     0.50110   0.73390   0.07250   0.01267  Uiso   1.00
C102   C     0.52230   0.73320   0.02830   0.01267  Uiso   1.00
C103   C     0.60950   0.75970   0.01050   0.01267  Uiso   1.00
C104   C     0.67080   0.78610   0.04160   0.01267  Uiso   1.00
C105   C     0.65240   0.78570   0.08650   0.01267  Uiso   1.00
C106   C     0.63880   0.75240   0.96280   0.01267  Uiso   1.00
C107   C     0.68420   0.70770   0.94860   0.01267  Uiso   1.00
C108   C     0.71300   0.70030   0.90520   0.01267  Uiso   1.00
C109   C     0.70190   0.73940   0.87470   0.01267  Uiso   1.00
C110   C     0.65780   0.78480   0.88630   0.01267  Uiso   1.00
C111   C     0.62590   0.79110   0.92950   0.01267  Uiso   1.00
C112   C     0.74030   0.73160   0.82830   0.01267  Uiso   1.00
C113   C     0.46440   0.73550   0.32900   0.01267  Uiso   1.00
C114   C     0.43370   0.73380   0.37760   0.01267  Uiso   1.00
C115   C     0.33850   0.71820   0.38910   0.01267  Uiso   1.00
C116   C     0.31080   0.72140   0.43300   0.01267  Uiso   1.00
C117   C     0.37590   0.73880   0.46640   0.01267  Uiso   1.00
C118   C     0.47120   0.75310   0.45240   0.01267  Uiso   1.00
C119   C     0.50140   0.75080   0.40890   0.01267  Uiso   1.00
C120   C     0.34570   0.74460   0.51390   0.01267  Uiso   1.00
C121   C     0.34620   0.70360   0.54470   0.01267  Uiso   1.00
C122   C     0.31320   0.70850   0.58780   0.01267  Uiso   1.00
C123   C     0.28670   0.75840   0.60230   0.01267  Uiso   1.00
C124   C     0.29060   0.80150   0.57350   0.01267  Uiso   1.00
C125   C     0.31920   0.79440   0.53000   0.01267  Uiso   1.00
C126   C     0.24750   0.76460   0.64860   0.01267  Uiso   1.00
C127   C     0.01570   0.65030   0.75500   0.01267  Uiso   1.00
C128   C     0.09080   0.60940   0.75570   0.01267  Uiso   1.00
C129   C     0.16950   0.61230   0.72610   0.01267  Uiso   1.00
C130   C     0.23190   0.57170   0.72620   0.01267  Uiso   1.00
C131   C     0.22350   0.52780   0.75570   0.01267  Uiso   1.00
C132   C     0.14680   0.52840   0.78580   0.01267  Uiso   1.00
C133   C     0.08080   0.56760   0.78580   0.01267  Uiso   1.00
C134   C     0.29360   0.48390   0.75630   0.01267  Uiso   1.00
C135   C     0.38280   0.48900   0.77880   0.01267  Uiso   1.00
C136   C     0.44390   0.44810   0.78280   0.01267  Uiso   1.00
C137   C     0.41580   0.39780   0.76210   0.01267  Uiso   1.00
C138   C     0.33050   0.39170   0.73950   0.01267  Uiso   1.00
C139   C     0.27070   0.43420   0.73580   0.01267  Uiso   1.00
C140   C     0.48220   0.35230   0.76700   0.01267  Uiso   1.00
C141   C     0.95490   0.74160   0.65160   0.01267  Uiso   1.00
C142   C     0.93330   0.74010   0.60220   0.01267  Uiso   1.00
C143   C     0.99890   0.76610   0.57250   0.01267  Uiso   1.00
C144   C     0.97770   0.76680   0.52830   0.01267  Uiso   1.00
C145   C     0.89050   0.74030   0.51050   0.01267  Uiso   1.00
C146   C     0.82920   0.71390   0.54160   0.01267  Uiso   1.00
C147   C     0.84760   0.71430   0.58650   0.01267  Uiso   1.00
C148   C     0.86120   0.74760   0.46280   0.01267  Uiso   1.00
C149   C     0.81580   0.79230   0.44860   0.01267  Uiso   1.00
C150   C     0.78700   0.79970   0.40520   0.01267  Uiso   1.00
C151   C     0.79810   0.76060   0.37470   0.01267  Uiso   1.00
C152   C     0.84220   0.71520   0.38630   0.01267  Uiso   1.00
C153   C     0.87410   0.70890   0.42950   0.01267  Uiso   1.00
C154   C     0.75970   0.76840   0.32830   0.01267  Uiso   1.00
C155   C     0.03560   0.76450   0.82900   0.01267  Uiso   1.00
C156   C     0.06630   0.76620   0.87760   0.01267  Uiso   1.00
C157   C     0.16150   0.78180   0.88910   0.01267  Uiso   1.00
C158   C     0.18920   0.77860   0.93300   0.01267  Uiso   1.00
C159   C     0.12410   0.76120   0.96640   0.01267  Uiso   1.00
C160   C     0.02880   0.74690   0.95240   0.01267  Uiso   1.00
C161   C     0.99860   0.74920   0.90890   0.01267  Uiso   1.00
C162   C     0.15430   0.75540   0.01390   0.01267  Uiso   1.00
C163   C     0.15380   0.79640   0.04470   0.01267  Uiso   1.00
C164   C     0.18680   0.79150   0.08780   0.01267  Uiso   1.00
C165   C     0.21330   0.74160   0.10230   0.01267  Uiso   1.00
C166   C     0.20940   0.69850   0.07350   0.01267  Uiso   1.00
C167   C     0.18080   0.70560   0.03000   0.01267  Uiso   1.00
C168   C     0.25250   0.73540   0.14860   0.01267  Uiso   1.00
N1     N     0.81030   0.07480   0.80770   0.01267  Uiso   1.00
N2     N     0.62940   0.98600   0.67990   0.01267  Uiso   1.00
N3     N     0.91800   0.04110   0.69930   0.01267  Uiso   1.00
N4     N     0.68040   0.92540   0.79000   0.01267  Uiso   1.00
N5     N     0.54880   0.29600   0.00160   0.01267  Uiso   1.00
N6     N     0.23570   0.18320   0.97210   0.01267  Uiso   1.00
N7     N     0.29520   0.33640   0.02010   0.01267  Uiso   1.00
N8     N     0.42290   0.15950   0.06000   0.01267  Uiso   1.00
N9     N     0.79560   0.29270   0.55680   0.01267  Uiso   1.00
N10    N     0.45310   0.22680   0.51580   0.01267  Uiso   1.00
N11    N     0.62130   0.34960   0.46690   0.01267  Uiso   1.00
N12    N     0.68190   0.15760   0.49940   0.01267  Uiso   1.00
N13    N     0.68970   0.42520   0.30770   0.01267  Uiso   1.00
N14    N     0.87060   0.51400   0.17990   0.01267  Uiso   1.00
N15    N     0.58200   0.45890   0.19930   0.01267  Uiso   1.00
N16    N     0.81960   0.57460   0.29000   0.01267  Uiso   1.00
N17    N     0.95120   0.20400   0.50160   0.01267  Uiso   1.00
N18    N     0.26430   0.31680   0.47210   0.01267  Uiso   1.00
N19    N     0.20480   0.16360   0.52010   0.01267  Uiso   1.00
N20    N     0.07710   0.34050   0.56000   0.01267  Uiso   1.00
N21    N     0.70440   0.20730   0.05680   0.01267  Uiso   1.00
N22    N     0.04690   0.27320   0.01580   0.01267  Uiso   1.00
N23    N     0.87870   0.15040   0.96690   0.01267  Uiso   1.00
N24    N     0.81810   0.34240   0.99940   0.01267  Uiso   1.00
N25    N     0.18970   0.92520   0.19230   0.01267  Uiso   1.00
N26    N     0.37060   0.01400   0.32010   0.01267  Uiso   1.00
N27    N     0.08200   0.95890   0.30070   0.01267  Uiso   1.00
N28    N     0.31960   0.07460   0.21000   0.01267  Uiso   1.00
N29    N     0.45120   0.70400   0.99840   0.01267  Uiso   1.00
N30    N     0.76430   0.81680   0.02790   0.01267  Uiso   1.00
N31    N     0.70480   0.66360   0.97990   0.01267  Uiso   1.00
N32    N     0.57710   0.84050   0.94000   0.01267  Uiso   1.00
N33    N     0.20440   0.70730   0.44320   0.01267  Uiso   1.00
N34    N     0.54690   0.77320   0.48420   0.01267  Uiso   1.00
N35    N     0.37870   0.65040   0.53310   0.01267  Uiso   1.00
N36    N     0.31810   0.84240   0.50060   0.01267  Uiso   1.00
N37    N     0.31030   0.57480   0.69230   0.01267  Uiso   1.00
N38    N     0.12940   0.48600   0.82010   0.01267  Uiso   1.00
N39    N     0.41800   0.54110   0.80070   0.01267  Uiso   1.00
N40    N     0.18040   0.42540   0.71000   0.01267  Uiso   1.00
N41    N     0.04880   0.79600   0.49840   0.01267  Uiso   1.00
N42    N     0.73570   0.68320   0.52790   0.01267  Uiso   1.00
N43    N     0.79520   0.83640   0.47990   0.01267  Uiso   1.00
N44    N     0.92290   0.65950   0.44000   0.01267  Uiso   1.00
N45    N     0.29560   0.79270   0.94320   0.01267  Uiso   1.00
N46    N     0.95310   0.72680   0.98420   0.01267  Uiso   1.00
N47    N     0.12130   0.84960   0.03310   0.01267  Uiso   1.00
N48    N     0.18190   0.65760   0.00060   0.01267  Uiso   1.00
O1     O     0.43200   0.13780   0.72990   0.01267  Uiso   1.00
O2     O     0.53890   0.19630   0.76120   0.01267  Uiso   1.00
O3     O     0.06940   0.86380   0.72080   0.01267  Uiso   1.00
O4     O     0.94680   0.80530   0.74200   0.01267  Uiso   1.00
O5     O     0.82830   0.11520   0.82600   0.01267  Uiso   1.00
O6     O     0.85160   0.03730   0.81560   0.01267  Uiso   1.00
O7     O     0.57990   0.99420   0.64920   0.01267  Uiso   1.00
O8     O     0.65590   0.94230   0.68640   0.01267  Uiso   1.00
O9     O     0.88820   0.08260   0.71140   0.01267  Uiso   1.00
O10    O     0.98010   0.04070   0.67160   0.01267  Uiso   1.00
O11    O     0.63720   0.95990   0.80160   0.01267  Uiso   1.00
O12    O     0.64720   0.87930   0.79590   0.01267  Uiso   1.00
O13    O     0.39070   0.21920   0.82390   0.01267  Uiso   1.00
O14    O     0.53640   0.26700   0.83720   0.01267  Uiso   1.00
O15    O     0.24400   0.22690   0.19550   0.01267  Uiso   1.00
O16    O     0.24220   0.31470   0.18350   0.01267  Uiso   1.00
O17    O     0.61400   0.32550   0.98400   0.01267  Uiso   1.00
O18    O     0.54060   0.29050   0.04140   0.01267  Uiso   1.00
O19    O     0.16910   0.17750   0.94580   0.01267  Uiso   1.00
O20    O     0.23500   0.16100   0.00940   0.01267  Uiso   1.00
O21    O     0.32620   0.33820   0.98430   0.01267  Uiso   1.00
O22    O     0.23880   0.36760   0.03180   0.01267  Uiso   1.00
O23    O     0.45540   0.15260   0.02320   0.01267  Uiso   1.00
O24    O     0.43300   0.12670   0.08940   0.01267  Uiso   1.00
O25    O     0.45400   0.24330   0.68080   0.01267  Uiso   1.00
O26    O     0.60060   0.28360   0.69860   0.01267  Uiso   1.00
O27    O     0.75950   0.18770   0.33680   0.01267  Uiso   1.00
O28    O     0.77800   0.27730   0.32900   0.01267  Uiso   1.00
O29    O     0.81970   0.29700   0.51770   0.01267  Uiso   1.00
O30    O     0.85290   0.29710   0.58810   0.01267  Uiso   1.00
O31    O     0.46900   0.20400   0.48520   0.01267  Uiso   1.00
O32    O     0.37260   0.24730   0.51950   0.01267  Uiso   1.00
O33    O     0.64990   0.38810   0.44570   0.01267  Uiso   1.00
O34    O     0.56760   0.35170   0.49860   0.01267  Uiso   1.00
O35    O     0.67480   0.11400   0.48220   0.01267  Uiso   1.00
O36    O     0.69460   0.16530   0.53910   0.01267  Uiso   1.00
O37    O     0.06800   0.36220   0.22990   0.01267  Uiso   1.00
O38    O     0.96110   0.30370   0.26120   0.01267  Uiso   1.00
O39    O     0.43060   0.63620   0.22080   0.01267  Uiso   1.00
O40    O     0.55320   0.69470   0.24200   0.01267  Uiso   1.00
O41    O     0.67170   0.38480   0.32600   0.01267  Uiso   1.00
O42    O     0.64840   0.46270   0.31560   0.01267  Uiso   1.00
O43    O     0.92010   0.50580   0.14920   0.01267  Uiso   1.00
O44    O     0.84410   0.55770   0.18640   0.01267  Uiso   1.00
O45    O     0.61180   0.41740   0.21140   0.01267  Uiso   1.00
O46    O     0.51990   0.45930   0.17160   0.01267  Uiso   1.00
O47    O     0.86280   0.54010   0.30160   0.01267  Uiso   1.00
O48    O     0.85280   0.62070   0.29590   0.01267  Uiso   1.00
O49    O     0.10930   0.28080   0.32390   0.01267  Uiso   1.00
O50    O     0.96360   0.23300   0.33720   0.01267  Uiso   1.00
O51    O     0.25600   0.27310   0.69550   0.01267  Uiso   1.00
O52    O     0.25780   0.18530   0.68350   0.01267  Uiso   1.00
O53    O     0.88600   0.17450   0.48400   0.01267  Uiso   1.00
O54    O     0.95940   0.20950   0.54140   0.01267  Uiso   1.00
O55    O     0.33090   0.32250   0.44580   0.01267  Uiso   1.00
O56    O     0.26500   0.33900   0.50940   0.01267  Uiso   1.00
O57    O     0.17380   0.16180   0.48430   0.01267  Uiso   1.00
O58    O     0.26120   0.13240   0.53180   0.01267  Uiso   1.00
O59    O     0.04460   0.34740   0.52320   0.01267  Uiso   1.00
O60    O     0.06700   0.37330   0.58940   0.01267  Uiso   1.00
O61    O     0.04600   0.25670   0.18080   0.01267  Uiso   1.00
O62    O     0.89940   0.21640   0.19860   0.01267  Uiso   1.00
O63    O     0.74050   0.31230   0.83680   0.01267  Uiso   1.00
O64    O     0.72200   0.22270   0.82900   0.01267  Uiso   1.00
O65    O     0.68030   0.20300   0.01770   0.01267  Uiso   1.00
O66    O     0.64710   0.20290   0.08810   0.01267  Uiso   1.00
O67    O     0.03100   0.29600   0.98520   0.01267  Uiso   1.00
O68    O     0.12740   0.25270   0.01950   0.01267  Uiso   1.00
O69    O     0.85010   0.11190   0.94570   0.01267  Uiso   1.00
O70    O     0.93240   0.14830   0.99860   0.01267  Uiso   1.00
O71    O     0.82520   0.38600   0.98220   0.01267  Uiso   1.00
O72    O     0.80540   0.33470   0.03910   0.01267  Uiso   1.00
O73    O     0.56800   0.86220   0.27010   0.01267  Uiso   1.00
O74    O     0.46110   0.80370   0.23880   0.01267  Uiso   1.00
O75    O     0.93060   0.13620   0.27920   0.01267  Uiso   1.00
O76    O     0.05320   0.19470   0.25800   0.01267  Uiso   1.00
O77    O     0.17170   0.88480   0.17400   0.01267  Uiso   1.00
O78    O     0.14840   0.96270   0.18440   0.01267  Uiso   1.00
O79    O     0.42010   0.00580   0.35080   0.01267  Uiso   1.00
O80    O     0.34410   0.05770   0.31360   0.01267  Uiso   1.00
O81    O     0.11180   0.91740   0.28860   0.01267  Uiso   1.00
O82    O     0.01990   0.95930   0.32840   0.01267  Uiso   1.00
O83    O     0.36280   0.04010   0.19840   0.01267  Uiso   1.00
O84    O     0.35280   0.12070   0.20410   0.01267  Uiso   1.00
O85    O     0.60930   0.78080   0.17610   0.01267  Uiso   1.00
O86    O     0.46360   0.73300   0.16280   0.01267  Uiso   1.00
O87    O     0.75600   0.77310   0.80450   0.01267  Uiso   1.00
O88    O     0.75780   0.68530   0.81650   0.01267  Uiso   1.00
O89    O     0.38600   0.67450   0.01600   0.01267  Uiso   1.00
O90    O     0.45940   0.70950   0.95860   0.01267  Uiso   1.00
O91    O     0.83090   0.82250   0.05420   0.01267  Uiso   1.00
O92    O     0.76500   0.83900   0.99060   0.01267  Uiso   1.00
O93    O     0.67380   0.66180   0.01570   0.01267  Uiso   1.00
O94    O     0.76120   0.63240   0.96820   0.01267  Uiso   1.00
O95    O     0.54460   0.84740   0.97680   0.01267  Uiso   1.00
O96    O     0.56700   0.87330   0.91060   0.01267  Uiso   1.00
O97    O     0.54600   0.75670   0.31920   0.01267  Uiso   1.00
O98    O     0.39940   0.71640   0.30140   0.01267  Uiso   1.00
O99    O     0.24050   0.81230   0.66320   0.01267  Uiso   1.00
O100   O     0.22200   0.72270   0.67100   0.01267  Uiso   1.00
O101   O     0.18030   0.70300   0.48230   0.01267  Uiso   1.00
O102   O     0.14710   0.70290   0.41190   0.01267  Uiso   1.00
O103   O     0.53100   0.79600   0.51480   0.01267  Uiso   1.00
O104   O     0.62740   0.75270   0.48050   0.01267  Uiso   1.00
O105   O     0.35010   0.61190   0.55430   0.01267  Uiso   1.00
O106   O     0.43240   0.64830   0.50140   0.01267  Uiso   1.00
O107   O     0.32520   0.88600   0.51780   0.01267  Uiso   1.00
O108   O     0.30540   0.83470   0.46090   0.01267  Uiso   1.00
O109   O     0.93200   0.63780   0.77010   0.01267  Uiso   1.00
O110   O     0.03890   0.69630   0.73880   0.01267  Uiso   1.00
O111   O     0.56940   0.36380   0.77920   0.01267  Uiso   1.00
O112   O     0.44680   0.30530   0.75800   0.01267  Uiso   1.00
O113   O     0.32830   0.61520   0.67400   0.01267  Uiso   1.00
O114   O     0.35160   0.53730   0.68440   0.01267  Uiso   1.00
O115   O     0.07990   0.49420   0.85080   0.01267  Uiso   1.00
O116   O     0.15590   0.44230   0.81360   0.01267  Uiso   1.00
O117   O     0.38820   0.58260   0.78860   0.01267  Uiso   1.00
O118   O     0.48010   0.54070   0.82840   0.01267  Uiso   1.00
O119   O     0.13720   0.45990   0.69840   0.01267  Uiso   1.00
O120   O     0.14720   0.37930   0.70410   0.01267  Uiso   1.00
O121   O     0.89070   0.71920   0.67610   0.01267  Uiso   1.00
O122   O     0.03640   0.76700   0.66280   0.01267  Uiso   1.00
O123   O     0.74400   0.72690   0.30450   0.01267  Uiso   1.00
O124   O     0.74220   0.81470   0.31650   0.01267  Uiso   1.00
O125   O     0.11400   0.82550   0.51600   0.01267  Uiso   1.00
O126   O     0.04060   0.79050   0.45860   0.01267  Uiso   1.00
O127   O     0.66910   0.67750   0.55420   0.01267  Uiso   1.00
O128   O     0.73500   0.66100   0.49060   0.01267  Uiso   1.00
O129   O     0.82620   0.83820   0.51570   0.01267  Uiso   1.00
O130   O     0.73880   0.86760   0.46820   0.01267  Uiso   1.00
O131   O     0.95540   0.65260   0.47680   0.01267  Uiso   1.00
O132   O     0.93300   0.62670   0.41060   0.01267  Uiso   1.00
O133   O     0.95400   0.74330   0.81920   0.01267  Uiso   1.00
O134   O     0.10060   0.78360   0.80140   0.01267  Uiso   1.00
O135   O     0.25950   0.68770   0.16320   0.01267  Uiso   1.00
O136   O     0.27800   0.77730   0.17100   0.01267  Uiso   1.00
O137   O     0.31970   0.79700   0.98230   0.01267  Uiso   1.00
O138   O     0.35290   0.79710   0.91190   0.01267  Uiso   1.00
O139   O     0.96900   0.70400   0.01480   0.01267  Uiso   1.00
O140   O     0.87260   0.74730   0.98050   0.01267  Uiso   1.00
O141   O     0.14990   0.88810   0.05430   0.01267  Uiso   1.00
O142   O     0.06760   0.85170   0.00140   0.01267  Uiso   1.00
O143   O     0.17480   0.61400   0.01780   0.01267  Uiso   1.00
O144   O     0.19460   0.66530   0.96090   0.01267  Uiso   1.00
