data_XEGKUR_clean
_audit_creation_date              2014-07-02
_audit_creation_method            'Materials Studio'
_symmetry_space_group_name_H-M    'P1'
_symmetry_Int_Tables_number       1
_symmetry_cell_setting            triclinic
loop_
_symmetry_equiv_pos_as_xyz
  x,y,z
_cell_length_a                    15.3090
_cell_length_b                    18.7753
_cell_length_c                    18.7753
_cell_angle_alpha                 107.9840
_cell_angle_beta                  95.8221
_cell_angle_gamma                 95.8221
loop_
_atom_site_label
_atom_site_type_symbol
_atom_site_fract_x
_atom_site_fract_y
_atom_site_fract_z
_atom_site_U_iso_or_equiv
_atom_site_adp_type
_atom_site_occupancy
Gd1    Gd    0.61739   0.56668   0.01534   0.01267  Uiso   1.00
Gd2    Gd    0.88261   0.98466   0.43332   0.01267  Uiso   1.00
Gd3    Gd    0.38261   0.43332   0.98466   0.01267  Uiso   1.00
Gd4    Gd    0.11739   0.01534   0.56668   0.01267  Uiso   1.00
H1     H     0.50850   0.30160   0.11060   0.01267  Uiso   1.00
H2     H     0.74120   0.43820   0.15880   0.01267  Uiso   1.00
H3     H     0.75580   0.20470   0.40190   0.01267  Uiso   1.00
H4     H     0.81360   0.06830   0.20510   0.01267  Uiso   1.00
H5     H     0.47050   0.75470   0.18370   0.01267  Uiso   1.00
H6     H     0.34170   0.55160   0.15660   0.01267  Uiso   1.00
H7     H     0.99150   0.88940   0.69840   0.01267  Uiso   1.00
H8     H     0.75880   0.84120   0.56180   0.01267  Uiso   1.00
H9     H     0.74420   0.59810   0.79530   0.01267  Uiso   1.00
H10    H     0.68640   0.79490   0.93170   0.01267  Uiso   1.00
H11    H     0.02950   0.81630   0.24530   0.01267  Uiso   1.00
H12    H     0.15830   0.84340   0.44840   0.01267  Uiso   1.00
H13    H     0.49150   0.69840   0.88940   0.01267  Uiso   1.00
H14    H     0.25880   0.56180   0.84120   0.01267  Uiso   1.00
H15    H     0.24420   0.79530   0.59810   0.01267  Uiso   1.00
H16    H     0.18640   0.93170   0.79490   0.01267  Uiso   1.00
H17    H     0.52950   0.24530   0.81630   0.01267  Uiso   1.00
H18    H     0.65830   0.44840   0.84340   0.01267  Uiso   1.00
H19    H     0.00850   0.11060   0.30160   0.01267  Uiso   1.00
H20    H     0.24120   0.15880   0.43820   0.01267  Uiso   1.00
H21    H     0.25580   0.40190   0.20470   0.01267  Uiso   1.00
H22    H     0.31360   0.20510   0.06830   0.01267  Uiso   1.00
H23    H     0.97050   0.18370   0.75470   0.01267  Uiso   1.00
H24    H     0.84170   0.15660   0.55160   0.01267  Uiso   1.00
C1     C     0.57790   0.42380   0.08600   0.01267  Uiso   1.00
C2     C     0.62060   0.37810   0.12730   0.01267  Uiso   1.00
C3     C     0.56830   0.31280   0.13040   0.01267  Uiso   1.00
C4     C     0.60900   0.26570   0.16390   0.01267  Uiso   1.00
C5     C     0.69830   0.27910   0.19570   0.01267  Uiso   1.00
C6     C     0.74450   0.34420   0.19220   0.01267  Uiso   1.00
C7     C     0.70690   0.39450   0.15890   0.01267  Uiso   1.00
C8     C     0.73360   0.23030   0.23690   0.01267  Uiso   1.00
C9     C     0.72990   0.24190   0.31110   0.01267  Uiso   1.00
C10    C     0.75790   0.19300   0.35020   0.01267  Uiso   1.00
C11    C     0.78920   0.12590   0.30970   0.01267  Uiso   1.00
C12    C     0.79340   0.11200   0.23300   0.01267  Uiso   1.00
C13    C     0.76860   0.16160   0.19920   0.01267  Uiso   1.00
C14    C     0.81800   0.07540   0.35000   0.01267  Uiso   1.00
C15    C     0.48290   0.61370   0.11150   0.01267  Uiso   1.00
C16    C     0.41830   0.64880   0.16300   0.01267  Uiso   1.00
C17    C     0.42300   0.72470   0.19210   0.01267  Uiso   1.00
C18    C     0.36120   0.75990   0.23350   0.01267  Uiso   1.00
C19    C     0.28620   0.71610   0.24550   0.01267  Uiso   1.00
C20    C     0.28180   0.63810   0.21890   0.01267  Uiso   1.00
C21    C     0.34670   0.60410   0.17610   0.01267  Uiso   1.00
C22    C     0.92210   0.91400   0.57620   0.01267  Uiso   1.00
C23    C     0.87940   0.87270   0.62190   0.01267  Uiso   1.00
C24    C     0.93170   0.86960   0.68720   0.01267  Uiso   1.00
C25    C     0.89100   0.83610   0.73430   0.01267  Uiso   1.00
C26    C     0.80170   0.80430   0.72090   0.01267  Uiso   1.00
C27    C     0.75550   0.80780   0.65580   0.01267  Uiso   1.00
C28    C     0.79310   0.84110   0.60550   0.01267  Uiso   1.00
C29    C     0.76640   0.76310   0.76970   0.01267  Uiso   1.00
C30    C     0.77010   0.68890   0.75810   0.01267  Uiso   1.00
C31    C     0.74210   0.64980   0.80700   0.01267  Uiso   1.00
C32    C     0.71080   0.69030   0.87410   0.01267  Uiso   1.00
C33    C     0.70660   0.76700   0.88800   0.01267  Uiso   1.00
C34    C     0.73140   0.80080   0.83840   0.01267  Uiso   1.00
C35    C     0.68200   0.65000   0.92460   0.01267  Uiso   1.00
C36    C     0.01710   0.88850   0.38630   0.01267  Uiso   1.00
C37    C     0.08170   0.83700   0.35120   0.01267  Uiso   1.00
C38    C     0.07700   0.80790   0.27530   0.01267  Uiso   1.00
C39    C     0.13880   0.76650   0.24010   0.01267  Uiso   1.00
C40    C     0.21380   0.75450   0.28390   0.01267  Uiso   1.00
C41    C     0.21820   0.78110   0.36190   0.01267  Uiso   1.00
C42    C     0.15330   0.82390   0.39590   0.01267  Uiso   1.00
C43    C     0.42210   0.57620   0.91400   0.01267  Uiso   1.00
C44    C     0.37940   0.62190   0.87270   0.01267  Uiso   1.00
C45    C     0.43170   0.68720   0.86960   0.01267  Uiso   1.00
C46    C     0.39100   0.73430   0.83610   0.01267  Uiso   1.00
C47    C     0.30170   0.72090   0.80430   0.01267  Uiso   1.00
C48    C     0.25550   0.65580   0.80780   0.01267  Uiso   1.00
C49    C     0.29310   0.60550   0.84110   0.01267  Uiso   1.00
C50    C     0.26640   0.76970   0.76310   0.01267  Uiso   1.00
C51    C     0.27010   0.75810   0.68890   0.01267  Uiso   1.00
C52    C     0.24210   0.80700   0.64980   0.01267  Uiso   1.00
C53    C     0.21080   0.87410   0.69030   0.01267  Uiso   1.00
C54    C     0.20660   0.88800   0.76700   0.01267  Uiso   1.00
C55    C     0.23140   0.83840   0.80080   0.01267  Uiso   1.00
C56    C     0.18200   0.92460   0.65000   0.01267  Uiso   1.00
C57    C     0.51710   0.38630   0.88850   0.01267  Uiso   1.00
C58    C     0.58170   0.35120   0.83700   0.01267  Uiso   1.00
C59    C     0.57700   0.27530   0.80790   0.01267  Uiso   1.00
C60    C     0.63880   0.24010   0.76650   0.01267  Uiso   1.00
C61    C     0.71380   0.28390   0.75450   0.01267  Uiso   1.00
C62    C     0.71820   0.36190   0.78110   0.01267  Uiso   1.00
C63    C     0.65330   0.39590   0.82390   0.01267  Uiso   1.00
C64    C     0.07790   0.08600   0.42380   0.01267  Uiso   1.00
C65    C     0.12060   0.12730   0.37810   0.01267  Uiso   1.00
C66    C     0.06830   0.13040   0.31280   0.01267  Uiso   1.00
C67    C     0.10900   0.16390   0.26570   0.01267  Uiso   1.00
C68    C     0.19830   0.19570   0.27910   0.01267  Uiso   1.00
C69    C     0.24450   0.19220   0.34420   0.01267  Uiso   1.00
C70    C     0.20690   0.15890   0.39450   0.01267  Uiso   1.00
C71    C     0.23360   0.23690   0.23030   0.01267  Uiso   1.00
C72    C     0.22990   0.31110   0.24190   0.01267  Uiso   1.00
C73    C     0.25790   0.35020   0.19300   0.01267  Uiso   1.00
C74    C     0.28920   0.30970   0.12590   0.01267  Uiso   1.00
C75    C     0.29340   0.23300   0.11200   0.01267  Uiso   1.00
C76    C     0.26860   0.19920   0.16160   0.01267  Uiso   1.00
C77    C     0.31800   0.35000   0.07540   0.01267  Uiso   1.00
C78    C     0.98290   0.11150   0.61370   0.01267  Uiso   1.00
C79    C     0.91830   0.16300   0.64880   0.01267  Uiso   1.00
C80    C     0.92300   0.19210   0.72470   0.01267  Uiso   1.00
C81    C     0.86120   0.23350   0.75990   0.01267  Uiso   1.00
C82    C     0.78620   0.24550   0.71610   0.01267  Uiso   1.00
C83    C     0.78180   0.21890   0.63810   0.01267  Uiso   1.00
C84    C     0.84670   0.17610   0.60410   0.01267  Uiso   1.00
N1     N     0.54950   0.19800   0.16260   0.01267  Uiso   1.00
N2     N     0.83790   0.36470   0.22690   0.01267  Uiso   1.00
N3     N     0.69090   0.30780   0.35720   0.01267  Uiso   1.00
N4     N     0.77660   0.14250   0.11810   0.01267  Uiso   1.00
N5     N     0.37660   0.84460   0.26460   0.01267  Uiso   1.00
N6     N     0.20530   0.60060   0.23760   0.01267  Uiso   1.00
N7     N     0.95050   0.83740   0.80200   0.01267  Uiso   1.00
N8     N     0.66210   0.77310   0.63530   0.01267  Uiso   1.00
N9     N     0.80910   0.64280   0.69220   0.01267  Uiso   1.00
N10    N     0.72340   0.88190   0.85750   0.01267  Uiso   1.00
N11    N     0.12340   0.73540   0.15540   0.01267  Uiso   1.00
N12    N     0.29470   0.76240   0.39940   0.01267  Uiso   1.00
N13    N     0.45050   0.80200   0.83740   0.01267  Uiso   1.00
N14    N     0.16210   0.63530   0.77310   0.01267  Uiso   1.00
N15    N     0.30910   0.69220   0.64280   0.01267  Uiso   1.00
N16    N     0.22340   0.85750   0.88190   0.01267  Uiso   1.00
N17    N     0.62340   0.15540   0.73540   0.01267  Uiso   1.00
N18    N     0.79470   0.39940   0.76240   0.01267  Uiso   1.00
N19    N     0.04950   0.16260   0.19800   0.01267  Uiso   1.00
N20    N     0.33790   0.22690   0.36470   0.01267  Uiso   1.00
N21    N     0.19090   0.35720   0.30780   0.01267  Uiso   1.00
N22    N     0.27660   0.11810   0.14250   0.01267  Uiso   1.00
N23    N     0.87660   0.26460   0.84460   0.01267  Uiso   1.00
N24    N     0.70530   0.23760   0.60060   0.01267  Uiso   1.00
O1     O     0.62490   0.48460   0.09120   0.01267  Uiso   1.00
O2     O     0.50180   0.40010   0.05250   0.01267  Uiso   1.00
O3     O     0.82890   0.09990   0.42270   0.01267  Uiso   1.00
O4     O     0.83050   0.01070   0.31290   0.01267  Uiso   1.00
O5     O     0.47430   0.19980   0.16480   0.01267  Uiso   1.00
O6     O     0.58470   0.13690   0.14370   0.01267  Uiso   1.00
O7     O     0.86640   0.42870   0.24390   0.01267  Uiso   1.00
O8     O     0.87950   0.31940   0.24040   0.01267  Uiso   1.00
O9     O     0.65000   0.30060   0.40840   0.01267  Uiso   1.00
O10    O     0.71480   0.36970   0.34470   0.01267  Uiso   1.00
O11    O     0.78120   0.19370   0.09130   0.01267  Uiso   1.00
O12    O     0.78010   0.07820   0.08400   0.01267  Uiso   1.00
O13    O     0.46180   0.54650   0.06770   0.01267  Uiso   1.00
O14    O     0.55330   0.65270   0.11450   0.01267  Uiso   1.00
O15    O     0.44490   0.87750   0.25950   0.01267  Uiso   1.00
O16    O     0.35100   0.87390   0.32490   0.01267  Uiso   1.00
O17    O     0.13030   0.61020   0.23020   0.01267  Uiso   1.00
O18    O     0.21400   0.53500   0.22640   0.01267  Uiso   1.00
O19    O     0.87510   0.90880   0.51540   0.01267  Uiso   1.00
O20    O     0.99820   0.94750   0.59990   0.01267  Uiso   1.00
O21    O     0.67110   0.57730   0.90010   0.01267  Uiso   1.00
O22    O     0.66950   0.68710   0.98930   0.01267  Uiso   1.00
O23    O     0.02570   0.83520   0.80020   0.01267  Uiso   1.00
O24    O     0.91530   0.85630   0.86310   0.01267  Uiso   1.00
O25    O     0.63360   0.75610   0.57130   0.01267  Uiso   1.00
O26    O     0.62050   0.75960   0.68060   0.01267  Uiso   1.00
O27    O     0.85000   0.59160   0.69940   0.01267  Uiso   1.00
O28    O     0.78520   0.65530   0.63030   0.01267  Uiso   1.00
O29    O     0.71880   0.90870   0.80630   0.01267  Uiso   1.00
O30    O     0.71990   0.91600   0.92180   0.01267  Uiso   1.00
O31    O     0.03820   0.93230   0.45350   0.01267  Uiso   1.00
O32    O     0.94670   0.88550   0.34730   0.01267  Uiso   1.00
O33    O     0.05510   0.74050   0.12250   0.01267  Uiso   1.00
O34    O     0.14900   0.67510   0.12610   0.01267  Uiso   1.00
O35    O     0.36970   0.76980   0.38980   0.01267  Uiso   1.00
O36    O     0.28600   0.77360   0.46500   0.01267  Uiso   1.00
O37    O     0.37510   0.51540   0.90880   0.01267  Uiso   1.00
O38    O     0.49820   0.59990   0.94750   0.01267  Uiso   1.00
O39    O     0.17110   0.90010   0.57730   0.01267  Uiso   1.00
O40    O     0.16950   0.98930   0.68710   0.01267  Uiso   1.00
O41    O     0.52570   0.80020   0.83520   0.01267  Uiso   1.00
O42    O     0.41530   0.86310   0.85630   0.01267  Uiso   1.00
O43    O     0.13360   0.57130   0.75610   0.01267  Uiso   1.00
O44    O     0.12050   0.68060   0.75960   0.01267  Uiso   1.00
O45    O     0.35000   0.69940   0.59160   0.01267  Uiso   1.00
O46    O     0.28520   0.63030   0.65530   0.01267  Uiso   1.00
O47    O     0.21880   0.80630   0.90870   0.01267  Uiso   1.00
O48    O     0.21990   0.92180   0.91600   0.01267  Uiso   1.00
O49    O     0.53820   0.45350   0.93230   0.01267  Uiso   1.00
O50    O     0.44670   0.34730   0.88550   0.01267  Uiso   1.00
O51    O     0.55510   0.12250   0.74050   0.01267  Uiso   1.00
O52    O     0.64900   0.12610   0.67510   0.01267  Uiso   1.00
O53    O     0.86970   0.38980   0.76980   0.01267  Uiso   1.00
O54    O     0.78600   0.46500   0.77360   0.01267  Uiso   1.00
O55    O     0.12490   0.09120   0.48460   0.01267  Uiso   1.00
O56    O     0.00180   0.05250   0.40010   0.01267  Uiso   1.00
O57    O     0.32890   0.42270   0.09990   0.01267  Uiso   1.00
O58    O     0.33050   0.31290   0.01070   0.01267  Uiso   1.00
O59    O     0.97430   0.16480   0.19980   0.01267  Uiso   1.00
O60    O     0.08470   0.14370   0.13690   0.01267  Uiso   1.00
O61    O     0.36640   0.24390   0.42870   0.01267  Uiso   1.00
O62    O     0.37950   0.24040   0.31940   0.01267  Uiso   1.00
O63    O     0.15000   0.40840   0.30060   0.01267  Uiso   1.00
O64    O     0.21480   0.34470   0.36970   0.01267  Uiso   1.00
O65    O     0.28120   0.09130   0.19370   0.01267  Uiso   1.00
O66    O     0.28010   0.08400   0.07820   0.01267  Uiso   1.00
O67    O     0.96180   0.06770   0.54650   0.01267  Uiso   1.00
O68    O     0.05330   0.11450   0.65270   0.01267  Uiso   1.00
O69    O     0.94490   0.25950   0.87750   0.01267  Uiso   1.00
O70    O     0.85100   0.32490   0.87390   0.01267  Uiso   1.00
O71    O     0.63030   0.23020   0.61020   0.01267  Uiso   1.00
O72    O     0.71400   0.22640   0.53500   0.01267  Uiso   1.00
