data_image0
_cell_length_a       31.379
_cell_length_b       31.379
_cell_length_c       12.684
_cell_angle_alpha    90
_cell_angle_beta     90
_cell_angle_gamma    120

_symmetry_space_group_name_H-M    "P 1"
_symmetry_int_tables_number       1

loop_
  _symmetry_equiv_pos_as_xyz
  'x, y, z'

loop_
  _atom_site_label
  _atom_site_occupancy
  _atom_site_fract_x
  _atom_site_fract_y
  _atom_site_fract_z
  _atom_site_thermal_displace_type
  _atom_site_B_iso_or_equiv
  _atom_site_type_symbol
  P1       1.0000 0.02432  0.65558  0.06306  Biso   1.000  P
  H1       1.0000 0.07970  0.67830  0.05780  Biso   1.000  H
  P2       1.0000 0.00639  0.56814  0.51438  Biso   1.000  P
  H2       1.0000 0.95660  0.55720  0.49620  Biso   1.000  H
  P3       1.0000 0.05156  0.52466  0.13039  Biso   1.000  P
  H3       1.0000 0.10010  0.54270  0.10720  Biso   1.000  H
  P4       1.0000 0.92985  0.52057  0.21770  Biso   1.000  P
  H4       1.0000 0.88290  0.49040  0.22410  Biso   1.000  H
  Be1      1.0000 0.00370  0.50650  0.33340  Biso   1.000  Be
  Be2      1.0000 0.98850  0.55447  0.02430  Biso   1.000  Be
  Be3      1.0000 0.04364  0.66982  0.57880  Biso   1.000  Be
  O1       1.0000 0.01016  0.64318  0.17745  Biso   1.000  O
  O2       1.0000 0.00287  0.61061  0.99360  Biso   1.000  O
  O3       1.0000 0.01291  0.69390  0.02263  Biso   1.000  O
  O4       1.0000 0.03901  0.62351  0.51610  Biso   1.000  O
  O5       1.0000 0.02157  0.54847  0.42250  Biso   1.000  O
  O6       1.0000 0.00768  0.54626  0.61890  Biso   1.000  O
  O7       1.0000 0.04878  0.52673  0.24900  Biso   1.000  O
  O8       1.0000 0.03706  0.55795  0.07470  Biso   1.000  O
  O9       1.0000 0.02500  0.47259  0.09020  Biso   1.000  O
  O10      1.0000 0.94090  0.52853  0.10110  Biso   1.000  O
  O11      1.0000 0.95352  0.49488  0.27230  Biso   1.000  O
  O12      1.0000 0.93862  0.56583  0.27630  Biso   1.000  O
  P5       1.0000 0.69099  0.98891  0.39639  Biso   1.000  P
  H5       1.0000 0.74637  0.01163  0.39113  Biso   1.000  H
  P6       1.0000 0.67306  0.90147  0.84771  Biso   1.000  P
  H6       1.0000 0.62327  0.89053  0.82953  Biso   1.000  H
  P7       1.0000 0.71823  0.85799  0.46372  Biso   1.000  P
  H7       1.0000 0.76677  0.87603  0.44053  Biso   1.000  H
  P8       1.0000 0.59652  0.85390  0.55103  Biso   1.000  P
  H8       1.0000 0.54957  0.82373  0.55743  Biso   1.000  H
  Be4      1.0000 0.67037  0.83983  0.66673  Biso   1.000  Be
  Be5      1.0000 0.65517  0.88780  0.35763  Biso   1.000  Be
  Be6      1.0000 0.71031  0.00315  0.91213  Biso   1.000  Be
  O13      1.0000 0.67683  0.97651  0.51078  Biso   1.000  O
  O14      1.0000 0.66954  0.94394  0.32693  Biso   1.000  O
  O15      1.0000 0.67958  0.02723  0.35596  Biso   1.000  O
  O16      1.0000 0.70568  0.95684  0.84943  Biso   1.000  O
  O17      1.0000 0.68824  0.88180  0.75583  Biso   1.000  O
  O18      1.0000 0.67435  0.87959  0.95223  Biso   1.000  O
  O19      1.0000 0.71545  0.86006  0.58233  Biso   1.000  O
  O20      1.0000 0.70373  0.89128  0.40803  Biso   1.000  O
  O21      1.0000 0.69167  0.80592  0.42353  Biso   1.000  O
  O22      1.0000 0.60757  0.86186  0.43443  Biso   1.000  O
  O23      1.0000 0.62019  0.82821  0.60563  Biso   1.000  O
  O24      1.0000 0.60529  0.89916  0.60963  Biso   1.000  O
  P9       1.0000 0.35765  0.32225  0.72973  Biso   1.000  P
  H9       1.0000 0.41303  0.34497  0.72447  Biso   1.000  H
  P10      1.0000 0.33972  0.23481  0.18105  Biso   1.000  P
  H10      1.0000 0.28993  0.22387  0.16287  Biso   1.000  H
  P11      1.0000 0.38489  0.19133  0.79706  Biso   1.000  P
  H11      1.0000 0.43343  0.20937  0.77387  Biso   1.000  H
  P12      1.0000 0.26318  0.18724  0.88437  Biso   1.000  P
  H12      1.0000 0.21623  0.15707  0.89077  Biso   1.000  H
  Be7      1.0000 0.33703  0.17317  0.00007  Biso   1.000  Be
  Be8      1.0000 0.32183  0.22114  0.69097  Biso   1.000  Be
  Be9      1.0000 0.37697  0.33649  0.24547  Biso   1.000  Be
  O25      1.0000 0.34349  0.30985  0.84412  Biso   1.000  O
  O26      1.0000 0.33620  0.27728  0.66027  Biso   1.000  O
  O27      1.0000 0.34624  0.36057  0.68930  Biso   1.000  O
  O28      1.0000 0.37234  0.29018  0.18277  Biso   1.000  O
  O29      1.0000 0.35490  0.21514  0.08917  Biso   1.000  O
  O30      1.0000 0.34101  0.21293  0.28557  Biso   1.000  O
  O31      1.0000 0.38211  0.19340  0.91567  Biso   1.000  O
  O32      1.0000 0.37039  0.22462  0.74137  Biso   1.000  O
  O33      1.0000 0.35833  0.13926  0.75687  Biso   1.000  O
  O34      1.0000 0.27423  0.19520  0.76777  Biso   1.000  O
  O35      1.0000 0.28685  0.16155  0.93897  Biso   1.000  O
  O36      1.0000 0.27195  0.23250  0.94297  Biso   1.000  O
  P13      1.0000 0.34442  0.36874  0.06306  Biso   1.000  P
  H13      1.0000 0.32170  0.40140  0.05780  Biso   1.000  H
  P14      1.0000 0.43186  0.43825  0.51438  Biso   1.000  P
  H14      1.0000 0.44280  0.39940  0.49620  Biso   1.000  H
  P15      1.0000 0.47534  0.52690  0.13039  Biso   1.000  P
  H15      1.0000 0.45730  0.55740  0.10720  Biso   1.000  H
  P16      1.0000 0.47943  0.40928  0.21770  Biso   1.000  P
  H16      1.0000 0.50960  0.39250  0.22410  Biso   1.000  H
  Be10     1.0000 0.49350  0.49720  0.33340  Biso   1.000  Be
  Be11     1.0000 0.44553  0.43403  0.02430  Biso   1.000  Be
  Be12     1.0000 0.33018  0.37382  0.57880  Biso   1.000  Be
  O37      1.0000 0.35682  0.36698  0.17745  Biso   1.000  O
  O38      1.0000 0.38939  0.39226  0.99360  Biso   1.000  O
  O39      1.0000 0.30610  0.31901  0.02263  Biso   1.000  O
  O40      1.0000 0.37649  0.41550  0.51610  Biso   1.000  O
  O41      1.0000 0.45153  0.47310  0.42250  Biso   1.000  O
  O42      1.0000 0.45374  0.46142  0.61890  Biso   1.000  O
  O43      1.0000 0.47327  0.52205  0.24900  Biso   1.000  O
  O44      1.0000 0.44205  0.47911  0.07470  Biso   1.000  O
  O45      1.0000 0.52741  0.55241  0.09020  Biso   1.000  O
  O46      1.0000 0.47147  0.41237  0.10110  Biso   1.000  O
  O47      1.0000 0.50512  0.45864  0.27230  Biso   1.000  O
  O48      1.0000 0.43417  0.37279  0.27630  Biso   1.000  O
  P17      1.0000 0.01109  0.70207  0.39639  Biso   1.000  P
  H17      1.0000 0.98837  0.73473  0.39113  Biso   1.000  H
  P18      1.0000 0.09853  0.77158  0.84771  Biso   1.000  P
  H18      1.0000 0.10947  0.73273  0.82953  Biso   1.000  H
  P19      1.0000 0.14201  0.86023  0.46372  Biso   1.000  P
  H19      1.0000 0.12397  0.89073  0.44053  Biso   1.000  H
  P20      1.0000 0.14610  0.74261  0.55103  Biso   1.000  P
  H20      1.0000 0.17627  0.72583  0.55743  Biso   1.000  H
  Be13     1.0000 0.16017  0.83053  0.66673  Biso   1.000  Be
  Be14     1.0000 0.11220  0.76736  0.35763  Biso   1.000  Be
  Be15     1.0000 0.99685  0.70715  0.91213  Biso   1.000  Be
  O49      1.0000 0.02349  0.70031  0.51078  Biso   1.000  O
  O50      1.0000 0.05606  0.72559  0.32693  Biso   1.000  O
  O51      1.0000 0.97277  0.65234  0.35596  Biso   1.000  O
  O52      1.0000 0.04316  0.74883  0.84943  Biso   1.000  O
  O53      1.0000 0.11820  0.80643  0.75583  Biso   1.000  O
  O54      1.0000 0.12041  0.79475  0.95223  Biso   1.000  O
  O55      1.0000 0.13994  0.85538  0.58233  Biso   1.000  O
  O56      1.0000 0.10872  0.81244  0.40803  Biso   1.000  O
  O57      1.0000 0.19408  0.88574  0.42353  Biso   1.000  O
  O58      1.0000 0.13814  0.74570  0.43443  Biso   1.000  O
  O59      1.0000 0.17179  0.79197  0.60563  Biso   1.000  O
  O60      1.0000 0.10084  0.70612  0.60963  Biso   1.000  O
  P21      1.0000 0.67775  0.03541  0.72973  Biso   1.000  P
  H21      1.0000 0.65503  0.06807  0.72447  Biso   1.000  H
  P22      1.0000 0.76519  0.10492  0.18105  Biso   1.000  P
  H22      1.0000 0.77613  0.06607  0.16287  Biso   1.000  H
  P23      1.0000 0.80867  0.19357  0.79706  Biso   1.000  P
  H23      1.0000 0.79063  0.22407  0.77387  Biso   1.000  H
  P24      1.0000 0.81276  0.07595  0.88437  Biso   1.000  P
  H24      1.0000 0.84293  0.05917  0.89077  Biso   1.000  H
  Be16     1.0000 0.82683  0.16387  0.00007  Biso   1.000  Be
  Be17     1.0000 0.77886  0.10070  0.69097  Biso   1.000  Be
  Be18     1.0000 0.66351  0.04049  0.24547  Biso   1.000  Be
  O61      1.0000 0.69015  0.03365  0.84412  Biso   1.000  O
  O62      1.0000 0.72272  0.05893  0.66027  Biso   1.000  O
  O63      1.0000 0.63943  0.98568  0.68930  Biso   1.000  O
  O64      1.0000 0.70982  0.08217  0.18277  Biso   1.000  O
  O65      1.0000 0.78486  0.13977  0.08917  Biso   1.000  O
  O66      1.0000 0.78707  0.12809  0.28557  Biso   1.000  O
  O67      1.0000 0.80660  0.18872  0.91567  Biso   1.000  O
  O68      1.0000 0.77538  0.14578  0.74137  Biso   1.000  O
  O69      1.0000 0.86074  0.21908  0.75687  Biso   1.000  O
  O70      1.0000 0.80480  0.07904  0.76777  Biso   1.000  O
  O71      1.0000 0.83845  0.12531  0.93897  Biso   1.000  O
  O72      1.0000 0.76750  0.03946  0.94297  Biso   1.000  O
  P25      1.0000 0.63126  0.97568  0.06306  Biso   1.000  P
  H25      1.0000 0.59860  0.92030  0.05780  Biso   1.000  H
  P26      1.0000 0.56175  0.99361  0.51438  Biso   1.000  P
  H26      1.0000 0.60060  0.04340  0.49620  Biso   1.000  H
  P27      1.0000 0.47310  0.94844  0.13039  Biso   1.000  P
  H27      1.0000 0.44260  0.89990  0.10720  Biso   1.000  H
  P28      1.0000 0.59072  0.07015  0.21770  Biso   1.000  P
  H28      1.0000 0.60750  0.11710  0.22410  Biso   1.000  H
  Be19     1.0000 0.50280  0.99630  0.33340  Biso   1.000  Be
  Be20     1.0000 0.56597  0.01150  0.02430  Biso   1.000  Be
  Be21     1.0000 0.62618  0.95636  0.57880  Biso   1.000  Be
  O73      1.0000 0.63302  0.98984  0.17745  Biso   1.000  O
  O74      1.0000 0.60774  0.99713  0.99360  Biso   1.000  O
  O75      1.0000 0.68099  0.98709  0.02263  Biso   1.000  O
  O76      1.0000 0.58450  0.96099  0.51610  Biso   1.000  O
  O77      1.0000 0.52690  0.97843  0.42250  Biso   1.000  O
  O78      1.0000 0.53858  0.99232  0.61890  Biso   1.000  O
  O79      1.0000 0.47795  0.95122  0.24900  Biso   1.000  O
  O80      1.0000 0.52089  0.96294  0.07470  Biso   1.000  O
  O81      1.0000 0.44759  0.97500  0.09020  Biso   1.000  O
  O82      1.0000 0.58763  0.05910  0.10110  Biso   1.000  O
  O83      1.0000 0.54136  0.04648  0.27230  Biso   1.000  O
  O84      1.0000 0.62721  0.06138  0.27630  Biso   1.000  O
  P29      1.0000 0.29793  0.30901  0.39639  Biso   1.000  P
  H29      1.0000 0.26527  0.25363  0.39113  Biso   1.000  H
  P30      1.0000 0.22842  0.32694  0.84771  Biso   1.000  P
  H30      1.0000 0.26727  0.37673  0.82953  Biso   1.000  H
  P31      1.0000 0.13977  0.28177  0.46372  Biso   1.000  P
  H31      1.0000 0.10927  0.23323  0.44053  Biso   1.000  H
  P32      1.0000 0.25739  0.40348  0.55103  Biso   1.000  P
  H32      1.0000 0.27417  0.45043  0.55743  Biso   1.000  H
  Be22     1.0000 0.16947  0.32963  0.66673  Biso   1.000  Be
  Be23     1.0000 0.23264  0.34483  0.35763  Biso   1.000  Be
  Be24     1.0000 0.29285  0.28969  0.91213  Biso   1.000  Be
  O85      1.0000 0.29969  0.32317  0.51078  Biso   1.000  O
  O86      1.0000 0.27441  0.33046  0.32693  Biso   1.000  O
  O87      1.0000 0.34766  0.32042  0.35596  Biso   1.000  O
  O88      1.0000 0.25117  0.29432  0.84943  Biso   1.000  O
  O89      1.0000 0.19357  0.31176  0.75583  Biso   1.000  O
  O90      1.0000 0.20525  0.32565  0.95223  Biso   1.000  O
  O91      1.0000 0.14462  0.28455  0.58233  Biso   1.000  O
  O92      1.0000 0.18756  0.29627  0.40803  Biso   1.000  O
  O93      1.0000 0.11426  0.30833  0.42353  Biso   1.000  O
  O94      1.0000 0.25430  0.39243  0.43443  Biso   1.000  O
  O95      1.0000 0.20803  0.37981  0.60563  Biso   1.000  O
  O96      1.0000 0.29388  0.39471  0.60963  Biso   1.000  O
  P33      1.0000 0.96459  0.64235  0.72973  Biso   1.000  P
  H33      1.0000 0.93193  0.58697  0.72447  Biso   1.000  H
  P34      1.0000 0.89508  0.66028  0.18105  Biso   1.000  P
  H34      1.0000 0.93393  0.71007  0.16287  Biso   1.000  H
  P35      1.0000 0.80643  0.61511  0.79706  Biso   1.000  P
  H35      1.0000 0.77593  0.56657  0.77387  Biso   1.000  H
  P36      1.0000 0.92405  0.73682  0.88437  Biso   1.000  P
  H36      1.0000 0.94083  0.78377  0.89077  Biso   1.000  H
  Be25     1.0000 0.83613  0.66297  0.00007  Biso   1.000  Be
  Be26     1.0000 0.89930  0.67817  0.69097  Biso   1.000  Be
  Be27     1.0000 0.95951  0.62303  0.24547  Biso   1.000  Be
  O97      1.0000 0.96635  0.65651  0.84412  Biso   1.000  O
  O98      1.0000 0.94107  0.66380  0.66027  Biso   1.000  O
  O99      1.0000 0.01432  0.65376  0.68930  Biso   1.000  O
  O100     1.0000 0.91783  0.62766  0.18277  Biso   1.000  O
  O101     1.0000 0.86023  0.64510  0.08917  Biso   1.000  O
  O102     1.0000 0.87191  0.65899  0.28557  Biso   1.000  O
  O103     1.0000 0.81128  0.61789  0.91567  Biso   1.000  O
  O104     1.0000 0.85422  0.62961  0.74137  Biso   1.000  O
  O105     1.0000 0.78092  0.64167  0.75687  Biso   1.000  O
  O106     1.0000 0.92096  0.72577  0.76777  Biso   1.000  O
  O107     1.0000 0.87469  0.71315  0.93897  Biso   1.000  O
  O108     1.0000 0.96054  0.72805  0.94297  Biso   1.000  O
  P37      1.0000 0.97568  0.34442  0.93694  Biso   1.000  P
  H37      1.0000 0.92030  0.32170  0.94220  Biso   1.000  H
  P38      1.0000 0.99361  0.43186  0.48562  Biso   1.000  P
  H38      1.0000 0.04340  0.44280  0.50380  Biso   1.000  H
  P39      1.0000 0.94844  0.47534  0.86961  Biso   1.000  P
  H39      1.0000 0.89990  0.45730  0.89280  Biso   1.000  H
  P40      1.0000 0.07015  0.47943  0.78230  Biso   1.000  P
  H40      1.0000 0.11710  0.50960  0.77590  Biso   1.000  H
  Be28     1.0000 0.99630  0.49350  0.66660  Biso   1.000  Be
  Be29     1.0000 0.01150  0.44553  0.97570  Biso   1.000  Be
  Be30     1.0000 0.95636  0.33018  0.42120  Biso   1.000  Be
  O109     1.0000 0.98984  0.35682  0.82255  Biso   1.000  O
  O110     1.0000 0.99713  0.38939  0.00640  Biso   1.000  O
  O111     1.0000 0.98709  0.30610  0.97737  Biso   1.000  O
  O112     1.0000 0.96099  0.37649  0.48390  Biso   1.000  O
  O113     1.0000 0.97843  0.45153  0.57750  Biso   1.000  O
  O114     1.0000 0.99232  0.45374  0.38110  Biso   1.000  O
  O115     1.0000 0.95122  0.47327  0.75100  Biso   1.000  O
  O116     1.0000 0.96294  0.44205  0.92530  Biso   1.000  O
  O117     1.0000 0.97500  0.52741  0.90980  Biso   1.000  O
  O118     1.0000 0.05910  0.47147  0.89890  Biso   1.000  O
  O119     1.0000 0.04648  0.50512  0.72770  Biso   1.000  O
  O120     1.0000 0.06138  0.43417  0.72370  Biso   1.000  O
  P41      1.0000 0.64235  0.67775  0.27027  Biso   1.000  P
  H41      1.0000 0.58697  0.65503  0.27553  Biso   1.000  H
  P42      1.0000 0.66028  0.76519  0.81895  Biso   1.000  P
  H42      1.0000 0.71007  0.77613  0.83713  Biso   1.000  H
  P43      1.0000 0.61511  0.80867  0.20294  Biso   1.000  P
  H43      1.0000 0.56657  0.79063  0.22613  Biso   1.000  H
  P44      1.0000 0.73682  0.81276  0.11563  Biso   1.000  P
  H44      1.0000 0.78377  0.84293  0.10923  Biso   1.000  H
  Be31     1.0000 0.66297  0.82683  0.99993  Biso   1.000  Be
  Be32     1.0000 0.67817  0.77886  0.30903  Biso   1.000  Be
  Be33     1.0000 0.62303  0.66351  0.75453  Biso   1.000  Be
  O121     1.0000 0.65651  0.69015  0.15588  Biso   1.000  O
  O122     1.0000 0.66380  0.72272  0.33973  Biso   1.000  O
  O123     1.0000 0.65376  0.63943  0.31070  Biso   1.000  O
  O124     1.0000 0.62766  0.70982  0.81723  Biso   1.000  O
  O125     1.0000 0.64510  0.78486  0.91083  Biso   1.000  O
  O126     1.0000 0.65899  0.78707  0.71443  Biso   1.000  O
  O127     1.0000 0.61789  0.80660  0.08433  Biso   1.000  O
  O128     1.0000 0.62961  0.77538  0.25863  Biso   1.000  O
  O129     1.0000 0.64167  0.86074  0.24313  Biso   1.000  O
  O130     1.0000 0.72577  0.80480  0.23223  Biso   1.000  O
  O131     1.0000 0.71315  0.83845  0.06103  Biso   1.000  O
  O132     1.0000 0.72805  0.76750  0.05703  Biso   1.000  O
  P45      1.0000 0.30901  0.01109  0.60361  Biso   1.000  P
  H45      1.0000 0.25363  0.98837  0.60887  Biso   1.000  H
  P46      1.0000 0.32694  0.09853  0.15229  Biso   1.000  P
  H46      1.0000 0.37673  0.10947  0.17047  Biso   1.000  H
  P47      1.0000 0.28177  0.14201  0.53628  Biso   1.000  P
  H47      1.0000 0.23323  0.12397  0.55947  Biso   1.000  H
  P48      1.0000 0.40348  0.14610  0.44897  Biso   1.000  P
  H48      1.0000 0.45043  0.17627  0.44257  Biso   1.000  H
  Be34     1.0000 0.32963  0.16017  0.33327  Biso   1.000  Be
  Be35     1.0000 0.34483  0.11220  0.64237  Biso   1.000  Be
  Be36     1.0000 0.28969  0.99685  0.08787  Biso   1.000  Be
  O133     1.0000 0.32317  0.02349  0.48922  Biso   1.000  O
  O134     1.0000 0.33046  0.05606  0.67307  Biso   1.000  O
  O135     1.0000 0.32042  0.97277  0.64404  Biso   1.000  O
  O136     1.0000 0.29432  0.04316  0.15057  Biso   1.000  O
  O137     1.0000 0.31176  0.11820  0.24417  Biso   1.000  O
  O138     1.0000 0.32565  0.12041  0.04777  Biso   1.000  O
  O139     1.0000 0.28455  0.13994  0.41767  Biso   1.000  O
  O140     1.0000 0.29627  0.10872  0.59197  Biso   1.000  O
  O141     1.0000 0.30833  0.19408  0.57647  Biso   1.000  O
  O142     1.0000 0.39243  0.13814  0.56557  Biso   1.000  O
  O143     1.0000 0.37981  0.17179  0.39437  Biso   1.000  O
  O144     1.0000 0.39471  0.10084  0.39037  Biso   1.000  O
  P49      1.0000 0.65558  0.63126  0.93694  Biso   1.000  P
  H49      1.0000 0.67830  0.59860  0.94220  Biso   1.000  H
  P50      1.0000 0.56814  0.56175  0.48562  Biso   1.000  P
  H50      1.0000 0.55720  0.60060  0.50380  Biso   1.000  H
  P51      1.0000 0.52466  0.47310  0.86961  Biso   1.000  P
  H51      1.0000 0.54270  0.44260  0.89280  Biso   1.000  H
  P52      1.0000 0.52057  0.59072  0.78230  Biso   1.000  P
  H52      1.0000 0.49040  0.60750  0.77590  Biso   1.000  H
  Be37     1.0000 0.50650  0.50280  0.66660  Biso   1.000  Be
  Be38     1.0000 0.55447  0.56597  0.97570  Biso   1.000  Be
  Be39     1.0000 0.66982  0.62618  0.42120  Biso   1.000  Be
  O145     1.0000 0.64318  0.63302  0.82255  Biso   1.000  O
  O146     1.0000 0.61061  0.60774  0.00640  Biso   1.000  O
  O147     1.0000 0.69390  0.68099  0.97737  Biso   1.000  O
  O148     1.0000 0.62351  0.58450  0.48390  Biso   1.000  O
  O149     1.0000 0.54847  0.52690  0.57750  Biso   1.000  O
  O150     1.0000 0.54626  0.53858  0.38110  Biso   1.000  O
  O151     1.0000 0.52673  0.47795  0.75100  Biso   1.000  O
  O152     1.0000 0.55795  0.52089  0.92530  Biso   1.000  O
  O153     1.0000 0.47259  0.44759  0.90980  Biso   1.000  O
  O154     1.0000 0.52853  0.58763  0.89890  Biso   1.000  O
  O155     1.0000 0.49488  0.54136  0.72770  Biso   1.000  O
  O156     1.0000 0.56583  0.62721  0.72370  Biso   1.000  O
  P53      1.0000 0.32225  0.96459  0.27027  Biso   1.000  P
  H53      1.0000 0.34497  0.93193  0.27553  Biso   1.000  H
  P54      1.0000 0.23481  0.89508  0.81895  Biso   1.000  P
  H54      1.0000 0.22387  0.93393  0.83713  Biso   1.000  H
  P55      1.0000 0.19133  0.80643  0.20294  Biso   1.000  P
  H55      1.0000 0.20937  0.77593  0.22613  Biso   1.000  H
  P56      1.0000 0.18724  0.92405  0.11563  Biso   1.000  P
  H56      1.0000 0.15707  0.94083  0.10923  Biso   1.000  H
  Be40     1.0000 0.17317  0.83613  0.99993  Biso   1.000  Be
  Be41     1.0000 0.22114  0.89930  0.30903  Biso   1.000  Be
  Be42     1.0000 0.33649  0.95951  0.75453  Biso   1.000  Be
  O157     1.0000 0.30985  0.96635  0.15588  Biso   1.000  O
  O158     1.0000 0.27728  0.94107  0.33973  Biso   1.000  O
  O159     1.0000 0.36057  0.01432  0.31070  Biso   1.000  O
  O160     1.0000 0.29018  0.91783  0.81723  Biso   1.000  O
  O161     1.0000 0.21514  0.86023  0.91083  Biso   1.000  O
  O162     1.0000 0.21293  0.87191  0.71443  Biso   1.000  O
  O163     1.0000 0.19340  0.81128  0.08433  Biso   1.000  O
  O164     1.0000 0.22462  0.85422  0.25863  Biso   1.000  O
  O165     1.0000 0.13926  0.78092  0.24313  Biso   1.000  O
  O166     1.0000 0.19520  0.92096  0.23223  Biso   1.000  O
  O167     1.0000 0.16155  0.87469  0.06103  Biso   1.000  O
  O168     1.0000 0.23250  0.96054  0.05703  Biso   1.000  O
  P57      1.0000 0.98891  0.29793  0.60361  Biso   1.000  P
  H57      1.0000 0.01163  0.26527  0.60887  Biso   1.000  H
  P58      1.0000 0.90147  0.22842  0.15229  Biso   1.000  P
  H58      1.0000 0.89053  0.26727  0.17047  Biso   1.000  H
  P59      1.0000 0.85799  0.13977  0.53628  Biso   1.000  P
  H59      1.0000 0.87603  0.10927  0.55947  Biso   1.000  H
  P60      1.0000 0.85390  0.25739  0.44897  Biso   1.000  P
  H60      1.0000 0.82373  0.27417  0.44257  Biso   1.000  H
  Be43     1.0000 0.83983  0.16947  0.33327  Biso   1.000  Be
  Be44     1.0000 0.88780  0.23264  0.64237  Biso   1.000  Be
  Be45     1.0000 0.00315  0.29285  0.08787  Biso   1.000  Be
  O169     1.0000 0.97651  0.29969  0.48922  Biso   1.000  O
  O170     1.0000 0.94394  0.27441  0.67307  Biso   1.000  O
  O171     1.0000 0.02723  0.34766  0.64404  Biso   1.000  O
  O172     1.0000 0.95684  0.25117  0.15057  Biso   1.000  O
  O173     1.0000 0.88180  0.19357  0.24417  Biso   1.000  O
  O174     1.0000 0.87959  0.20525  0.04777  Biso   1.000  O
  O175     1.0000 0.86006  0.14462  0.41767  Biso   1.000  O
  O176     1.0000 0.89128  0.18756  0.59197  Biso   1.000  O
  O177     1.0000 0.80592  0.11426  0.57647  Biso   1.000  O
  O178     1.0000 0.86186  0.25430  0.56557  Biso   1.000  O
  O179     1.0000 0.82821  0.20803  0.39437  Biso   1.000  O
  O180     1.0000 0.89916  0.29388  0.39037  Biso   1.000  O
  P61      1.0000 0.36874  0.02432  0.93694  Biso   1.000  P
  H61      1.0000 0.40140  0.07970  0.94220  Biso   1.000  H
  P62      1.0000 0.43825  0.00639  0.48562  Biso   1.000  P
  H62      1.0000 0.39940  0.95660  0.50380  Biso   1.000  H
  P63      1.0000 0.52690  0.05156  0.86961  Biso   1.000  P
  H63      1.0000 0.55740  0.10010  0.89280  Biso   1.000  H
  P64      1.0000 0.40928  0.92985  0.78230  Biso   1.000  P
  H64      1.0000 0.39250  0.88290  0.77590  Biso   1.000  H
  Be46     1.0000 0.49720  0.00370  0.66660  Biso   1.000  Be
  Be47     1.0000 0.43403  0.98850  0.97570  Biso   1.000  Be
  Be48     1.0000 0.37382  0.04364  0.42120  Biso   1.000  Be
  O181     1.0000 0.36698  0.01016  0.82255  Biso   1.000  O
  O182     1.0000 0.39226  0.00287  0.00640  Biso   1.000  O
  O183     1.0000 0.31901  0.01291  0.97737  Biso   1.000  O
  O184     1.0000 0.41550  0.03901  0.48390  Biso   1.000  O
  O185     1.0000 0.47310  0.02157  0.57750  Biso   1.000  O
  O186     1.0000 0.46142  0.00768  0.38110  Biso   1.000  O
  O187     1.0000 0.52205  0.04878  0.75100  Biso   1.000  O
  O188     1.0000 0.47911  0.03706  0.92530  Biso   1.000  O
  O189     1.0000 0.55241  0.02500  0.90980  Biso   1.000  O
  O190     1.0000 0.41237  0.94090  0.89890  Biso   1.000  O
  O191     1.0000 0.45864  0.95352  0.72770  Biso   1.000  O
  O192     1.0000 0.37279  0.93862  0.72370  Biso   1.000  O
  P65      1.0000 0.03541  0.35765  0.27027  Biso   1.000  P
  H65      1.0000 0.06807  0.41303  0.27553  Biso   1.000  H
  P66      1.0000 0.10492  0.33972  0.81895  Biso   1.000  P
  H66      1.0000 0.06607  0.28993  0.83713  Biso   1.000  H
  P67      1.0000 0.19357  0.38489  0.20294  Biso   1.000  P
  H67      1.0000 0.22407  0.43343  0.22613  Biso   1.000  H
  P68      1.0000 0.07595  0.26318  0.11563  Biso   1.000  P
  H68      1.0000 0.05917  0.21623  0.10923  Biso   1.000  H
  Be49     1.0000 0.16387  0.33703  0.99993  Biso   1.000  Be
  Be50     1.0000 0.10070  0.32183  0.30903  Biso   1.000  Be
  Be51     1.0000 0.04049  0.37697  0.75453  Biso   1.000  Be
  O193     1.0000 0.03365  0.34349  0.15588  Biso   1.000  O
  O194     1.0000 0.05893  0.33620  0.33973  Biso   1.000  O
  O195     1.0000 0.98568  0.34624  0.31070  Biso   1.000  O
  O196     1.0000 0.08217  0.37234  0.81723  Biso   1.000  O
  O197     1.0000 0.13977  0.35490  0.91083  Biso   1.000  O
  O198     1.0000 0.12809  0.34101  0.71443  Biso   1.000  O
  O199     1.0000 0.18872  0.38211  0.08433  Biso   1.000  O
  O200     1.0000 0.14578  0.37039  0.25863  Biso   1.000  O
  O201     1.0000 0.21908  0.35833  0.24313  Biso   1.000  O
  O202     1.0000 0.07904  0.27423  0.23223  Biso   1.000  O
  O203     1.0000 0.12531  0.28685  0.06103  Biso   1.000  O
  O204     1.0000 0.03946  0.27195  0.05703  Biso   1.000  O
  P69      1.0000 0.70207  0.69099  0.60361  Biso   1.000  P
  H69      1.0000 0.73473  0.74637  0.60887  Biso   1.000  H
  P70      1.0000 0.77158  0.67306  0.15229  Biso   1.000  P
  H70      1.0000 0.73273  0.62327  0.17047  Biso   1.000  H
  P71      1.0000 0.86023  0.71823  0.53628  Biso   1.000  P
  H71      1.0000 0.89073  0.76677  0.55947  Biso   1.000  H
  P72      1.0000 0.74261  0.59652  0.44897  Biso   1.000  P
  H72      1.0000 0.72583  0.54957  0.44257  Biso   1.000  H
  Be52     1.0000 0.83053  0.67037  0.33327  Biso   1.000  Be
  Be53     1.0000 0.76736  0.65517  0.64237  Biso   1.000  Be
  Be54     1.0000 0.70715  0.71031  0.08787  Biso   1.000  Be
  O205     1.0000 0.70031  0.67683  0.48922  Biso   1.000  O
  O206     1.0000 0.72559  0.66954  0.67307  Biso   1.000  O
  O207     1.0000 0.65234  0.67958  0.64404  Biso   1.000  O
  O208     1.0000 0.74883  0.70568  0.15057  Biso   1.000  O
  O209     1.0000 0.80643  0.68824  0.24417  Biso   1.000  O
  O210     1.0000 0.79475  0.67435  0.04777  Biso   1.000  O
  O211     1.0000 0.85538  0.71545  0.41767  Biso   1.000  O
  O212     1.0000 0.81244  0.70373  0.59197  Biso   1.000  O
  O213     1.0000 0.88574  0.69167  0.57647  Biso   1.000  O
  O214     1.0000 0.74570  0.60757  0.56557  Biso   1.000  O
  O215     1.0000 0.79197  0.62019  0.39437  Biso   1.000  O
  O216     1.0000 0.70612  0.60529  0.39037  Biso   1.000  O
