data_XEHFUL_clean
_audit_creation_date              2014-07-02
_audit_creation_method            'Materials Studio'
_symmetry_space_group_name_H-M    'P1'
_symmetry_Int_Tables_number       1
_symmetry_cell_setting            triclinic
loop_
_symmetry_equiv_pos_as_xyz
  x,y,z
_cell_length_a                    7.8198
_cell_length_b                    8.4354
_cell_length_c                    9.4908
_cell_angle_alpha                 90.0000
_cell_angle_beta                  90.0000
_cell_angle_gamma                 117.6140
loop_
_atom_site_label
_atom_site_type_symbol
_atom_site_fract_x
_atom_site_fract_y
_atom_site_fract_z
_atom_site_U_iso_or_equiv
_atom_site_adp_type
_atom_site_occupancy
Y1     Y     0.70716   0.41432   0.75000   0.01267  Uiso   1.00
Y2     Y     0.29277   0.58554   0.75000   0.01267  Uiso   1.00
Y3     Y     0.29284   0.58568   0.25000   0.01267  Uiso   1.00
Y4     Y     0.70723   0.41446   0.25000   0.01267  Uiso   1.00
C1     C     0.59820   0.99780   0.74270   0.01267  Uiso   1.00
C2     C     0.08030   0.55080   0.50050   0.01267  Uiso   1.00
C3     C     0.40180   0.00220   0.24270   0.01267  Uiso   1.00
C4     C     0.91970   0.44920   0.00050   0.01267  Uiso   1.00
C5     C     0.39960   0.99780   0.75730   0.01267  Uiso   1.00
C6     C     0.47050   0.55080   0.99950   0.01267  Uiso   1.00
C7     C     0.60040   0.00220   0.25730   0.01267  Uiso   1.00
C8     C     0.52950   0.44920   0.49950   0.01267  Uiso   1.00
O1     O     0.74290   0.14520   0.73700   0.01267  Uiso   1.00
O2     O     0.59130   0.84560   0.73610   0.01267  Uiso   1.00
O3     O     0.99750   0.50680   0.61970   0.01267  Uiso   1.00
O4     O     0.26550   0.63960   0.50320   0.01267  Uiso   1.00
O5     O     0.99670   0.50520   0.38140   0.01267  Uiso   1.00
O6     O     0.25710   0.85480   0.23700   0.01267  Uiso   1.00
O7     O     0.40870   0.15440   0.23610   0.01267  Uiso   1.00
O8     O     0.00250   0.49320   0.11970   0.01267  Uiso   1.00
O9     O     0.73450   0.36040   0.00320   0.01267  Uiso   1.00
O10    O     0.00330   0.49480   0.88140   0.01267  Uiso   1.00
O11    O     0.40230   0.14520   0.76300   0.01267  Uiso   1.00
O12    O     0.25430   0.84560   0.76390   0.01267  Uiso   1.00
O13    O     0.50930   0.50680   0.88030   0.01267  Uiso   1.00
O14    O     0.37410   0.63960   0.99680   0.01267  Uiso   1.00
O15    O     0.50850   0.50520   0.11860   0.01267  Uiso   1.00
O16    O     0.59770   0.85480   0.26300   0.01267  Uiso   1.00
O17    O     0.74570   0.15440   0.26390   0.01267  Uiso   1.00
O18    O     0.49070   0.49320   0.38030   0.01267  Uiso   1.00
O19    O     0.62590   0.36040   0.49680   0.01267  Uiso   1.00
O20    O     0.49150   0.49480   0.61860   0.01267  Uiso   1.00
