data_image0
_cell_length_a       11.3805
_cell_length_b       9.8406
_cell_length_c       14.5057
_cell_angle_alpha    90
_cell_angle_beta     91.429
_cell_angle_gamma    90

_symmetry_space_group_name_H-M    "P 1"
_symmetry_int_tables_number       1

loop_
  _symmetry_equiv_pos_as_xyz
  'x, y, z'

loop_
  _atom_site_label
  _atom_site_occupancy
  _atom_site_fract_x
  _atom_site_fract_y
  _atom_site_fract_z
  _atom_site_thermal_displace_type
  _atom_site_B_iso_or_equiv
  _atom_site_type_symbol
  Mg1      1.0000 0.25647  0.41905  0.63437  Biso   1.000  Mg
  Mg2      1.0000 0.23929  0.60922  0.81060  Biso   1.000  Mg
  O1       1.0000 0.13109  0.50375  0.71982  Biso   1.000  O
  O2       1.0000 0.96310  0.50172  0.63788  Biso   1.000  O
  O3       1.0000 0.15722  0.24187  0.61046  Biso   1.000  O
  O4       1.0000 0.01837  0.29229  0.50396  Biso   1.000  O
  O5       1.0000 0.39986  0.34726  0.56333  Biso   1.000  O
  O6       1.0000 0.39008  0.12511  0.59708  Biso   1.000  O
  O7       1.0000 0.30748  0.29732  0.74687  Biso   1.000  O
  O8       1.0000 0.31286  0.44012  0.86741  Biso   1.000  O
  O9       1.0000 0.18277  0.52389  0.52466  Biso   1.000  O
  O10      1.0000 0.34981  0.60195  0.46589  Biso   1.000  O
  O11      1.0000 0.34829  0.57942  0.69661  Biso   1.000  O
  O12      1.0000 0.51428  0.61049  0.61969  Biso   1.000  O
  C1       1.0000 0.02053  0.51646  0.71069  Biso   1.000  C
  H1       1.0000 0.97920  0.53870  0.76310  Biso   1.000  H
  C2       1.0000 0.07663  0.21114  0.55138  Biso   1.000  C
  H2       1.0000 0.06020  0.11930  0.54320  Biso   1.000  H
  C3       1.0000 0.43339  0.22355  0.55705  Biso   1.000  C
  H3       1.0000 0.49610  0.20600  0.51890  Biso   1.000  H
  C4       1.0000 0.32876  0.32743  0.83125  Biso   1.000  C
  H4       1.0000 0.35890  0.25880  0.86900  Biso   1.000  H
  C5       1.0000 0.24174  0.59788  0.46970  Biso   1.000  C
  H5       1.0000 0.19930  0.65340  0.42910  Biso   1.000  H
  C6       1.0000 0.44822  0.63435  0.68384  Biso   1.000  C
  H6       1.0000 0.47360  0.69850  0.72700  Biso   1.000  H
  Mg3      1.0000 0.24353  0.91905  0.86563  Biso   1.000  Mg
  Mg4      1.0000 0.26071  0.10922  0.68940  Biso   1.000  Mg
  O13      1.0000 0.36891  0.00375  0.78018  Biso   1.000  O
  O14      1.0000 0.53690  0.00172  0.86212  Biso   1.000  O
  O15      1.0000 0.34278  0.74187  0.88954  Biso   1.000  O
  O16      1.0000 0.48163  0.79229  0.99604  Biso   1.000  O
  O17      1.0000 0.10014  0.84726  0.93667  Biso   1.000  O
  O18      1.0000 0.10992  0.62511  0.90292  Biso   1.000  O
  O19      1.0000 0.19252  0.79732  0.75313  Biso   1.000  O
  O20      1.0000 0.18714  0.94012  0.63259  Biso   1.000  O
  O21      1.0000 0.31723  0.02389  0.97534  Biso   1.000  O
  O22      1.0000 0.15019  0.10195  0.03411  Biso   1.000  O
  O23      1.0000 0.15171  0.07942  0.80339  Biso   1.000  O
  O24      1.0000 0.98572  0.11049  0.88031  Biso   1.000  O
  C7       1.0000 0.47947  0.01646  0.78931  Biso   1.000  C
  H7       1.0000 0.52080  0.03870  0.73690  Biso   1.000  H
  C8       1.0000 0.42337  0.71114  0.94862  Biso   1.000  C
  H8       1.0000 0.43980  0.61930  0.95680  Biso   1.000  H
  C9       1.0000 0.06661  0.72355  0.94295  Biso   1.000  C
  H9       1.0000 0.00390  0.70600  0.98110  Biso   1.000  H
  C10      1.0000 0.17124  0.82743  0.66875  Biso   1.000  C
  H10      1.0000 0.14110  0.75880  0.63100  Biso   1.000  H
  C11      1.0000 0.25826  0.09788  0.03030  Biso   1.000  C
  H11      1.0000 0.30070  0.15340  0.07090  Biso   1.000  H
  C12      1.0000 0.05178  0.13435  0.81616  Biso   1.000  C
  H12      1.0000 0.02640  0.19850  0.77300  Biso   1.000  H
  Mg5      1.0000 0.74353  0.58095  0.36563  Biso   1.000  Mg
  Mg6      1.0000 0.76071  0.39078  0.18940  Biso   1.000  Mg
  O25      1.0000 0.86891  0.49625  0.28018  Biso   1.000  O
  O26      1.0000 0.03690  0.49828  0.36212  Biso   1.000  O
  O27      1.0000 0.84278  0.75813  0.38954  Biso   1.000  O
  O28      1.0000 0.98163  0.70771  0.49604  Biso   1.000  O
  O29      1.0000 0.60014  0.65274  0.43667  Biso   1.000  O
  O30      1.0000 0.60992  0.87489  0.40292  Biso   1.000  O
  O31      1.0000 0.69252  0.70268  0.25313  Biso   1.000  O
  O32      1.0000 0.68714  0.55988  0.13259  Biso   1.000  O
  O33      1.0000 0.81723  0.47611  0.47534  Biso   1.000  O
  O34      1.0000 0.65019  0.39805  0.53411  Biso   1.000  O
  O35      1.0000 0.65171  0.42058  0.30339  Biso   1.000  O
  O36      1.0000 0.48572  0.38951  0.38031  Biso   1.000  O
  C13      1.0000 0.97947  0.48354  0.28931  Biso   1.000  C
  H13      1.0000 0.02080  0.46130  0.23690  Biso   1.000  H
  C14      1.0000 0.92337  0.78886  0.44862  Biso   1.000  C
  H14      1.0000 0.93980  0.88070  0.45680  Biso   1.000  H
  C15      1.0000 0.56661  0.77645  0.44295  Biso   1.000  C
  H15      1.0000 0.50390  0.79400  0.48110  Biso   1.000  H
  C16      1.0000 0.67124  0.67257  0.16875  Biso   1.000  C
  H16      1.0000 0.64110  0.74120  0.13100  Biso   1.000  H
  C17      1.0000 0.75826  0.40212  0.53030  Biso   1.000  C
  H17      1.0000 0.80070  0.34660  0.57090  Biso   1.000  H
  C18      1.0000 0.55178  0.36565  0.31616  Biso   1.000  C
  H18      1.0000 0.52640  0.30150  0.27300  Biso   1.000  H
  Mg7      1.0000 0.75647  0.08095  0.13437  Biso   1.000  Mg
  Mg8      1.0000 0.73929  0.89078  0.31060  Biso   1.000  Mg
  O37      1.0000 0.63109  0.99625  0.21982  Biso   1.000  O
  O38      1.0000 0.46310  0.99828  0.13788  Biso   1.000  O
  O39      1.0000 0.65722  0.25813  0.11046  Biso   1.000  O
  O40      1.0000 0.51837  0.20771  0.00396  Biso   1.000  O
  O41      1.0000 0.89986  0.15274  0.06333  Biso   1.000  O
  O42      1.0000 0.89008  0.37489  0.09708  Biso   1.000  O
  O43      1.0000 0.80748  0.20268  0.24687  Biso   1.000  O
  O44      1.0000 0.81286  0.05988  0.36741  Biso   1.000  O
  O45      1.0000 0.68277  0.97611  0.02466  Biso   1.000  O
  O46      1.0000 0.84981  0.89805  0.96589  Biso   1.000  O
  O47      1.0000 0.84829  0.92058  0.19661  Biso   1.000  O
  O48      1.0000 0.01428  0.88951  0.11969  Biso   1.000  O
  C19      1.0000 0.52053  0.98354  0.21069  Biso   1.000  C
  H19      1.0000 0.47920  0.96130  0.26310  Biso   1.000  H
  C20      1.0000 0.57663  0.28886  0.05138  Biso   1.000  C
  H20      1.0000 0.56020  0.38070  0.04320  Biso   1.000  H
  C21      1.0000 0.93339  0.27645  0.05705  Biso   1.000  C
  H21      1.0000 0.99610  0.29400  0.01890  Biso   1.000  H
  C22      1.0000 0.82876  0.17257  0.33125  Biso   1.000  C
  H22      1.0000 0.85890  0.24120  0.36900  Biso   1.000  H
  C23      1.0000 0.74174  0.90212  0.96970  Biso   1.000  C
  H23      1.0000 0.69930  0.84660  0.92910  Biso   1.000  H
  C24      1.0000 0.94822  0.86565  0.18384  Biso   1.000  C
  H24      1.0000 0.97360  0.80150  0.22700  Biso   1.000  H
  Mg9      1.0000 0.00000  0.50000  0.50000  Biso   1.000  Mg
  Mg10     1.0000 0.50000  0.00000  0.00000  Biso   1.000  Mg
  Mg11     1.0000 0.50000  0.50000  0.50000  Biso   1.000  Mg
  Mg12     1.0000 0.00000  0.00000  0.00000  Biso   1.000  Mg
