data_XEJJOM_clean
_audit_creation_date              2014-07-02
_audit_creation_method            'Materials Studio'
_symmetry_space_group_name_H-M    'P1'
_symmetry_Int_Tables_number       1
_symmetry_cell_setting            triclinic
loop_
_symmetry_equiv_pos_as_xyz
  x,y,z
_cell_length_a                    7.6480
_cell_length_b                    9.6760
_cell_length_c                    10.5620
_cell_angle_alpha                 106.6720
_cell_angle_beta                  105.2830
_cell_angle_gamma                 100.7060
loop_
_atom_site_label
_atom_site_type_symbol
_atom_site_fract_x
_atom_site_fract_y
_atom_site_fract_z
_atom_site_U_iso_or_equiv
_atom_site_adp_type
_atom_site_occupancy
Dy1    Dy    0.75332   0.96792   0.54833   0.01267  Uiso   1.00
Dy2    Dy    0.24668   0.03208   0.45167   0.01267  Uiso   1.00
H1     H     0.18570   0.50740   0.03630   0.01267  Uiso   1.00
H2     H     0.46330   0.19760   0.95310   0.01267  Uiso   1.00
H3     H     0.45050   0.37690   0.34480   0.01267  Uiso   1.00
H4     H     0.15180   0.60330   0.25960   0.01267  Uiso   1.00
H5     H     0.22010   0.53030   0.37540   0.01267  Uiso   1.00
H6     H     0.23850   0.42950   0.81130   0.01267  Uiso   1.00
H7     H     0.36680   0.31820   0.78650   0.01267  Uiso   1.00
H8     H     0.63360   0.12480   0.12340   0.01267  Uiso   1.00
H9     H     0.73640   0.26460   0.26660   0.01267  Uiso   1.00
H10    H     0.81430   0.49260   0.96370   0.01267  Uiso   1.00
H11    H     0.53670   0.80240   0.04690   0.01267  Uiso   1.00
H12    H     0.54950   0.62310   0.65520   0.01267  Uiso   1.00
H13    H     0.84820   0.39670   0.74040   0.01267  Uiso   1.00
H14    H     0.77990   0.46970   0.62460   0.01267  Uiso   1.00
H15    H     0.76150   0.57050   0.18870   0.01267  Uiso   1.00
H16    H     0.63320   0.68180   0.21350   0.01267  Uiso   1.00
H17    H     0.36640   0.87520   0.87660   0.01267  Uiso   1.00
H18    H     0.26360   0.73540   0.73340   0.01267  Uiso   1.00
C1     C     0.30850   0.45860   0.20590   0.01267  Uiso   1.00
C2     C     0.25930   0.44650   0.06660   0.01267  Uiso   1.00
C3     C     0.31310   0.34920   0.96970   0.01267  Uiso   1.00
C4     C     0.42360   0.26430   0.01760   0.01267  Uiso   1.00
C5     C     0.47850   0.27310   0.15670   0.01267  Uiso   1.00
C6     C     0.41710   0.37070   0.24970   0.01267  Uiso   1.00
C7     C     0.25960   0.57470   0.31020   0.01267  Uiso   1.00
C8     C     0.42650   0.71500   0.39440   0.01267  Uiso   1.00
C9     C     0.26010   0.33430   0.81970   0.01267  Uiso   1.00
C10    C     0.08400   0.20560   0.72560   0.01267  Uiso   1.00
C11    C     0.61340   0.18980   0.20640   0.01267  Uiso   1.00
C12    C     0.55710   0.09240   0.28750   0.01267  Uiso   1.00
C13    C     0.69150   0.54140   0.79410   0.01267  Uiso   1.00
C14    C     0.74070   0.55350   0.93340   0.01267  Uiso   1.00
C15    C     0.68690   0.65080   0.03030   0.01267  Uiso   1.00
C16    C     0.57640   0.73570   0.98240   0.01267  Uiso   1.00
C17    C     0.52150   0.72690   0.84330   0.01267  Uiso   1.00
C18    C     0.58290   0.62930   0.75030   0.01267  Uiso   1.00
C19    C     0.74040   0.42530   0.68980   0.01267  Uiso   1.00
C20    C     0.57350   0.28500   0.60560   0.01267  Uiso   1.00
C21    C     0.73990   0.66570   0.18030   0.01267  Uiso   1.00
C22    C     0.91600   0.79440   0.27440   0.01267  Uiso   1.00
C23    C     0.38660   0.81020   0.79360   0.01267  Uiso   1.00
C24    C     0.44290   0.90760   0.71250   0.01267  Uiso   1.00
O1     O     0.40150   0.84440   0.41610   0.01267  Uiso   1.00
O2     O     0.58800   0.70290   0.44170   0.01267  Uiso   1.00
O3     O     0.06560   0.13840   0.59640   0.01267  Uiso   1.00
O4     O     0.95740   0.16810   0.77230   0.01267  Uiso   1.00
O5     O     0.39230   0.06830   0.29060   0.01267  Uiso   1.00
O6     O     0.68500   0.03990   0.34490   0.01267  Uiso   1.00
O7     O     0.59850   0.15560   0.58390   0.01267  Uiso   1.00
O8     O     0.41200   0.29710   0.55830   0.01267  Uiso   1.00
O9     O     0.93440   0.86160   0.40360   0.01267  Uiso   1.00
O10    O     0.04260   0.83190   0.22770   0.01267  Uiso   1.00
O11    O     0.60770   0.93170   0.70940   0.01267  Uiso   1.00
O12    O     0.31500   0.96010   0.65510   0.01267  Uiso   1.00
