data_image0
_cell_length_a       22.3175
_cell_length_b       22.3175
_cell_length_c       21.0429
_cell_angle_alpha    90
_cell_angle_beta     90
_cell_angle_gamma    90

_symmetry_space_group_name_H-M    "P 1"
_symmetry_int_tables_number       1

loop_
  _symmetry_equiv_pos_as_xyz
  'x, y, z'

loop_
  _atom_site_label
  _atom_site_occupancy
  _atom_site_fract_x
  _atom_site_fract_y
  _atom_site_fract_z
  _atom_site_thermal_displace_type
  _atom_site_B_iso_or_equiv
  _atom_site_type_symbol
  N1       1.0000 0.97343  0.46622  0.09350  Biso   1.000  N
  N2       1.0000 0.96930  0.50470  0.14340  Biso   1.000  N
  H1       1.0000 0.98460  0.53880  0.13830  Biso   1.000  H
  N3       1.0000 0.82342  0.31481  0.24780  Biso   1.000  N
  N4       1.0000 0.87130  0.30970  0.28720  Biso   1.000  N
  H2       1.0000 0.03570  0.38360  0.93580  Biso   1.000  H
  C1       1.0000 0.95060  0.41440  0.11540  Biso   1.000  C
  C2       1.0000 0.93120  0.42070  0.17840  Biso   1.000  C
  C3       1.0000 0.94450  0.47950  0.19520  Biso   1.000  C
  C4       1.0000 0.93450  0.51290  0.25530  Biso   1.000  C
  H3       1.0000 0.95010  0.55270  0.25110  Biso   1.000  H
  H4       1.0000 0.89220  0.51480  0.26330  Biso   1.000  H
  H5       1.0000 0.95400  0.49300  0.29000  Biso   1.000  H
  C5       1.0000 0.94950  0.35820  0.07730  Biso   1.000  C
  H6       1.0000 0.96550  0.36550  0.03570  Biso   1.000  H
  H7       1.0000 0.97290  0.32810  0.09820  Biso   1.000  H
  H8       1.0000 0.90880  0.34480  0.07360  Biso   1.000  H
  C6       1.0000 0.91730  0.34520  0.26960  Biso   1.000  C
  C7       1.0000 0.89860  0.37570  0.21690  Biso   1.000  C
  C8       1.0000 0.10520  0.40990  0.04620  Biso   1.000  C
  C9       1.0000 0.12520  0.44940  0.09890  Biso   1.000  C
  H9       1.0000 0.10440  0.48690  0.09580  Biso   1.000  H
  H10      1.0000 0.16760  0.45630  0.09610  Biso   1.000  H
  H11      1.0000 0.11600  0.43070  0.13870  Biso   1.000  H
  C10      1.0000 0.09570  0.27490  0.94470  Biso   1.000  C
  H12      1.0000 0.06780  0.27680  0.91000  Biso   1.000  H
  H13      1.0000 0.08520  0.24230  0.97220  Biso   1.000  H
  H14      1.0000 0.13540  0.26880  0.92840  Biso   1.000  H
  N5       1.0000 0.47343  0.96622  0.59350  Biso   1.000  N
  N6       1.0000 0.46930  0.00470  0.64340  Biso   1.000  N
  H15      1.0000 0.48460  0.03880  0.63830  Biso   1.000  H
  N7       1.0000 0.32342  0.81481  0.74780  Biso   1.000  N
  N8       1.0000 0.37130  0.80970  0.78720  Biso   1.000  N
  H16      1.0000 0.53570  0.88360  0.43580  Biso   1.000  H
  C11      1.0000 0.45060  0.91440  0.61540  Biso   1.000  C
  C12      1.0000 0.43120  0.92070  0.67840  Biso   1.000  C
  C13      1.0000 0.44450  0.97950  0.69520  Biso   1.000  C
  C14      1.0000 0.43450  0.01290  0.75530  Biso   1.000  C
  H17      1.0000 0.45010  0.05270  0.75110  Biso   1.000  H
  H18      1.0000 0.39220  0.01480  0.76330  Biso   1.000  H
  H19      1.0000 0.45400  0.99300  0.79000  Biso   1.000  H
  C15      1.0000 0.44950  0.85820  0.57730  Biso   1.000  C
  H20      1.0000 0.46550  0.86550  0.53570  Biso   1.000  H
  H21      1.0000 0.47290  0.82810  0.59820  Biso   1.000  H
  H22      1.0000 0.40880  0.84480  0.57360  Biso   1.000  H
  C16      1.0000 0.41730  0.84520  0.76960  Biso   1.000  C
  C17      1.0000 0.39860  0.87570  0.71690  Biso   1.000  C
  C18      1.0000 0.60520  0.90990  0.54620  Biso   1.000  C
  C19      1.0000 0.62520  0.94940  0.59890  Biso   1.000  C
  H23      1.0000 0.60440  0.98690  0.59580  Biso   1.000  H
  H24      1.0000 0.66760  0.95630  0.59610  Biso   1.000  H
  H25      1.0000 0.61600  0.93070  0.63870  Biso   1.000  H
  C20      1.0000 0.59570  0.77490  0.44470  Biso   1.000  C
  H26      1.0000 0.56780  0.77680  0.41000  Biso   1.000  H
  H27      1.0000 0.58520  0.74230  0.47220  Biso   1.000  H
  H28      1.0000 0.63540  0.76880  0.42840  Biso   1.000  H
  N9       1.0000 0.52657  0.53378  0.59350  Biso   1.000  N
  N10      1.0000 0.53070  0.49530  0.64340  Biso   1.000  N
  H29      1.0000 0.51540  0.46120  0.63830  Biso   1.000  H
  N11      1.0000 0.67658  0.68519  0.74780  Biso   1.000  N
  N12      1.0000 0.62870  0.69030  0.78720  Biso   1.000  N
  H30      1.0000 0.46430  0.61640  0.43580  Biso   1.000  H
  C21      1.0000 0.54940  0.58560  0.61540  Biso   1.000  C
  C22      1.0000 0.56880  0.57930  0.67840  Biso   1.000  C
  C23      1.0000 0.55550  0.52050  0.69520  Biso   1.000  C
  C24      1.0000 0.56550  0.48710  0.75530  Biso   1.000  C
  H31      1.0000 0.54990  0.44730  0.75110  Biso   1.000  H
  H32      1.0000 0.60780  0.48520  0.76330  Biso   1.000  H
  H33      1.0000 0.54600  0.50700  0.79000  Biso   1.000  H
  C25      1.0000 0.55050  0.64180  0.57730  Biso   1.000  C
  H34      1.0000 0.53450  0.63450  0.53570  Biso   1.000  H
  H35      1.0000 0.52710  0.67190  0.59820  Biso   1.000  H
  H36      1.0000 0.59120  0.65520  0.57360  Biso   1.000  H
  C26      1.0000 0.58270  0.65480  0.76960  Biso   1.000  C
  C27      1.0000 0.60140  0.62430  0.71690  Biso   1.000  C
  C28      1.0000 0.39480  0.59010  0.54620  Biso   1.000  C
  C29      1.0000 0.37480  0.55060  0.59890  Biso   1.000  C
  H37      1.0000 0.39560  0.51310  0.59580  Biso   1.000  H
  H38      1.0000 0.33240  0.54370  0.59610  Biso   1.000  H
  H39      1.0000 0.38400  0.56930  0.63870  Biso   1.000  H
  C30      1.0000 0.40430  0.72510  0.44470  Biso   1.000  C
  H40      1.0000 0.43220  0.72320  0.41000  Biso   1.000  H
  H41      1.0000 0.41480  0.75770  0.47220  Biso   1.000  H
  H42      1.0000 0.36460  0.73120  0.42840  Biso   1.000  H
  N13      1.0000 0.02657  0.03378  0.09350  Biso   1.000  N
  N14      1.0000 0.03070  0.99530  0.14340  Biso   1.000  N
  H43      1.0000 0.01540  0.96120  0.13830  Biso   1.000  H
  N15      1.0000 0.17658  0.18519  0.24780  Biso   1.000  N
  N16      1.0000 0.12870  0.19030  0.28720  Biso   1.000  N
  H44      1.0000 0.96430  0.11640  0.93580  Biso   1.000  H
  C31      1.0000 0.04940  0.08560  0.11540  Biso   1.000  C
  C32      1.0000 0.06880  0.07930  0.17840  Biso   1.000  C
  C33      1.0000 0.05550  0.02050  0.19520  Biso   1.000  C
  C34      1.0000 0.06550  0.98710  0.25530  Biso   1.000  C
  H45      1.0000 0.04990  0.94730  0.25110  Biso   1.000  H
  H46      1.0000 0.10780  0.98520  0.26330  Biso   1.000  H
  H47      1.0000 0.04600  0.00700  0.29000  Biso   1.000  H
  C35      1.0000 0.05050  0.14180  0.07730  Biso   1.000  C
  H48      1.0000 0.03450  0.13450  0.03570  Biso   1.000  H
  H49      1.0000 0.02710  0.17190  0.09820  Biso   1.000  H
  H50      1.0000 0.09120  0.15520  0.07360  Biso   1.000  H
  C36      1.0000 0.08270  0.15480  0.26960  Biso   1.000  C
  C37      1.0000 0.10140  0.12430  0.21690  Biso   1.000  C
  C38      1.0000 0.89480  0.09010  0.04620  Biso   1.000  C
  C39      1.0000 0.87480  0.05060  0.09890  Biso   1.000  C
  H51      1.0000 0.89560  0.01310  0.09580  Biso   1.000  H
  H52      1.0000 0.83240  0.04370  0.09610  Biso   1.000  H
  H53      1.0000 0.88400  0.06930  0.13870  Biso   1.000  H
  C40      1.0000 0.90430  0.22510  0.94470  Biso   1.000  C
  H54      1.0000 0.93220  0.22320  0.91000  Biso   1.000  H
  H55      1.0000 0.91480  0.25770  0.97220  Biso   1.000  H
  H56      1.0000 0.86460  0.23120  0.92840  Biso   1.000  H
  N17      1.0000 0.28378  0.22343  0.34350  Biso   1.000  N
  N18      1.0000 0.24530  0.21930  0.39340  Biso   1.000  N
  H57      1.0000 0.21120  0.23460  0.38830  Biso   1.000  H
  N19      1.0000 0.43519  0.07342  0.49780  Biso   1.000  N
  N20      1.0000 0.44030  0.12130  0.53720  Biso   1.000  N
  H58      1.0000 0.36640  0.28570  0.18580  Biso   1.000  H
  C41      1.0000 0.33560  0.20060  0.36540  Biso   1.000  C
  C42      1.0000 0.32930  0.18120  0.42840  Biso   1.000  C
  C43      1.0000 0.27050  0.19450  0.44520  Biso   1.000  C
  C44      1.0000 0.23710  0.18450  0.50530  Biso   1.000  C
  H59      1.0000 0.19730  0.20010  0.50110  Biso   1.000  H
  H60      1.0000 0.23520  0.14220  0.51330  Biso   1.000  H
  H61      1.0000 0.25700  0.20400  0.54000  Biso   1.000  H
  C45      1.0000 0.39180  0.19950  0.32730  Biso   1.000  C
  H62      1.0000 0.38450  0.21550  0.28570  Biso   1.000  H
  H63      1.0000 0.42190  0.22290  0.34820  Biso   1.000  H
  H64      1.0000 0.40520  0.15880  0.32360  Biso   1.000  H
  C46      1.0000 0.40480  0.16730  0.51960  Biso   1.000  C
  C47      1.0000 0.37430  0.14860  0.46690  Biso   1.000  C
  C48      1.0000 0.34010  0.35520  0.29620  Biso   1.000  C
  C49      1.0000 0.30060  0.37520  0.34890  Biso   1.000  C
  H65      1.0000 0.26310  0.35440  0.34580  Biso   1.000  H
  H66      1.0000 0.29370  0.41760  0.34610  Biso   1.000  H
  H67      1.0000 0.31930  0.36600  0.38870  Biso   1.000  H
  C50      1.0000 0.47510  0.34570  0.19470  Biso   1.000  C
  H68      1.0000 0.47320  0.31780  0.16000  Biso   1.000  H
  H69      1.0000 0.50770  0.33520  0.22220  Biso   1.000  H
  H70      1.0000 0.48120  0.38540  0.17840  Biso   1.000  H
  N21      1.0000 0.78378  0.72343  0.84350  Biso   1.000  N
  N22      1.0000 0.74530  0.71930  0.89340  Biso   1.000  N
  H71      1.0000 0.71120  0.73460  0.88830  Biso   1.000  H
  N23      1.0000 0.93519  0.57342  0.99780  Biso   1.000  N
  N24      1.0000 0.94030  0.62130  0.03720  Biso   1.000  N
  H72      1.0000 0.86640  0.78570  0.68580  Biso   1.000  H
  C51      1.0000 0.83560  0.70060  0.86540  Biso   1.000  C
  C52      1.0000 0.82930  0.68120  0.92840  Biso   1.000  C
  C53      1.0000 0.77050  0.69450  0.94520  Biso   1.000  C
  C54      1.0000 0.73710  0.68450  0.00530  Biso   1.000  C
  H73      1.0000 0.69730  0.70010  0.00110  Biso   1.000  H
  H74      1.0000 0.73520  0.64220  0.01330  Biso   1.000  H
  H75      1.0000 0.75700  0.70400  0.04000  Biso   1.000  H
  C55      1.0000 0.89180  0.69950  0.82730  Biso   1.000  C
  H76      1.0000 0.88450  0.71550  0.78570  Biso   1.000  H
  H77      1.0000 0.92190  0.72290  0.84820  Biso   1.000  H
  H78      1.0000 0.90520  0.65880  0.82360  Biso   1.000  H
  C56      1.0000 0.90480  0.66730  0.01960  Biso   1.000  C
  C57      1.0000 0.87430  0.64860  0.96690  Biso   1.000  C
  C58      1.0000 0.84010  0.85520  0.79620  Biso   1.000  C
  C59      1.0000 0.80060  0.87520  0.84890  Biso   1.000  C
  H79      1.0000 0.76310  0.85440  0.84580  Biso   1.000  H
  H80      1.0000 0.79370  0.91760  0.84610  Biso   1.000  H
  H81      1.0000 0.81930  0.86600  0.88870  Biso   1.000  H
  C60      1.0000 0.97510  0.84570  0.69470  Biso   1.000  C
  H82      1.0000 0.97320  0.81780  0.66000  Biso   1.000  H
  H83      1.0000 0.00770  0.83520  0.72220  Biso   1.000  H
  H84      1.0000 0.98120  0.88540  0.67840  Biso   1.000  H
  N25      1.0000 0.21622  0.77657  0.84350  Biso   1.000  N
  N26      1.0000 0.25470  0.78070  0.89340  Biso   1.000  N
  H85      1.0000 0.28880  0.76540  0.88830  Biso   1.000  H
  N27      1.0000 0.06481  0.92658  0.99780  Biso   1.000  N
  N28      1.0000 0.05970  0.87870  0.03720  Biso   1.000  N
  H86      1.0000 0.13360  0.71430  0.68580  Biso   1.000  H
  C61      1.0000 0.16440  0.79940  0.86540  Biso   1.000  C
  C62      1.0000 0.17070  0.81880  0.92840  Biso   1.000  C
  C63      1.0000 0.22950  0.80550  0.94520  Biso   1.000  C
  C64      1.0000 0.26290  0.81550  0.00530  Biso   1.000  C
  H87      1.0000 0.30270  0.79990  0.00110  Biso   1.000  H
  H88      1.0000 0.26480  0.85780  0.01330  Biso   1.000  H
  H89      1.0000 0.24300  0.79600  0.04000  Biso   1.000  H
  C65      1.0000 0.10820  0.80050  0.82730  Biso   1.000  C
  H90      1.0000 0.11550  0.78450  0.78570  Biso   1.000  H
  H91      1.0000 0.07810  0.77710  0.84820  Biso   1.000  H
  H92      1.0000 0.09480  0.84120  0.82360  Biso   1.000  H
  C66      1.0000 0.09520  0.83270  0.01960  Biso   1.000  C
  C67      1.0000 0.12570  0.85140  0.96690  Biso   1.000  C
  C68      1.0000 0.15990  0.64480  0.79620  Biso   1.000  C
  C69      1.0000 0.19940  0.62480  0.84890  Biso   1.000  C
  H93      1.0000 0.23690  0.64560  0.84580  Biso   1.000  H
  H94      1.0000 0.20630  0.58240  0.84610  Biso   1.000  H
  H95      1.0000 0.18070  0.63400  0.88870  Biso   1.000  H
  C70      1.0000 0.02490  0.65430  0.69470  Biso   1.000  C
  H96      1.0000 0.02680  0.68220  0.66000  Biso   1.000  H
  H97      1.0000 0.99230  0.66480  0.72220  Biso   1.000  H
  H98      1.0000 0.01880  0.61460  0.67840  Biso   1.000  H
  N29      1.0000 0.71622  0.27657  0.34350  Biso   1.000  N
  N30      1.0000 0.75470  0.28070  0.39340  Biso   1.000  N
  H99      1.0000 0.78880  0.26540  0.38830  Biso   1.000  H
  N31      1.0000 0.56481  0.42658  0.49780  Biso   1.000  N
  N32      1.0000 0.55970  0.37870  0.53720  Biso   1.000  N
  H100     1.0000 0.63360  0.21430  0.18580  Biso   1.000  H
  C71      1.0000 0.66440  0.29940  0.36540  Biso   1.000  C
  C72      1.0000 0.67070  0.31880  0.42840  Biso   1.000  C
  C73      1.0000 0.72950  0.30550  0.44520  Biso   1.000  C
  C74      1.0000 0.76290  0.31550  0.50530  Biso   1.000  C
  H101     1.0000 0.80270  0.29990  0.50110  Biso   1.000  H
  H102     1.0000 0.76480  0.35780  0.51330  Biso   1.000  H
  H103     1.0000 0.74300  0.29600  0.54000  Biso   1.000  H
  C75      1.0000 0.60820  0.30050  0.32730  Biso   1.000  C
  H104     1.0000 0.61550  0.28450  0.28570  Biso   1.000  H
  H105     1.0000 0.57810  0.27710  0.34820  Biso   1.000  H
  H106     1.0000 0.59480  0.34120  0.32360  Biso   1.000  H
  C76      1.0000 0.59520  0.33270  0.51960  Biso   1.000  C
  C77      1.0000 0.62570  0.35140  0.46690  Biso   1.000  C
  C78      1.0000 0.65990  0.14480  0.29620  Biso   1.000  C
  C79      1.0000 0.69940  0.12480  0.34890  Biso   1.000  C
  H107     1.0000 0.73690  0.14560  0.34580  Biso   1.000  H
  H108     1.0000 0.70630  0.08240  0.34610  Biso   1.000  H
  H109     1.0000 0.68070  0.13400  0.38870  Biso   1.000  H
  C80      1.0000 0.52490  0.15430  0.19470  Biso   1.000  C
  H110     1.0000 0.52680  0.18220  0.16000  Biso   1.000  H
  H111     1.0000 0.49230  0.16480  0.22220  Biso   1.000  H
  H112     1.0000 0.51880  0.11460  0.17840  Biso   1.000  H
  N33      1.0000 0.02657  0.53378  0.90650  Biso   1.000  N
  N34      1.0000 0.03070  0.49530  0.85660  Biso   1.000  N
  H113     1.0000 0.01540  0.46120  0.86170  Biso   1.000  H
  N35      1.0000 0.17658  0.68519  0.75220  Biso   1.000  N
  N36      1.0000 0.12870  0.69030  0.71280  Biso   1.000  N
  H114     1.0000 0.96430  0.61640  0.06420  Biso   1.000  H
  C81      1.0000 0.04940  0.58560  0.88460  Biso   1.000  C
  C82      1.0000 0.06880  0.57930  0.82160  Biso   1.000  C
  C83      1.0000 0.05550  0.52050  0.80480  Biso   1.000  C
  C84      1.0000 0.06550  0.48710  0.74470  Biso   1.000  C
  H115     1.0000 0.04990  0.44730  0.74890  Biso   1.000  H
  H116     1.0000 0.10780  0.48520  0.73670  Biso   1.000  H
  H117     1.0000 0.04600  0.50700  0.71000  Biso   1.000  H
  C85      1.0000 0.05050  0.64180  0.92270  Biso   1.000  C
  H118     1.0000 0.03450  0.63450  0.96430  Biso   1.000  H
  H119     1.0000 0.02710  0.67190  0.90180  Biso   1.000  H
  H120     1.0000 0.09120  0.65520  0.92640  Biso   1.000  H
  C86      1.0000 0.08270  0.65480  0.73040  Biso   1.000  C
  C87      1.0000 0.10140  0.62430  0.78310  Biso   1.000  C
  C88      1.0000 0.89480  0.59010  0.95380  Biso   1.000  C
  C89      1.0000 0.87480  0.55060  0.90110  Biso   1.000  C
  H121     1.0000 0.89560  0.51310  0.90420  Biso   1.000  H
  H122     1.0000 0.83240  0.54370  0.90390  Biso   1.000  H
  H123     1.0000 0.88400  0.56930  0.86130  Biso   1.000  H
  C90      1.0000 0.90430  0.72510  0.05530  Biso   1.000  C
  H124     1.0000 0.93220  0.72320  0.09000  Biso   1.000  H
  H125     1.0000 0.91480  0.75770  0.02780  Biso   1.000  H
  H126     1.0000 0.86460  0.73120  0.07160  Biso   1.000  H
  N37      1.0000 0.52657  0.03378  0.40650  Biso   1.000  N
  N38      1.0000 0.53070  0.99530  0.35660  Biso   1.000  N
  H127     1.0000 0.51540  0.96120  0.36170  Biso   1.000  H
  N39      1.0000 0.67658  0.18519  0.25220  Biso   1.000  N
  N40      1.0000 0.62870  0.19030  0.21280  Biso   1.000  N
  H128     1.0000 0.46430  0.11640  0.56420  Biso   1.000  H
  C91      1.0000 0.54940  0.08560  0.38460  Biso   1.000  C
  C92      1.0000 0.56880  0.07930  0.32160  Biso   1.000  C
  C93      1.0000 0.55550  0.02050  0.30480  Biso   1.000  C
  C94      1.0000 0.56550  0.98710  0.24470  Biso   1.000  C
  H129     1.0000 0.54990  0.94730  0.24890  Biso   1.000  H
  H130     1.0000 0.60780  0.98520  0.23670  Biso   1.000  H
  H131     1.0000 0.54600  0.00700  0.21000  Biso   1.000  H
  C95      1.0000 0.55050  0.14180  0.42270  Biso   1.000  C
  H132     1.0000 0.53450  0.13450  0.46430  Biso   1.000  H
  H133     1.0000 0.52710  0.17190  0.40180  Biso   1.000  H
  H134     1.0000 0.59120  0.15520  0.42640  Biso   1.000  H
  C96      1.0000 0.58270  0.15480  0.23040  Biso   1.000  C
  C97      1.0000 0.60140  0.12430  0.28310  Biso   1.000  C
  C98      1.0000 0.39480  0.09010  0.45380  Biso   1.000  C
  C99      1.0000 0.37480  0.05060  0.40110  Biso   1.000  C
  H135     1.0000 0.39560  0.01310  0.40420  Biso   1.000  H
  H136     1.0000 0.33240  0.04370  0.40390  Biso   1.000  H
  H137     1.0000 0.38400  0.06930  0.36130  Biso   1.000  H
  C100     1.0000 0.40430  0.22510  0.55530  Biso   1.000  C
  H138     1.0000 0.43220  0.22320  0.59000  Biso   1.000  H
  H139     1.0000 0.41480  0.25770  0.52780  Biso   1.000  H
  H140     1.0000 0.36460  0.23120  0.57160  Biso   1.000  H
  N41      1.0000 0.47343  0.46622  0.40650  Biso   1.000  N
  N42      1.0000 0.46930  0.50470  0.35660  Biso   1.000  N
  H141     1.0000 0.48460  0.53880  0.36170  Biso   1.000  H
  N43      1.0000 0.32342  0.31481  0.25220  Biso   1.000  N
  N44      1.0000 0.37130  0.30970  0.21280  Biso   1.000  N
  H142     1.0000 0.53570  0.38360  0.56420  Biso   1.000  H
  C101     1.0000 0.45060  0.41440  0.38460  Biso   1.000  C
  C102     1.0000 0.43120  0.42070  0.32160  Biso   1.000  C
  C103     1.0000 0.44450  0.47950  0.30480  Biso   1.000  C
  C104     1.0000 0.43450  0.51290  0.24470  Biso   1.000  C
  H143     1.0000 0.45010  0.55270  0.24890  Biso   1.000  H
  H144     1.0000 0.39220  0.51480  0.23670  Biso   1.000  H
  H145     1.0000 0.45400  0.49300  0.21000  Biso   1.000  H
  C105     1.0000 0.44950  0.35820  0.42270  Biso   1.000  C
  H146     1.0000 0.46550  0.36550  0.46430  Biso   1.000  H
  H147     1.0000 0.47290  0.32810  0.40180  Biso   1.000  H
  H148     1.0000 0.40880  0.34480  0.42640  Biso   1.000  H
  C106     1.0000 0.41730  0.34520  0.23040  Biso   1.000  C
  C107     1.0000 0.39860  0.37570  0.28310  Biso   1.000  C
  C108     1.0000 0.60520  0.40990  0.45380  Biso   1.000  C
  C109     1.0000 0.62520  0.44940  0.40110  Biso   1.000  C
  H149     1.0000 0.60440  0.48690  0.40420  Biso   1.000  H
  H150     1.0000 0.66760  0.45630  0.40390  Biso   1.000  H
  H151     1.0000 0.61600  0.43070  0.36130  Biso   1.000  H
  C110     1.0000 0.59570  0.27490  0.55530  Biso   1.000  C
  H152     1.0000 0.56780  0.27680  0.59000  Biso   1.000  H
  H153     1.0000 0.58520  0.24230  0.52780  Biso   1.000  H
  H154     1.0000 0.63540  0.26880  0.57160  Biso   1.000  H
  N45      1.0000 0.97343  0.96622  0.90650  Biso   1.000  N
  N46      1.0000 0.96930  0.00470  0.85660  Biso   1.000  N
  H155     1.0000 0.98460  0.03880  0.86170  Biso   1.000  H
  N47      1.0000 0.82342  0.81481  0.75220  Biso   1.000  N
  N48      1.0000 0.87130  0.80970  0.71280  Biso   1.000  N
  H156     1.0000 0.03570  0.88360  0.06420  Biso   1.000  H
  C111     1.0000 0.95060  0.91440  0.88460  Biso   1.000  C
  C112     1.0000 0.93120  0.92070  0.82160  Biso   1.000  C
  C113     1.0000 0.94450  0.97950  0.80480  Biso   1.000  C
  C114     1.0000 0.93450  0.01290  0.74470  Biso   1.000  C
  H157     1.0000 0.95010  0.05270  0.74890  Biso   1.000  H
  H158     1.0000 0.89220  0.01480  0.73670  Biso   1.000  H
  H159     1.0000 0.95400  0.99300  0.71000  Biso   1.000  H
  C115     1.0000 0.94950  0.85820  0.92270  Biso   1.000  C
  H160     1.0000 0.96550  0.86550  0.96430  Biso   1.000  H
  H161     1.0000 0.97290  0.82810  0.90180  Biso   1.000  H
  H162     1.0000 0.90880  0.84480  0.92640  Biso   1.000  H
  C116     1.0000 0.91730  0.84520  0.73040  Biso   1.000  C
  C117     1.0000 0.89860  0.87570  0.78310  Biso   1.000  C
  C118     1.0000 0.10520  0.90990  0.95380  Biso   1.000  C
  C119     1.0000 0.12520  0.94940  0.90110  Biso   1.000  C
  H163     1.0000 0.10440  0.98690  0.90420  Biso   1.000  H
  H164     1.0000 0.16760  0.95630  0.90390  Biso   1.000  H
  H165     1.0000 0.11600  0.93070  0.86130  Biso   1.000  H
  C120     1.0000 0.09570  0.77490  0.05530  Biso   1.000  C
  H166     1.0000 0.06780  0.77680  0.09000  Biso   1.000  H
  H167     1.0000 0.08520  0.74230  0.02780  Biso   1.000  H
  H168     1.0000 0.13540  0.76880  0.07160  Biso   1.000  H
  N49      1.0000 0.71622  0.77657  0.65650  Biso   1.000  N
  N50      1.0000 0.75470  0.78070  0.60660  Biso   1.000  N
  H169     1.0000 0.78880  0.76540  0.61170  Biso   1.000  H
  N51      1.0000 0.56481  0.92658  0.50220  Biso   1.000  N
  N52      1.0000 0.55970  0.87870  0.46280  Biso   1.000  N
  H170     1.0000 0.63360  0.71430  0.81420  Biso   1.000  H
  C121     1.0000 0.66440  0.79940  0.63460  Biso   1.000  C
  C122     1.0000 0.67070  0.81880  0.57160  Biso   1.000  C
  C123     1.0000 0.72950  0.80550  0.55480  Biso   1.000  C
  C124     1.0000 0.76290  0.81550  0.49470  Biso   1.000  C
  H171     1.0000 0.80270  0.79990  0.49890  Biso   1.000  H
  H172     1.0000 0.76480  0.85780  0.48670  Biso   1.000  H
  H173     1.0000 0.74300  0.79600  0.46000  Biso   1.000  H
  C125     1.0000 0.60820  0.80050  0.67270  Biso   1.000  C
  H174     1.0000 0.61550  0.78450  0.71430  Biso   1.000  H
  H175     1.0000 0.57810  0.77710  0.65180  Biso   1.000  H
  H176     1.0000 0.59480  0.84120  0.67640  Biso   1.000  H
  C126     1.0000 0.59520  0.83270  0.48040  Biso   1.000  C
  C127     1.0000 0.62570  0.85140  0.53310  Biso   1.000  C
  C128     1.0000 0.65990  0.64480  0.70380  Biso   1.000  C
  C129     1.0000 0.69940  0.62480  0.65110  Biso   1.000  C
  H177     1.0000 0.73690  0.64560  0.65420  Biso   1.000  H
  H178     1.0000 0.70630  0.58240  0.65390  Biso   1.000  H
  H179     1.0000 0.68070  0.63400  0.61130  Biso   1.000  H
  C130     1.0000 0.52490  0.65430  0.80530  Biso   1.000  C
  H180     1.0000 0.52680  0.68220  0.84000  Biso   1.000  H
  H181     1.0000 0.49230  0.66480  0.77780  Biso   1.000  H
  H182     1.0000 0.51880  0.61460  0.82160  Biso   1.000  H
  N53      1.0000 0.21622  0.27657  0.15650  Biso   1.000  N
  N54      1.0000 0.25470  0.28070  0.10660  Biso   1.000  N
  H183     1.0000 0.28880  0.26540  0.11170  Biso   1.000  H
  N55      1.0000 0.06481  0.42658  0.00220  Biso   1.000  N
  N56      1.0000 0.05970  0.37870  0.96280  Biso   1.000  N
  H184     1.0000 0.13360  0.21430  0.31420  Biso   1.000  H
  C131     1.0000 0.16440  0.29940  0.13460  Biso   1.000  C
  C132     1.0000 0.17070  0.31880  0.07160  Biso   1.000  C
  C133     1.0000 0.22950  0.30550  0.05480  Biso   1.000  C
  C134     1.0000 0.26290  0.31550  0.99470  Biso   1.000  C
  H185     1.0000 0.30270  0.29990  0.99890  Biso   1.000  H
  H186     1.0000 0.26480  0.35780  0.98670  Biso   1.000  H
  H187     1.0000 0.24300  0.29600  0.96000  Biso   1.000  H
  C135     1.0000 0.10820  0.30050  0.17270  Biso   1.000  C
  H188     1.0000 0.11550  0.28450  0.21430  Biso   1.000  H
  H189     1.0000 0.07810  0.27710  0.15180  Biso   1.000  H
  H190     1.0000 0.09480  0.34120  0.17640  Biso   1.000  H
  C136     1.0000 0.09520  0.33270  0.98040  Biso   1.000  C
  C137     1.0000 0.12570  0.35140  0.03310  Biso   1.000  C
  C138     1.0000 0.15990  0.14480  0.20380  Biso   1.000  C
  C139     1.0000 0.19940  0.12480  0.15110  Biso   1.000  C
  H191     1.0000 0.23690  0.14560  0.15420  Biso   1.000  H
  H192     1.0000 0.20630  0.08240  0.15390  Biso   1.000  H
  H193     1.0000 0.18070  0.13400  0.11130  Biso   1.000  H
  C140     1.0000 0.02490  0.15430  0.30530  Biso   1.000  C
  H194     1.0000 0.02680  0.18220  0.34000  Biso   1.000  H
  H195     1.0000 0.99230  0.16480  0.27780  Biso   1.000  H
  H196     1.0000 0.01880  0.11460  0.32160  Biso   1.000  H
  N57      1.0000 0.78378  0.22343  0.15650  Biso   1.000  N
  N58      1.0000 0.74530  0.21930  0.10660  Biso   1.000  N
  H197     1.0000 0.71120  0.23460  0.11170  Biso   1.000  H
  N59      1.0000 0.93519  0.07342  0.00220  Biso   1.000  N
  N60      1.0000 0.94030  0.12130  0.96280  Biso   1.000  N
  H198     1.0000 0.86640  0.28570  0.31420  Biso   1.000  H
  C141     1.0000 0.83560  0.20060  0.13460  Biso   1.000  C
  C142     1.0000 0.82930  0.18120  0.07160  Biso   1.000  C
  C143     1.0000 0.77050  0.19450  0.05480  Biso   1.000  C
  C144     1.0000 0.73710  0.18450  0.99470  Biso   1.000  C
  H199     1.0000 0.69730  0.20010  0.99890  Biso   1.000  H
  H200     1.0000 0.73520  0.14220  0.98670  Biso   1.000  H
  H201     1.0000 0.75700  0.20400  0.96000  Biso   1.000  H
  C145     1.0000 0.89180  0.19950  0.17270  Biso   1.000  C
  H202     1.0000 0.88450  0.21550  0.21430  Biso   1.000  H
  H203     1.0000 0.92190  0.22290  0.15180  Biso   1.000  H
  H204     1.0000 0.90520  0.15880  0.17640  Biso   1.000  H
  C146     1.0000 0.90480  0.16730  0.98040  Biso   1.000  C
  C147     1.0000 0.87430  0.14860  0.03310  Biso   1.000  C
  C148     1.0000 0.84010  0.35520  0.20380  Biso   1.000  C
  C149     1.0000 0.80060  0.37520  0.15110  Biso   1.000  C
  H205     1.0000 0.76310  0.35440  0.15420  Biso   1.000  H
  H206     1.0000 0.79370  0.41760  0.15390  Biso   1.000  H
  H207     1.0000 0.81930  0.36600  0.11130  Biso   1.000  H
  C150     1.0000 0.97510  0.34570  0.30530  Biso   1.000  C
  H208     1.0000 0.97320  0.31780  0.34000  Biso   1.000  H
  H209     1.0000 0.00770  0.33520  0.27780  Biso   1.000  H
  H210     1.0000 0.98120  0.38540  0.32160  Biso   1.000  H
  N61      1.0000 0.28378  0.72343  0.65650  Biso   1.000  N
  N62      1.0000 0.24530  0.71930  0.60660  Biso   1.000  N
  H211     1.0000 0.21120  0.73460  0.61170  Biso   1.000  H
  N63      1.0000 0.43519  0.57342  0.50220  Biso   1.000  N
  N64      1.0000 0.44030  0.62130  0.46280  Biso   1.000  N
  H212     1.0000 0.36640  0.78570  0.81420  Biso   1.000  H
  C151     1.0000 0.33560  0.70060  0.63460  Biso   1.000  C
  C152     1.0000 0.32930  0.68120  0.57160  Biso   1.000  C
  C153     1.0000 0.27050  0.69450  0.55480  Biso   1.000  C
  C154     1.0000 0.23710  0.68450  0.49470  Biso   1.000  C
  H213     1.0000 0.19730  0.70010  0.49890  Biso   1.000  H
  H214     1.0000 0.23520  0.64220  0.48670  Biso   1.000  H
  H215     1.0000 0.25700  0.70400  0.46000  Biso   1.000  H
  C155     1.0000 0.39180  0.69950  0.67270  Biso   1.000  C
  H216     1.0000 0.38450  0.71550  0.71430  Biso   1.000  H
  H217     1.0000 0.42190  0.72290  0.65180  Biso   1.000  H
  H218     1.0000 0.40520  0.65880  0.67640  Biso   1.000  H
  C156     1.0000 0.40480  0.66730  0.48040  Biso   1.000  C
  C157     1.0000 0.37430  0.64860  0.53310  Biso   1.000  C
  C158     1.0000 0.34010  0.85520  0.70380  Biso   1.000  C
  C159     1.0000 0.30060  0.87520  0.65110  Biso   1.000  C
  H219     1.0000 0.26310  0.85440  0.65420  Biso   1.000  H
  H220     1.0000 0.29370  0.91760  0.65390  Biso   1.000  H
  H221     1.0000 0.31930  0.86600  0.61130  Biso   1.000  H
  C160     1.0000 0.47510  0.84570  0.80530  Biso   1.000  C
  H222     1.0000 0.47320  0.81780  0.84000  Biso   1.000  H
  H223     1.0000 0.50770  0.83520  0.77780  Biso   1.000  H
  H224     1.0000 0.48120  0.88540  0.82160  Biso   1.000  H
  Co1      1.0000 0.00000  0.50000  0.00000  Biso   1.000  Co
  Co2      1.0000 0.50000  0.00000  0.50000  Biso   1.000  Co
  Co3      1.0000 0.50000  0.50000  0.50000  Biso   1.000  Co
  Co4      1.0000 0.00000  0.00000  0.00000  Biso   1.000  Co
  Co5      1.0000 0.25000  0.25000  0.25000  Biso   1.000  Co
  Co6      1.0000 0.75000  0.75000  0.75000  Biso   1.000  Co
  Co7      1.0000 0.25000  0.75000  0.75000  Biso   1.000  Co
  Co8      1.0000 0.75000  0.25000  0.25000  Biso   1.000  Co
