data_XENMOU_clean
_audit_creation_date              2015-05-19
_audit_creation_method            'Materials Studio'
_symmetry_space_group_name_H-M    'P1'
_symmetry_Int_Tables_number       1
_symmetry_cell_setting            triclinic
loop_
_symmetry_equiv_pos_as_xyz
  x,y,z
_cell_length_a                    6.3303
_cell_length_b                    12.6819
_cell_length_c                    15.6877
_cell_angle_alpha                 95.7110
_cell_angle_beta                  99.7730
_cell_angle_gamma                 97.9730
loop_
_atom_site_label
_atom_site_type_symbol
_atom_site_fract_x
_atom_site_fract_y
_atom_site_fract_z
_atom_site_U_iso_or_equiv
_atom_site_adp_type
_atom_site_occupancy
Zn1    Zn    0.51997   0.95383   0.10046   0.01267  Uiso   1.00
Zn2    Zn    0.05860   0.96181   0.18612   0.01267  Uiso   1.00
H3     H     0.18820   0.73210   0.35650   0.01267  Uiso   1.00
H4     H     0.57910   0.51410   0.41200   0.01267  Uiso   1.00
H5     H     0.64050   0.68350   0.21130   0.01267  Uiso   1.00
H6     H     0.11800   0.45970   0.25310   0.01267  Uiso   1.00
H7     H     0.10440   0.30720   0.15830   0.01267  Uiso   1.00
H8     H     0.45590   0.27030   0.10830   0.01267  Uiso   1.00
H9     H     0.46900   0.42400   0.20370   0.01267  Uiso   1.00
H10    H     0.93250   0.61570   0.52780   0.01267  Uiso   1.00
H11    H     0.89730   0.74600   0.63610   0.01267  Uiso   1.00
H12    H     0.52020   0.87400   0.65610   0.01267  Uiso   1.00
H13    H     0.55150   0.74730   0.54320   0.01267  Uiso   1.00
H14    H     0.71100   0.91350   0.87600   0.01267  Uiso   1.00
C15    C     0.32980   0.80320   0.22010   0.01267  Uiso   1.00
C16    C     0.40190   0.72010   0.27510   0.01267  Uiso   1.00
C17    C     0.30040   0.69650   0.34430   0.01267  Uiso   1.00
C18    C     0.36700   0.61980   0.39480   0.01267  Uiso   1.00
C19    C     0.53510   0.56600   0.37810   0.01267  Uiso   1.00
C20    C     0.63580   0.59210   0.30910   0.01267  Uiso   1.00
C21    C     0.57150   0.66770   0.25730   0.01267  Uiso   1.00
C22    C     0.79390   0.45600   0.23830   0.01267  Uiso   1.00
C23    C     0.98470   0.42150   0.22430   0.01267  Uiso   1.00
C24    C     0.97600   0.33040   0.16740   0.01267  Uiso   1.00
C25    C     0.77880   0.27270   0.12340   0.01267  Uiso   1.00
C26    C     0.58930   0.30820   0.13740   0.01267  Uiso   1.00
C27    C     0.59700   0.40020   0.19470   0.01267  Uiso   1.00
C28    C     0.77490   0.17300   0.06360   0.01267  Uiso   1.00
C29    C     0.24430   0.67080   0.52460   0.01267  Uiso   1.00
C30    C     0.04970   0.66870   0.55260   0.01267  Uiso   1.00
C31    C     0.02990   0.74590   0.61810   0.01267  Uiso   1.00
C32    C     0.20520   0.82300   0.65710   0.01267  Uiso   1.00
C33    C     0.40100   0.82300   0.62960   0.01267  Uiso   1.00
C34    C     0.42030   0.74680   0.56240   0.01267  Uiso   1.00
C35    C     0.18520   0.90660   0.72890   0.01267  Uiso   1.00
O36    O     0.74970   0.98040   0.89220   0.01267  Uiso   1.00
O37    O     0.18700   0.08210   0.91300   0.01267  Uiso   1.00
O38    O     0.42010   0.81840   0.15580   0.01267  Uiso   1.00
O39    O     0.18160   0.85150   0.24300   0.01267  Uiso   1.00
O40    O     0.81910   0.54620   0.29740   0.01267  Uiso   1.00
O41    O     0.95280   0.15120   0.04790   0.01267  Uiso   1.00
O42    O     0.59110   0.11520   0.03250   0.01267  Uiso   1.00
O43    O     0.26140   0.58900   0.46110   0.01267  Uiso   1.00
O44    O     0.35400   0.95480   0.77690   0.01267  Uiso   1.00
O45    O     0.99200   0.92230   0.73430   0.01267  Uiso   1.00
H46    H     0.81300   0.83865   0.08063   0.01267  Uiso   1.00
Zn47   Zn    0.48003   0.04617   0.89954   0.01267  Uiso   1.00
Zn48   Zn    0.94140   0.03819   0.81388   0.01267  Uiso   1.00
H49    H     0.81180   0.26790   0.64350   0.01267  Uiso   1.00
H50    H     0.42090   0.48590   0.58800   0.01267  Uiso   1.00
H51    H     0.35950   0.31650   0.78870   0.01267  Uiso   1.00
H52    H     0.88200   0.54030   0.74690   0.01267  Uiso   1.00
H53    H     0.89560   0.69280   0.84170   0.01267  Uiso   1.00
H54    H     0.54410   0.72970   0.89170   0.01267  Uiso   1.00
H55    H     0.53100   0.57600   0.79630   0.01267  Uiso   1.00
H56    H     0.06750   0.38430   0.47220   0.01267  Uiso   1.00
H57    H     0.10270   0.25400   0.36390   0.01267  Uiso   1.00
H58    H     0.47980   0.12600   0.34390   0.01267  Uiso   1.00
H59    H     0.44850   0.25270   0.45680   0.01267  Uiso   1.00
H60    H     0.28900   0.08650   0.12400   0.01267  Uiso   1.00
C61    C     0.67020   0.19680   0.77990   0.01267  Uiso   1.00
C62    C     0.59810   0.27990   0.72490   0.01267  Uiso   1.00
C63    C     0.69960   0.30350   0.65570   0.01267  Uiso   1.00
C64    C     0.63300   0.38020   0.60520   0.01267  Uiso   1.00
C65    C     0.46490   0.43400   0.62190   0.01267  Uiso   1.00
C66    C     0.36420   0.40790   0.69090   0.01267  Uiso   1.00
C67    C     0.42850   0.33230   0.74270   0.01267  Uiso   1.00
C68    C     0.20610   0.54400   0.76170   0.01267  Uiso   1.00
C69    C     0.01530   0.57850   0.77570   0.01267  Uiso   1.00
C70    C     0.02400   0.66960   0.83260   0.01267  Uiso   1.00
C71    C     0.22120   0.72730   0.87660   0.01267  Uiso   1.00
C72    C     0.41070   0.69180   0.86260   0.01267  Uiso   1.00
C73    C     0.40300   0.59980   0.80530   0.01267  Uiso   1.00
C74    C     0.22510   0.82700   0.93640   0.01267  Uiso   1.00
C75    C     0.75570   0.32920   0.47540   0.01267  Uiso   1.00
C76    C     0.95030   0.33130   0.44740   0.01267  Uiso   1.00
C77    C     0.97010   0.25410   0.38190   0.01267  Uiso   1.00
C78    C     0.79480   0.17700   0.34290   0.01267  Uiso   1.00
C79    C     0.59900   0.17700   0.37040   0.01267  Uiso   1.00
C80    C     0.57970   0.25320   0.43760   0.01267  Uiso   1.00
C81    C     0.81480   0.09340   0.27110   0.01267  Uiso   1.00
O82    O     0.25030   0.01960   0.10780   0.01267  Uiso   1.00
O83    O     0.81300   0.91790   0.08700   0.01267  Uiso   1.00
O84    O     0.57990   0.18160   0.84420   0.01267  Uiso   1.00
O85    O     0.81840   0.14850   0.75700   0.01267  Uiso   1.00
O86    O     0.18090   0.45380   0.70260   0.01267  Uiso   1.00
O87    O     0.04720   0.84880   0.95210   0.01267  Uiso   1.00
O88    O     0.40890   0.88480   0.96750   0.01267  Uiso   1.00
O89    O     0.73860   0.41100   0.53890   0.01267  Uiso   1.00
O90    O     0.64600   0.04520   0.22310   0.01267  Uiso   1.00
O91    O     0.00800   0.07770   0.26570   0.01267  Uiso   1.00
H92    H     0.18700   0.16135   0.91937   0.01267  Uiso   1.00
Zn93   Zn   -0.00000   0.00000   0.00000   0.01267  Uiso   1.00
