data_image0
_cell_length_a       18.079
_cell_length_b       16.435
_cell_length_c       11.603
_cell_angle_alpha    90
_cell_angle_beta     90
_cell_angle_gamma    90

_symmetry_space_group_name_H-M    "P 1"
_symmetry_int_tables_number       1

loop_
  _symmetry_equiv_pos_as_xyz
  'x, y, z'

loop_
  _atom_site_label
  _atom_site_occupancy
  _atom_site_fract_x
  _atom_site_fract_y
  _atom_site_fract_z
  _atom_site_thermal_displace_type
  _atom_site_B_iso_or_equiv
  _atom_site_type_symbol
  V1       1.0000 0.30264  0.08712  0.62800  Biso   1.000  V
  Li1      1.0000 0.22620  0.10260  0.86060  Biso   1.000  Li
  O1       1.0000 0.30380  0.08590  0.42090  Biso   1.000  O
  O2       1.0000 0.30015  0.97937  0.53260  Biso   1.000  O
  O3       1.0000 0.30007  0.04415  0.75160  Biso   1.000  O
  O4       1.0000 0.20176  0.70537  0.16650  Biso   1.000  O
  O5       1.0000 0.40865  0.10413  0.59850  Biso   1.000  O
  O6       1.0000 0.22140  0.07370  0.01940  Biso   1.000  O
  O7       1.0000 0.19120  0.95570  0.94020  Biso   1.000  O
  O8       1.0000 0.46220  0.14460  0.76170  Biso   1.000  O
  O9       1.0000 0.22470  0.70990  0.35660  Biso   1.000  O
  O10      1.0000 0.64580  0.36800  0.75450  Biso   1.000  O
  O11      1.0000 0.69638  0.39930  0.58560  Biso   1.000  O
  O12      1.0000 0.53210  0.36210  0.24090  Biso   1.000  O
  O13      1.0000 0.46810  0.24860  0.23150  Biso   1.000  O
  C1       1.0000 0.29280  0.01210  0.43380  Biso   1.000  C
  C2       1.0000 0.26720  0.95990  0.33400  Biso   1.000  C
  C3       1.0000 0.25130  0.99950  0.23050  Biso   1.000  C
  H1       1.0000 0.25890  0.05530  0.22410  Biso   1.000  H
  C4       1.0000 0.22400  0.95570  0.13640  Biso   1.000  C
  C5       1.0000 0.21310  0.87270  0.14770  Biso   1.000  C
  H2       1.0000 0.19510  0.84320  0.08530  Biso   1.000  H
  C6       1.0000 0.22840  0.83240  0.25050  Biso   1.000  C
  C7       1.0000 0.25660  0.87700  0.34280  Biso   1.000  C
  H3       1.0000 0.26830  0.85050  0.41120  Biso   1.000  H
  C8       1.0000 0.21140  0.99810  0.02180  Biso   1.000  C
  C9       1.0000 0.48050  0.22560  0.47260  Biso   1.000  C
  H4       1.0000 0.44470  0.19480  0.43510  Biso   1.000  H
  C10      1.0000 0.64720  0.36550  0.64750  Biso   1.000  C
  C11      1.0000 0.54810  0.25940  0.64510  Biso   1.000  C
  H5       1.0000 0.55650  0.25160  0.72340  Biso   1.000  H
  C12      1.0000 0.45180  0.15060  0.65780  Biso   1.000  C
  C13      1.0000 0.21750  0.74250  0.26080  Biso   1.000  C
  C14      1.0000 0.51960  0.28530  0.41220  Biso   1.000  C
  C15      1.0000 0.49510  0.21230  0.58870  Biso   1.000  C
  C16      1.0000 0.50510  0.29960  0.28360  Biso   1.000  C
  C17      1.0000 0.58820  0.31740  0.58610  Biso   1.000  C
  C18      1.0000 0.57410  0.32990  0.46870  Biso   1.000  C
  H6       1.0000 0.60140  0.36840  0.42810  Biso   1.000  H
  V2       1.0000 0.69736  0.91288  0.12800  Biso   1.000  V
  Li2      1.0000 0.77380  0.89740  0.36060  Biso   1.000  Li
  O14      1.0000 0.69620  0.91410  0.92090  Biso   1.000  O
  O15      1.0000 0.69985  0.02063  0.03260  Biso   1.000  O
  O16      1.0000 0.69993  0.95585  0.25160  Biso   1.000  O
  O17      1.0000 0.79824  0.29463  0.66650  Biso   1.000  O
  O18      1.0000 0.59135  0.89587  0.09850  Biso   1.000  O
  O19      1.0000 0.77860  0.92630  0.51940  Biso   1.000  O
  O20      1.0000 0.80880  0.04430  0.44020  Biso   1.000  O
  O21      1.0000 0.53780  0.85540  0.26170  Biso   1.000  O
  O22      1.0000 0.77530  0.29010  0.85660  Biso   1.000  O
  O23      1.0000 0.35420  0.63200  0.25450  Biso   1.000  O
  O24      1.0000 0.30362  0.60070  0.08560  Biso   1.000  O
  O25      1.0000 0.46790  0.63790  0.74090  Biso   1.000  O
  O26      1.0000 0.53190  0.75140  0.73150  Biso   1.000  O
  C19      1.0000 0.70720  0.98790  0.93380  Biso   1.000  C
  C20      1.0000 0.73280  0.04010  0.83400  Biso   1.000  C
  C21      1.0000 0.74870  0.00050  0.73050  Biso   1.000  C
  H7       1.0000 0.74110  0.94470  0.72410  Biso   1.000  H
  C22      1.0000 0.77600  0.04430  0.63640  Biso   1.000  C
  C23      1.0000 0.78690  0.12730  0.64770  Biso   1.000  C
  H8       1.0000 0.80490  0.15680  0.58530  Biso   1.000  H
  C24      1.0000 0.77160  0.16760  0.75050  Biso   1.000  C
  C25      1.0000 0.74340  0.12300  0.84280  Biso   1.000  C
  H9       1.0000 0.73170  0.14950  0.91120  Biso   1.000  H
  C26      1.0000 0.78860  0.00190  0.52180  Biso   1.000  C
  C27      1.0000 0.51950  0.77440  0.97260  Biso   1.000  C
  H10      1.0000 0.55530  0.80520  0.93510  Biso   1.000  H
  C28      1.0000 0.35280  0.63450  0.14750  Biso   1.000  C
  C29      1.0000 0.45190  0.74060  0.14510  Biso   1.000  C
  H11      1.0000 0.44350  0.74840  0.22340  Biso   1.000  H
  C30      1.0000 0.54820  0.84940  0.15780  Biso   1.000  C
  C31      1.0000 0.78250  0.25750  0.76080  Biso   1.000  C
  C32      1.0000 0.48040  0.71470  0.91220  Biso   1.000  C
  C33      1.0000 0.50490  0.78770  0.08870  Biso   1.000  C
  C34      1.0000 0.49490  0.70040  0.78360  Biso   1.000  C
  C35      1.0000 0.41180  0.68260  0.08610  Biso   1.000  C
  C36      1.0000 0.42590  0.67010  0.96870  Biso   1.000  C
  H12      1.0000 0.39860  0.63160  0.92810  Biso   1.000  H
  V3       1.0000 0.80264  0.41288  0.62800  Biso   1.000  V
  Li3      1.0000 0.72620  0.39740  0.86060  Biso   1.000  Li
  O27      1.0000 0.80380  0.41410  0.42090  Biso   1.000  O
  O28      1.0000 0.80015  0.52063  0.53260  Biso   1.000  O
  O29      1.0000 0.80007  0.45585  0.75160  Biso   1.000  O
  O30      1.0000 0.70176  0.79463  0.16650  Biso   1.000  O
  O31      1.0000 0.90865  0.39587  0.59850  Biso   1.000  O
  O32      1.0000 0.72140  0.42630  0.01940  Biso   1.000  O
  O33      1.0000 0.69120  0.54430  0.94020  Biso   1.000  O
  O34      1.0000 0.96220  0.35540  0.76170  Biso   1.000  O
  O35      1.0000 0.72470  0.79010  0.35660  Biso   1.000  O
  O36      1.0000 0.14580  0.13200  0.75450  Biso   1.000  O
  O37      1.0000 0.19638  0.10070  0.58560  Biso   1.000  O
  O38      1.0000 0.03210  0.13790  0.24090  Biso   1.000  O
  O39      1.0000 0.96810  0.25140  0.23150  Biso   1.000  O
  C37      1.0000 0.79280  0.48790  0.43380  Biso   1.000  C
  C38      1.0000 0.76720  0.54010  0.33400  Biso   1.000  C
  C39      1.0000 0.75130  0.50050  0.23050  Biso   1.000  C
  H13      1.0000 0.75890  0.44470  0.22410  Biso   1.000  H
  C40      1.0000 0.72400  0.54430  0.13640  Biso   1.000  C
  C41      1.0000 0.71310  0.62730  0.14770  Biso   1.000  C
  H14      1.0000 0.69510  0.65680  0.08530  Biso   1.000  H
  C42      1.0000 0.72840  0.66760  0.25050  Biso   1.000  C
  C43      1.0000 0.75660  0.62300  0.34280  Biso   1.000  C
  H15      1.0000 0.76830  0.64950  0.41120  Biso   1.000  H
  C44      1.0000 0.71140  0.50190  0.02180  Biso   1.000  C
  C45      1.0000 0.98050  0.27440  0.47260  Biso   1.000  C
  H16      1.0000 0.94470  0.30520  0.43510  Biso   1.000  H
  C46      1.0000 0.14720  0.13450  0.64750  Biso   1.000  C
  C47      1.0000 0.04810  0.24060  0.64510  Biso   1.000  C
  H17      1.0000 0.05650  0.24840  0.72340  Biso   1.000  H
  C48      1.0000 0.95180  0.34940  0.65780  Biso   1.000  C
  C49      1.0000 0.71750  0.75750  0.26080  Biso   1.000  C
  C50      1.0000 0.01960  0.21470  0.41220  Biso   1.000  C
  C51      1.0000 0.99510  0.28770  0.58870  Biso   1.000  C
  C52      1.0000 0.00510  0.20040  0.28360  Biso   1.000  C
  C53      1.0000 0.08820  0.18260  0.58610  Biso   1.000  C
  C54      1.0000 0.07410  0.17010  0.46870  Biso   1.000  C
  H18      1.0000 0.10140  0.13160  0.42810  Biso   1.000  H
  V4       1.0000 0.19736  0.58712  0.12800  Biso   1.000  V
  Li4      1.0000 0.27380  0.60260  0.36060  Biso   1.000  Li
  O40      1.0000 0.19620  0.58590  0.92090  Biso   1.000  O
  O41      1.0000 0.19985  0.47937  0.03260  Biso   1.000  O
  O42      1.0000 0.19993  0.54415  0.25160  Biso   1.000  O
  O43      1.0000 0.29824  0.20537  0.66650  Biso   1.000  O
  O44      1.0000 0.09135  0.60413  0.09850  Biso   1.000  O
  O45      1.0000 0.27860  0.57370  0.51940  Biso   1.000  O
  O46      1.0000 0.30880  0.45570  0.44020  Biso   1.000  O
  O47      1.0000 0.03780  0.64460  0.26170  Biso   1.000  O
  O48      1.0000 0.27530  0.20990  0.85660  Biso   1.000  O
  O49      1.0000 0.85420  0.86800  0.25450  Biso   1.000  O
  O50      1.0000 0.80362  0.89930  0.08560  Biso   1.000  O
  O51      1.0000 0.96790  0.86210  0.74090  Biso   1.000  O
  O52      1.0000 0.03190  0.74860  0.73150  Biso   1.000  O
  C55      1.0000 0.20720  0.51210  0.93380  Biso   1.000  C
  C56      1.0000 0.23280  0.45990  0.83400  Biso   1.000  C
  C57      1.0000 0.24870  0.49950  0.73050  Biso   1.000  C
  H19      1.0000 0.24110  0.55530  0.72410  Biso   1.000  H
  C58      1.0000 0.27600  0.45570  0.63640  Biso   1.000  C
  C59      1.0000 0.28690  0.37270  0.64770  Biso   1.000  C
  H20      1.0000 0.30490  0.34320  0.58530  Biso   1.000  H
  C60      1.0000 0.27160  0.33240  0.75050  Biso   1.000  C
  C61      1.0000 0.24340  0.37700  0.84280  Biso   1.000  C
  H21      1.0000 0.23170  0.35050  0.91120  Biso   1.000  H
  C62      1.0000 0.28860  0.49810  0.52180  Biso   1.000  C
  C63      1.0000 0.01950  0.72560  0.97260  Biso   1.000  C
  H22      1.0000 0.05530  0.69480  0.93510  Biso   1.000  H
  C64      1.0000 0.85280  0.86550  0.14750  Biso   1.000  C
  C65      1.0000 0.95190  0.75940  0.14510  Biso   1.000  C
  H23      1.0000 0.94350  0.75160  0.22340  Biso   1.000  H
  C66      1.0000 0.04820  0.65060  0.15780  Biso   1.000  C
  C67      1.0000 0.28250  0.24250  0.76080  Biso   1.000  C
  C68      1.0000 0.98040  0.78530  0.91220  Biso   1.000  C
  C69      1.0000 0.00490  0.71230  0.08870  Biso   1.000  C
  C70      1.0000 0.99490  0.79960  0.78360  Biso   1.000  C
  C71      1.0000 0.91180  0.81740  0.08610  Biso   1.000  C
  C72      1.0000 0.92590  0.82990  0.96870  Biso   1.000  C
  H24      1.0000 0.89860  0.86840  0.92810  Biso   1.000  H
