data_image0
_cell_length_a       7.0465
_cell_length_b       15.646
_cell_length_c       17.396
_cell_angle_alpha    90
_cell_angle_beta     90
_cell_angle_gamma    90

_symmetry_space_group_name_H-M    "P 1"
_symmetry_int_tables_number       1

loop_
  _symmetry_equiv_pos_as_xyz
  'x, y, z'

loop_
  _atom_site_label
  _atom_site_occupancy
  _atom_site_fract_x
  _atom_site_fract_y
  _atom_site_fract_z
  _atom_site_thermal_displace_type
  _atom_site_B_iso_or_equiv
  _atom_site_type_symbol
  P1       1.0000 0.25330  0.13322  0.40057  Biso   1.000  P
  O1       1.0000 0.29240  0.14630  0.31510  Biso   1.000  O
  O2       1.0000 0.43430  0.10430  0.44170  Biso   1.000  O
  O3       1.0000 0.09020  0.07110  0.41260  Biso   1.000  O
  O4       1.0000 0.35940  0.35990  0.46080  Biso   1.000  O
  O5       1.0000 0.29910  0.32490  0.34170  Biso   1.000  O
  C1       1.0000 0.28900  0.31160  0.41430  Biso   1.000  C
  C2       1.0000 0.17940  0.23380  0.44030  Biso   1.000  C
  H1       1.0000 0.04680  0.24240  0.42750  Biso   1.000  H
  H2       1.0000 0.18830  0.23020  0.49580  Biso   1.000  H
  P2       1.0000 0.24670  0.86678  0.40057  Biso   1.000  P
  O6       1.0000 0.20760  0.85370  0.31510  Biso   1.000  O
  O7       1.0000 0.06570  0.89570  0.44170  Biso   1.000  O
  O8       1.0000 0.40980  0.92890  0.41260  Biso   1.000  O
  O9       1.0000 0.14060  0.64010  0.46080  Biso   1.000  O
  O10      1.0000 0.20090  0.67510  0.34170  Biso   1.000  O
  C3       1.0000 0.21100  0.68840  0.41430  Biso   1.000  C
  C4       1.0000 0.32060  0.76620  0.44030  Biso   1.000  C
  H3       1.0000 0.45320  0.75760  0.42750  Biso   1.000  H
  H4       1.0000 0.31170  0.76980  0.49580  Biso   1.000  H
  P3       1.0000 0.24670  0.63322  0.09943  Biso   1.000  P
  O11      1.0000 0.20760  0.64630  0.18490  Biso   1.000  O
  O12      1.0000 0.06570  0.60430  0.05830  Biso   1.000  O
  O13      1.0000 0.40980  0.57110  0.08740  Biso   1.000  O
  O14      1.0000 0.14060  0.85990  0.03920  Biso   1.000  O
  O15      1.0000 0.20090  0.82490  0.15830  Biso   1.000  O
  C5       1.0000 0.21100  0.81160  0.08570  Biso   1.000  C
  C6       1.0000 0.32060  0.73380  0.05970  Biso   1.000  C
  H5       1.0000 0.45320  0.74240  0.07250  Biso   1.000  H
  H6       1.0000 0.31170  0.73020  0.00420  Biso   1.000  H
  P4       1.0000 0.25330  0.36678  0.09943  Biso   1.000  P
  O16      1.0000 0.29240  0.35370  0.18490  Biso   1.000  O
  O17      1.0000 0.43430  0.39570  0.05830  Biso   1.000  O
  O18      1.0000 0.09020  0.42890  0.08740  Biso   1.000  O
  O19      1.0000 0.35940  0.14010  0.03920  Biso   1.000  O
  O20      1.0000 0.29910  0.17510  0.15830  Biso   1.000  O
  C7       1.0000 0.28900  0.18840  0.08570  Biso   1.000  C
  C8       1.0000 0.17940  0.26620  0.05970  Biso   1.000  C
  H7       1.0000 0.04680  0.25760  0.07250  Biso   1.000  H
  H8       1.0000 0.18830  0.26980  0.00420  Biso   1.000  H
  P5       1.0000 0.74670  0.86678  0.59943  Biso   1.000  P
  O21      1.0000 0.70760  0.85370  0.68490  Biso   1.000  O
  O22      1.0000 0.56570  0.89570  0.55830  Biso   1.000  O
  O23      1.0000 0.90980  0.92890  0.58740  Biso   1.000  O
  O24      1.0000 0.64060  0.64010  0.53920  Biso   1.000  O
  O25      1.0000 0.70090  0.67510  0.65830  Biso   1.000  O
  C9       1.0000 0.71100  0.68840  0.58570  Biso   1.000  C
  C10      1.0000 0.82060  0.76620  0.55970  Biso   1.000  C
  H9       1.0000 0.95320  0.75760  0.57250  Biso   1.000  H
  H10      1.0000 0.81170  0.76980  0.50420  Biso   1.000  H
  P6       1.0000 0.75330  0.13322  0.59943  Biso   1.000  P
  O26      1.0000 0.79240  0.14630  0.68490  Biso   1.000  O
  O27      1.0000 0.93430  0.10430  0.55830  Biso   1.000  O
  O28      1.0000 0.59020  0.07110  0.58740  Biso   1.000  O
  O29      1.0000 0.85940  0.35990  0.53920  Biso   1.000  O
  O30      1.0000 0.79910  0.32490  0.65830  Biso   1.000  O
  C11      1.0000 0.78900  0.31160  0.58570  Biso   1.000  C
  C12      1.0000 0.67940  0.23380  0.55970  Biso   1.000  C
  H11      1.0000 0.54680  0.24240  0.57250  Biso   1.000  H
  H12      1.0000 0.68830  0.23020  0.50420  Biso   1.000  H
  P7       1.0000 0.75330  0.36678  0.90057  Biso   1.000  P
  O31      1.0000 0.79240  0.35370  0.81510  Biso   1.000  O
  O32      1.0000 0.93430  0.39570  0.94170  Biso   1.000  O
  O33      1.0000 0.59020  0.42890  0.91260  Biso   1.000  O
  O34      1.0000 0.85940  0.14010  0.96080  Biso   1.000  O
  O35      1.0000 0.79910  0.17510  0.84170  Biso   1.000  O
  C13      1.0000 0.78900  0.18840  0.91430  Biso   1.000  C
  C14      1.0000 0.67940  0.26620  0.94030  Biso   1.000  C
  H13      1.0000 0.54680  0.25760  0.92750  Biso   1.000  H
  H14      1.0000 0.68830  0.26980  0.99580  Biso   1.000  H
  P8       1.0000 0.74670  0.63322  0.90057  Biso   1.000  P
  O36      1.0000 0.70760  0.64630  0.81510  Biso   1.000  O
  O37      1.0000 0.56570  0.60430  0.94170  Biso   1.000  O
  O38      1.0000 0.90980  0.57110  0.91260  Biso   1.000  O
  O39      1.0000 0.64060  0.85990  0.96080  Biso   1.000  O
  O40      1.0000 0.70090  0.82490  0.84170  Biso   1.000  O
  C15      1.0000 0.71100  0.81160  0.91430  Biso   1.000  C
  C16      1.0000 0.82060  0.73380  0.94030  Biso   1.000  C
  H15      1.0000 0.95320  0.74240  0.92750  Biso   1.000  H
  H16      1.0000 0.81170  0.73020  0.99580  Biso   1.000  H
  V1       1.0000 0.24690  0.25000  0.25000  Biso   1.000  V
  V2       1.0000 0.25310  0.75000  0.25000  Biso   1.000  V
  V3       1.0000 0.75310  0.75000  0.75000  Biso   1.000  V
  V4       1.0000 0.74690  0.25000  0.75000  Biso   1.000  V
  V5       1.0000 0.50000  0.00000  0.50000  Biso   1.000  V
  V6       1.0000 0.00000  0.00000  0.50000  Biso   1.000  V
  V7       1.0000 0.00000  0.50000  0.00000  Biso   1.000  V
  V8       1.0000 0.50000  0.50000  0.00000  Biso   1.000  V
  O41      1.0000 0.75000  0.00000  0.45820  Biso   1.000  O
  O42      1.0000 0.75000  0.50000  0.04180  Biso   1.000  O
  O43      1.0000 0.25000  0.00000  0.54180  Biso   1.000  O
  O44      1.0000 0.25000  0.50000  0.95820  Biso   1.000  O
