data_XEQRAO_clean
_audit_creation_date              2014-07-02
_audit_creation_method            'Materials Studio'
_symmetry_space_group_name_H-M    'P1'
_symmetry_Int_Tables_number       1
_symmetry_cell_setting            triclinic
loop_
_symmetry_equiv_pos_as_xyz
  x,y,z
_cell_length_a                    7.8951
_cell_length_b                    9.8070
_cell_length_c                    17.3671
_cell_angle_alpha                 106.4000
_cell_angle_beta                  96.4070
_cell_angle_gamma                 90.0000
loop_
_atom_site_label
_atom_site_type_symbol
_atom_site_fract_x
_atom_site_fract_y
_atom_site_fract_z
_atom_site_U_iso_or_equiv
_atom_site_adp_type
_atom_site_occupancy
Cd1    Cd    0.25000   0.52921   0.00000   0.01267  Uiso   1.00
Cd2    Cd    0.75000   0.47079  -0.00000   0.01267  Uiso   1.00
H1     H     0.70180   0.54270   0.22200   0.01267  Uiso   1.00
H2     H     0.85850   0.65210   0.34480   0.01267  Uiso   1.00
H3     H     0.72420   0.03150   0.32040   0.01267  Uiso   1.00
H4     H     0.56370   0.92210   0.19900   0.01267  Uiso   1.00
H5     H     0.61090   0.82800   0.45080   0.01267  Uiso   1.00
H6     H     0.50160   0.84900   0.56860   0.01267  Uiso   1.00
H7     H     0.65510   0.97070   0.69180   0.01267  Uiso   1.00
H8     H     0.08290   0.93100   0.30480   0.01267  Uiso   1.00
H9     H     0.79820   0.32070   0.77800   0.01267  Uiso   1.00
H10    H     0.64150   0.30730   0.65520   0.01267  Uiso   1.00
H11    H     0.77580   0.71110   0.67960   0.01267  Uiso   1.00
H12    H     0.93630   0.72310   0.80100   0.01267  Uiso   1.00
H13    H     0.88910   0.37720   0.54920   0.01267  Uiso   1.00
H14    H     0.99840   0.28040   0.43140   0.01267  Uiso   1.00
H15    H     0.84490   0.27890   0.30820   0.01267  Uiso   1.00
H16    H     0.41710   0.62620   0.69520   0.01267  Uiso   1.00
H17    H     0.29820   0.45730   0.77800   0.01267  Uiso   1.00
H18    H     0.14150   0.34790   0.65520   0.01267  Uiso   1.00
H19    H     0.27580   0.96850   0.67960   0.01267  Uiso   1.00
H20    H     0.43630   0.07790   0.80100   0.01267  Uiso   1.00
H21    H     0.38910   0.17200   0.54920   0.01267  Uiso   1.00
H22    H     0.49840   0.15100   0.43140   0.01267  Uiso   1.00
H23    H     0.34490   0.02930   0.30820   0.01267  Uiso   1.00
H24    H     0.91710   0.06900   0.69520   0.01267  Uiso   1.00
H25    H     0.20180   0.67930   0.22200   0.01267  Uiso   1.00
H26    H     0.35850   0.69270   0.34480   0.01267  Uiso   1.00
H27    H     0.22420   0.28890   0.32040   0.01267  Uiso   1.00
H28    H     0.06370   0.27690   0.19900   0.01267  Uiso   1.00
H29    H     0.11090   0.62280   0.45080   0.01267  Uiso   1.00
H30    H     0.00160   0.71960   0.56860   0.01267  Uiso   1.00
H31    H     0.15510   0.72110   0.69180   0.01267  Uiso   1.00
H32    H     0.58290   0.37380   0.30480   0.01267  Uiso   1.00
C1     C     0.50410   0.64770   0.12240   0.01267  Uiso   1.00
C2     C     0.61460   0.72125   0.19870   0.01267  Uiso   1.00
C3     C     0.70460   0.64127   0.24214   0.01267  Uiso   1.00
C4     C     0.79930   0.70702   0.31564   0.01267  Uiso   1.00
C5     C     0.80600   0.85328   0.34576   0.01267  Uiso   1.00
C6     C     0.71870   0.93280   0.30120   0.01267  Uiso   1.00
C7     C     0.62280   0.86719   0.22818   0.01267  Uiso   1.00
C8     C     0.90690   0.92665   0.42550   0.01267  Uiso   1.00
C9     C     0.06730   0.98814   0.42648   0.01267  Uiso   1.00
C10    C     0.83750   0.93697   0.49734   0.01267  Uiso   1.00
C11    C     0.67420   0.87704   0.49928   0.01267  Uiso   1.00
C12    C     0.60860   0.88922   0.56944   0.01267  Uiso   1.00
C13    C     0.70130   0.96259   0.64378   0.01267  Uiso   1.00
C14    C     0.14260   0.97872   0.35444   0.01267  Uiso   1.00
C15    C     0.99590   0.52530   0.87760   0.01267  Uiso   1.00
C16    C     0.88540   0.52255   0.80130   0.01267  Uiso   1.00
C17    C     0.79540   0.39913   0.75786   0.01267  Uiso   1.00
C18    C     0.70070   0.39138   0.68436   0.01267  Uiso   1.00
C19    C     0.69400   0.50752   0.65424   0.01267  Uiso   1.00
C20    C     0.78130   0.63160   0.69880   0.01267  Uiso   1.00
C21    C     0.87720   0.63901   0.77182   0.01267  Uiso   1.00
C22    C     0.59310   0.50115   0.57450   0.01267  Uiso   1.00
C23    C     0.43270   0.56166   0.57352   0.01267  Uiso   1.00
C24    C     0.66250   0.43963   0.50266   0.01267  Uiso   1.00
C25    C     0.82580   0.37776   0.50072   0.01267  Uiso   1.00
C26    C     0.89140   0.31978   0.43056   0.01267  Uiso   1.00
C27    C     0.79870   0.31881   0.35622   0.01267  Uiso   1.00
C28    C     0.35740   0.62428   0.64556   0.01267  Uiso   1.00
C29    C     0.49590   0.35230   0.87760   0.01267  Uiso   1.00
C30    C     0.38540   0.27875   0.80130   0.01267  Uiso   1.00
C31    C     0.29540   0.35873   0.75786   0.01267  Uiso   1.00
C32    C     0.20070   0.29298   0.68436   0.01267  Uiso   1.00
C33    C     0.19400   0.14672   0.65424   0.01267  Uiso   1.00
C34    C     0.28130   0.06720   0.69880   0.01267  Uiso   1.00
C35    C     0.37720   0.13281   0.77182   0.01267  Uiso   1.00
C36    C     0.09310   0.07335   0.57450   0.01267  Uiso   1.00
C37    C     0.93270   0.01186   0.57352   0.01267  Uiso   1.00
C38    C     0.16250   0.06303   0.50266   0.01267  Uiso   1.00
C39    C     0.32580   0.12296   0.50072   0.01267  Uiso   1.00
C40    C     0.39140   0.11078   0.43056   0.01267  Uiso   1.00
C41    C     0.29870   0.03741   0.35622   0.01267  Uiso   1.00
C42    C     0.85740   0.02128   0.64556   0.01267  Uiso   1.00
C43    C     0.00410   0.47470   0.12240   0.01267  Uiso   1.00
C44    C     0.11460   0.47745   0.19870   0.01267  Uiso   1.00
C45    C     0.20460   0.60087   0.24214   0.01267  Uiso   1.00
C46    C     0.29930   0.60862   0.31564   0.01267  Uiso   1.00
C47    C     0.30600   0.49248   0.34576   0.01267  Uiso   1.00
C48    C     0.21870   0.36840   0.30120   0.01267  Uiso   1.00
C49    C     0.12280   0.36099   0.22818   0.01267  Uiso   1.00
C50    C     0.40690   0.49885   0.42550   0.01267  Uiso   1.00
C51    C     0.56730   0.43834   0.42648   0.01267  Uiso   1.00
C52    C     0.33750   0.56037   0.49734   0.01267  Uiso   1.00
C53    C     0.17420   0.62224   0.49928   0.01267  Uiso   1.00
C54    C     0.10860   0.68022   0.56944   0.01267  Uiso   1.00
C55    C     0.20130   0.68119   0.64378   0.01267  Uiso   1.00
C56    C     0.64260   0.37572   0.35444   0.01267  Uiso   1.00
O1     O     0.38800   0.71607   0.09534   0.01267  Uiso   1.00
O2     O     0.52630   0.51906   0.08792   0.01267  Uiso   1.00
O3     O     0.11200   0.62073   0.90466   0.01267  Uiso   1.00
O4     O     0.97370   0.43114   0.91208   0.01267  Uiso   1.00
O5     O     0.61200   0.28393   0.90466   0.01267  Uiso   1.00
O6     O     0.47370   0.48094   0.91208   0.01267  Uiso   1.00
O7     O     0.88800   0.37927   0.09534   0.01267  Uiso   1.00
O8     O     0.02630   0.56886   0.08792   0.01267  Uiso   1.00
