data_image0
_cell_length_a       8.5552
_cell_length_b       10.1133
_cell_length_c       16.7025
_cell_angle_alpha    90
_cell_angle_beta     94.94
_cell_angle_gamma    90

_symmetry_space_group_name_H-M    "P 1"
_symmetry_int_tables_number       1

loop_
  _symmetry_equiv_pos_as_xyz
  'x, y, z'

loop_
  _atom_site_label
  _atom_site_occupancy
  _atom_site_fract_x
  _atom_site_fract_y
  _atom_site_fract_z
  _atom_site_thermal_displace_type
  _atom_site_B_iso_or_equiv
  _atom_site_type_symbol
  P1       1.0000 0.65562  0.26770  0.17795  Biso   1.000  P
  P2       1.0000 0.47390  0.78816  0.08375  Biso   1.000  P
  P3       1.0000 0.62484  0.26808  0.49267  Biso   1.000  P
  P4       1.0000 0.84313  0.55025  0.32252  Biso   1.000  P
  P5       1.0000 0.02530  0.03079  0.41588  Biso   1.000  P
  P6       1.0000 0.87519  0.54958  0.00899  Biso   1.000  P
  Al1      1.0000 0.83320  0.25785  0.34987  Biso   1.000  Al
  Al2      1.0000 0.98060  0.23170  0.54840  Biso   1.000  Al
  Al3      1.0000 0.66440  0.55810  0.15113  Biso   1.000  Al
  Al4      1.0000 0.47910  0.08700  0.04863  Biso   1.000  Al
  Al5      1.0000 0.32480  0.07670  0.51886  Biso   1.000  Al
  Al6      1.0000 0.82413  0.24115  0.01952  Biso   1.000  Al
  F1       1.0000 0.54950  0.50390  0.05200  Biso   1.000  F
  F2       1.0000 0.19750  0.23010  0.53010  Biso   1.000  F
  F3       1.0000 0.95030  0.31680  0.44742  Biso   1.000  F
  F4       1.0000 0.69350  0.08760  0.03070  Biso   1.000  F
  O1       1.0000 0.66990  0.23150  0.40730  Biso   1.000  O
  O2       1.0000 0.78750  0.27910  0.12070  Biso   1.000  O
  O3       1.0000 0.83080  0.58270  0.09380  Biso   1.000  O
  O4       1.0000 0.71700  0.20190  0.25790  Biso   1.000  O
  O5       1.0000 0.29360  0.77260  0.07130  Biso   1.000  O
  O6       1.0000 0.20470  0.04780  0.42590  Biso   1.000  O
  O7       1.0000 0.92990  0.40410  0.00720  Biso   1.000  O
  O8       1.0000 0.75950  0.24140  0.55630  Biso   1.000  O
  O9       1.0000 0.53550  0.70130  0.15560  Biso   1.000  O
  O10      1.0000 0.73830  0.57490  0.94380  Biso   1.000  O
  O11      1.0000 0.51700  0.18490  0.14230  Biso   1.000  O
  O12      1.0000 0.51550  0.93060  0.10500  Biso   1.000  O
  O13      1.0000 0.56750  0.41300  0.49210  Biso   1.000  O
  O14      1.0000 0.54930  0.74760  0.00760  Biso   1.000  O
  O15      1.0000 0.90170  0.40770  0.30630  Biso   1.000  O
  O16      1.0000 0.98150  0.63600  0.35710  Biso   1.000  O
  O17      1.0000 0.96250  0.12000  0.34450  Biso   1.000  O
  O18      1.0000 0.59860  0.40860  0.19380  Biso   1.000  O
  O19      1.0000 0.77200  0.61270  0.24498  Biso   1.000  O
  O20      1.0000 0.48920  0.17420  0.50950  Biso   1.000  O
  O21      1.0000 0.01080  0.63660  0.98940  Biso   1.000  O
  O22      1.0000 0.98320  0.88740  0.39350  Biso   1.000  O
  O23      1.0000 0.95240  0.07310  0.49200  Biso   1.000  O
  O24      1.0000 0.71420  0.53500  0.38140  Biso   1.000  O
  P7       1.0000 0.34438  0.76770  0.82205  Biso   1.000  P
  P8       1.0000 0.52610  0.28816  0.91625  Biso   1.000  P
  P9       1.0000 0.37516  0.76808  0.50733  Biso   1.000  P
  P10      1.0000 0.15687  0.05025  0.67748  Biso   1.000  P
  P11      1.0000 0.97470  0.53079  0.58412  Biso   1.000  P
  P12      1.0000 0.12481  0.04958  0.99101  Biso   1.000  P
  Al7      1.0000 0.16680  0.75785  0.65013  Biso   1.000  Al
  Al8      1.0000 0.01940  0.73170  0.45160  Biso   1.000  Al
  Al9      1.0000 0.33560  0.05810  0.84887  Biso   1.000  Al
  Al10     1.0000 0.52090  0.58700  0.95137  Biso   1.000  Al
  Al11     1.0000 0.67520  0.57670  0.48114  Biso   1.000  Al
  Al12     1.0000 0.17587  0.74115  0.98048  Biso   1.000  Al
  F5       1.0000 0.45050  0.00390  0.94800  Biso   1.000  F
  F6       1.0000 0.80250  0.73010  0.46990  Biso   1.000  F
  F7       1.0000 0.04970  0.81680  0.55258  Biso   1.000  F
  F8       1.0000 0.30650  0.58760  0.96930  Biso   1.000  F
  O25      1.0000 0.33010  0.73150  0.59270  Biso   1.000  O
  O26      1.0000 0.21250  0.77910  0.87930  Biso   1.000  O
  O27      1.0000 0.16920  0.08270  0.90620  Biso   1.000  O
  O28      1.0000 0.28300  0.70190  0.74210  Biso   1.000  O
  O29      1.0000 0.70640  0.27260  0.92870  Biso   1.000  O
  O30      1.0000 0.79530  0.54780  0.57410  Biso   1.000  O
  O31      1.0000 0.07010  0.90410  0.99280  Biso   1.000  O
  O32      1.0000 0.24050  0.74140  0.44370  Biso   1.000  O
  O33      1.0000 0.46450  0.20130  0.84440  Biso   1.000  O
  O34      1.0000 0.26170  0.07490  0.05620  Biso   1.000  O
  O35      1.0000 0.48300  0.68490  0.85770  Biso   1.000  O
  O36      1.0000 0.48450  0.43060  0.89500  Biso   1.000  O
  O37      1.0000 0.43250  0.91300  0.50790  Biso   1.000  O
  O38      1.0000 0.45070  0.24760  0.99240  Biso   1.000  O
  O39      1.0000 0.09830  0.90770  0.69370  Biso   1.000  O
  O40      1.0000 0.01850  0.13600  0.64290  Biso   1.000  O
  O41      1.0000 0.03750  0.62000  0.65550  Biso   1.000  O
  O42      1.0000 0.40140  0.90860  0.80620  Biso   1.000  O
  O43      1.0000 0.22800  0.11270  0.75502  Biso   1.000  O
  O44      1.0000 0.51080  0.67420  0.49050  Biso   1.000  O
  O45      1.0000 0.98920  0.13660  0.01060  Biso   1.000  O
  O46      1.0000 0.01680  0.38740  0.60650  Biso   1.000  O
  O47      1.0000 0.04760  0.57310  0.50800  Biso   1.000  O
  O48      1.0000 0.28580  0.03500  0.61860  Biso   1.000  O
