data_XESKAJ_clean
_audit_creation_date              2014-07-02
_audit_creation_method            'Materials Studio'
_symmetry_space_group_name_H-M    'P1'
_symmetry_Int_Tables_number       1
_symmetry_cell_setting            triclinic
loop_
_symmetry_equiv_pos_as_xyz
  x,y,z
_cell_length_a                    6.2966
_cell_length_b                    16.3614
_cell_length_c                    16.3614
_cell_angle_alpha                 61.6201
_cell_angle_beta                  82.6297
_cell_angle_gamma                 97.3703
loop_
_atom_site_label
_atom_site_type_symbol
_atom_site_fract_x
_atom_site_fract_y
_atom_site_fract_z
_atom_site_U_iso_or_equiv
_atom_site_adp_type
_atom_site_occupancy
Mg1    Mg    0.45523   0.74686   0.58052   0.01267  Uiso   1.00
Mg2    Mg    0.03575   0.58052   0.67262   0.01267  Uiso   1.00
Mg3    Mg    0.70837   0.67262   0.74686   0.01267  Uiso   1.00
Mg4    Mg    0.54477   0.25314   0.41948   0.01267  Uiso   1.00
Mg5    Mg    0.96425   0.41948   0.32738   0.01267  Uiso   1.00
Mg6    Mg    0.29163   0.32738   0.25314   0.01267  Uiso   1.00
P1     P     0.00873   0.80387   0.53559   0.01267  Uiso   1.00
P2     P     0.54432   0.53559   0.66054   0.01267  Uiso   1.00
P3     P     0.20486   0.66054   0.80387   0.01267  Uiso   1.00
P4     P     0.99127   0.19613   0.46441   0.01267  Uiso   1.00
P5     P     0.45568   0.46441   0.33946   0.01267  Uiso   1.00
P6     P     0.79514   0.33946   0.19613   0.01267  Uiso   1.00
H1     H     0.12380   0.94710   0.53200   0.01267  Uiso   1.00
H2     H     0.11550   0.86170   0.63320   0.01267  Uiso   1.00
H3     H     0.41270   0.94360   0.40040   0.01267  Uiso   1.00
H4     H     0.64530   0.95990   0.42150   0.01267  Uiso   1.00
H5     H     0.66640   0.92810   0.58650   0.01267  Uiso   1.00
H6     H     0.44550   0.89370   0.66130   0.01267  Uiso   1.00
H7     H     0.65580   0.53200   0.52090   0.01267  Uiso   1.00
H8     H     0.74870   0.63320   0.50510   0.01267  Uiso   1.00
H9     H     0.81310   0.40040   0.65600   0.01267  Uiso   1.00
H10    H     0.06680   0.42150   0.61860   0.01267  Uiso   1.00
H11    H     0.25290   0.58650   0.48540   0.01267  Uiso   1.00
H12    H     0.10680   0.66130   0.44500   0.01267  Uiso   1.00
H13    H     0.17670   0.52090   0.94710   0.01267  Uiso   1.00
H14    H     0.25380   0.50510   0.86170   0.01267  Uiso   1.00
H15    H     0.46910   0.65600   0.94360   0.01267  Uiso   1.00
H16    H     0.68540   0.61860   0.95990   0.01267  Uiso   1.00
H17    H     0.73830   0.48540   0.92810   0.01267  Uiso   1.00
H18    H     0.55180   0.44500   0.89370   0.01267  Uiso   1.00
H19    H     0.87620   0.05290   0.46800   0.01267  Uiso   1.00
H20    H     0.88450   0.13830   0.36680   0.01267  Uiso   1.00
H21    H     0.58730   0.05640   0.59960   0.01267  Uiso   1.00
H22    H     0.35470   0.04010   0.57850   0.01267  Uiso   1.00
H23    H     0.33360   0.07190   0.41350   0.01267  Uiso   1.00
H24    H     0.55450   0.10630   0.33870   0.01267  Uiso   1.00
H25    H     0.34420   0.46800   0.47910   0.01267  Uiso   1.00
H26    H     0.25130   0.36680   0.49490   0.01267  Uiso   1.00
H27    H     0.18690   0.59960   0.34400   0.01267  Uiso   1.00
H28    H     0.93320   0.57850   0.38140   0.01267  Uiso   1.00
H29    H     0.74710   0.41350   0.51460   0.01267  Uiso   1.00
H30    H     0.89320   0.33870   0.55500   0.01267  Uiso   1.00
H31    H     0.82330   0.47910   0.05290   0.01267  Uiso   1.00
H32    H     0.74620   0.49490   0.13830   0.01267  Uiso   1.00
H33    H     0.53090   0.34400   0.05640   0.01267  Uiso   1.00
H34    H     0.31460   0.38140   0.04010   0.01267  Uiso   1.00
H35    H     0.26170   0.51460   0.07190   0.01267  Uiso   1.00
H36    H     0.44820   0.55500   0.10630   0.01267  Uiso   1.00
C1     C     0.16001   0.88527   0.56554   0.01267  Uiso   1.00
C2     C     0.49397   0.96342   0.43681   0.01267  Uiso   1.00
C3     C     0.51423   0.93320   0.59421   0.01267  Uiso   1.00
C4     C     0.72555   0.56554   0.54919   0.01267  Uiso   1.00
C5     C     0.93078   0.43681   0.59977   0.01267  Uiso   1.00
C6     C     0.10844   0.59421   0.47259   0.01267  Uiso   1.00
C7     C     0.27474   0.54919   0.88527   0.01267  Uiso   1.00
C8     C     0.53055   0.59977   0.96342   0.01267  Uiso   1.00
C9     C     0.58103   0.47259   0.93320   0.01267  Uiso   1.00
C10    C     0.83999   0.11473   0.43446   0.01267  Uiso   1.00
C11    C     0.50603   0.03658   0.56319   0.01267  Uiso   1.00
C12    C     0.48577   0.06680   0.40579   0.01267  Uiso   1.00
C13    C     0.27445   0.43446   0.45081   0.01267  Uiso   1.00
C14    C     0.06922   0.56319   0.40023   0.01267  Uiso   1.00
C15    C     0.89156   0.40579   0.52741   0.01267  Uiso   1.00
C16    C     0.72526   0.45081   0.11473   0.01267  Uiso   1.00
C17    C     0.46945   0.40023   0.03658   0.01267  Uiso   1.00
C18    C     0.41897   0.52741   0.06680   0.01267  Uiso   1.00
N1     N     0.40313   0.89588   0.53979   0.01267  Uiso   1.00
N2     N     0.94292   0.53979   0.56433   0.01267  Uiso   1.00
N3     N     0.50725   0.56433   0.89588   0.01267  Uiso   1.00
N4     N     0.59687   0.10412   0.46021   0.01267  Uiso   1.00
N5     N     0.05708   0.46021   0.43567   0.01267  Uiso   1.00
N6     N     0.49275   0.43567   0.10412   0.01267  Uiso   1.00
O1     O     0.00540   0.85259   0.43119   0.01267  Uiso   1.00
O2     O     0.77675   0.76815   0.59860   0.01267  Uiso   1.00
O3     O     0.13274   0.72296   0.56694   0.01267  Uiso   1.00
O4     O     0.43659   0.43119   0.71622   0.01267  Uiso   1.00
O5     O     0.37535   0.59860   0.63325   0.01267  Uiso   1.00
O6     O     0.69968   0.56694   0.71010   0.01267  Uiso   1.00
O7     O     0.15281   0.71622   0.85259   0.01267  Uiso   1.00
O8     O     0.00860   0.63325   0.76815   0.01267  Uiso   1.00
O9     O     0.40978   0.71010   0.72296   0.01267  Uiso   1.00
O10    O     0.99460   0.14741   0.56881   0.01267  Uiso   1.00
O11    O     0.22325   0.23185   0.40140   0.01267  Uiso   1.00
O12    O     0.86726   0.27704   0.43306   0.01267  Uiso   1.00
O13    O     0.56341   0.56881   0.28378   0.01267  Uiso   1.00
O14    O     0.62465   0.40140   0.36675   0.01267  Uiso   1.00
O15    O     0.30032   0.43306   0.28990   0.01267  Uiso   1.00
O16    O     0.84719   0.28378   0.14741   0.01267  Uiso   1.00
O17    O     0.99140   0.36675   0.23185   0.01267  Uiso   1.00
O18    O     0.59022   0.28990   0.27704   0.01267  Uiso   1.00
