data_image0
_cell_length_a       28.0103
_cell_length_b       28.0103
_cell_length_c       6.4044
_cell_angle_alpha    90
_cell_angle_beta     90
_cell_angle_gamma    120

_symmetry_space_group_name_H-M    "P 1"
_symmetry_int_tables_number       1

loop_
  _symmetry_equiv_pos_as_xyz
  'x, y, z'

loop_
  _atom_site_label
  _atom_site_occupancy
  _atom_site_fract_x
  _atom_site_fract_y
  _atom_site_fract_z
  _atom_site_thermal_displace_type
  _atom_site_B_iso_or_equiv
  _atom_site_type_symbol
  Fe1      1.0000 0.30220  0.02780  0.71130  Biso   1.000  Fe
  P1       1.0000 0.42628  0.04033  0.57860  Biso   1.000  P
  O1       1.0000 0.47740  0.09100  0.51790  Biso   1.000  O
  O2       1.0000 0.39160  0.05610  0.71640  Biso   1.000  O
  O3       1.0000 0.38900  0.01180  0.39630  Biso   1.000  O
  N1       1.0000 0.46191  0.01835  0.93700  Biso   1.000  N
  C1       1.0000 0.44516  0.99458  0.72020  Biso   1.000  C
  C2       1.0000 0.52392  0.05833  0.95440  Biso   1.000  C
  C3       1.0000 0.44649  0.97338  0.10140  Biso   1.000  C
  Fe2      1.0000 0.96887  0.36113  0.04463  Biso   1.000  Fe
  P2       1.0000 0.09295  0.37366  0.91193  Biso   1.000  P
  O4       1.0000 0.14407  0.42433  0.85123  Biso   1.000  O
  O5       1.0000 0.05827  0.38943  0.04973  Biso   1.000  O
  O6       1.0000 0.05567  0.34513  0.72963  Biso   1.000  O
  N2       1.0000 0.12858  0.35168  0.27033  Biso   1.000  N
  C4       1.0000 0.11183  0.32791  0.05353  Biso   1.000  C
  C5       1.0000 0.19059  0.39166  0.28773  Biso   1.000  C
  C6       1.0000 0.11316  0.30671  0.43473  Biso   1.000  C
  Fe3      1.0000 0.63553  0.69447  0.37797  Biso   1.000  Fe
  P3       1.0000 0.75961  0.70700  0.24527  Biso   1.000  P
  O7       1.0000 0.81073  0.75767  0.18457  Biso   1.000  O
  O8       1.0000 0.72493  0.72277  0.38307  Biso   1.000  O
  O9       1.0000 0.72233  0.67847  0.06297  Biso   1.000  O
  N3       1.0000 0.79524  0.68502  0.60367  Biso   1.000  N
  C7       1.0000 0.77849  0.66125  0.38687  Biso   1.000  C
  C8       1.0000 0.85725  0.72500  0.62107  Biso   1.000  C
  C9       1.0000 0.77982  0.64005  0.76807  Biso   1.000  C
  Fe4      1.0000 0.97220  0.27440  0.71130  Biso   1.000  Fe
  P4       1.0000 0.95967  0.38595  0.57860  Biso   1.000  P
  O10      1.0000 0.90900  0.38640  0.51790  Biso   1.000  O
  O11      1.0000 0.94390  0.33550  0.71640  Biso   1.000  O
  O12      1.0000 0.98820  0.37720  0.39630  Biso   1.000  O
  N4       1.0000 0.98165  0.44356  0.93700  Biso   1.000  N
  C10      1.0000 0.00542  0.45058  0.72020  Biso   1.000  C
  C11      1.0000 0.94167  0.46559  0.95440  Biso   1.000  C
  C12      1.0000 0.02662  0.47311  0.10140  Biso   1.000  C
  Fe5      1.0000 0.63887  0.60773  0.04463  Biso   1.000  Fe
  P5       1.0000 0.62634  0.71928  0.91193  Biso   1.000  P
  O13      1.0000 0.57567  0.71973  0.85123  Biso   1.000  O
  O14      1.0000 0.61057  0.66883  0.04973  Biso   1.000  O
  O15      1.0000 0.65487  0.71053  0.72963  Biso   1.000  O
  N5       1.0000 0.64832  0.77689  0.27033  Biso   1.000  N
  C13      1.0000 0.67209  0.78391  0.05353  Biso   1.000  C
  C14      1.0000 0.60834  0.79892  0.28773  Biso   1.000  C
  C15      1.0000 0.69329  0.80644  0.43473  Biso   1.000  C
  Fe6      1.0000 0.30553  0.94107  0.37797  Biso   1.000  Fe
  P6       1.0000 0.29300  0.05262  0.24527  Biso   1.000  P
  O16      1.0000 0.24233  0.05307  0.18457  Biso   1.000  O
  O17      1.0000 0.27723  0.00217  0.38307  Biso   1.000  O
  O18      1.0000 0.32153  0.04387  0.06297  Biso   1.000  O
  N6       1.0000 0.31498  0.11023  0.60367  Biso   1.000  N
  C16      1.0000 0.33875  0.11725  0.38687  Biso   1.000  C
  C17      1.0000 0.27500  0.13226  0.62107  Biso   1.000  C
  C18      1.0000 0.35995  0.13978  0.76807  Biso   1.000  C
  Fe7      1.0000 0.72560  0.69780  0.71130  Biso   1.000  Fe
  P7       1.0000 0.61405  0.57372  0.57860  Biso   1.000  P
  O19      1.0000 0.61360  0.52260  0.51790  Biso   1.000  O
  O20      1.0000 0.66450  0.60840  0.71640  Biso   1.000  O
  O21      1.0000 0.62280  0.61100  0.39630  Biso   1.000  O
  N7       1.0000 0.55644  0.53809  0.93700  Biso   1.000  N
  C19      1.0000 0.54942  0.55484  0.72020  Biso   1.000  C
  C20      1.0000 0.53441  0.47608  0.95440  Biso   1.000  C
  C21      1.0000 0.52689  0.55351  0.10140  Biso   1.000  C
  Fe8      1.0000 0.39227  0.03113  0.04463  Biso   1.000  Fe
  P8       1.0000 0.28072  0.90705  0.91193  Biso   1.000  P
  O22      1.0000 0.28027  0.85593  0.85123  Biso   1.000  O
  O23      1.0000 0.33117  0.94173  0.04973  Biso   1.000  O
  O24      1.0000 0.28947  0.94433  0.72963  Biso   1.000  O
  N8       1.0000 0.22311  0.87142  0.27033  Biso   1.000  N
  C22      1.0000 0.21609  0.88817  0.05353  Biso   1.000  C
  C23      1.0000 0.20108  0.80941  0.28773  Biso   1.000  C
  C24      1.0000 0.19356  0.88684  0.43473  Biso   1.000  C
  Fe9      1.0000 0.05893  0.36447  0.37797  Biso   1.000  Fe
  P9       1.0000 0.94738  0.24039  0.24527  Biso   1.000  P
  O25      1.0000 0.94693  0.18927  0.18457  Biso   1.000  O
  O26      1.0000 0.99783  0.27507  0.38307  Biso   1.000  O
  O27      1.0000 0.95613  0.27767  0.06297  Biso   1.000  O
  N9       1.0000 0.88977  0.20476  0.60367  Biso   1.000  N
  C25      1.0000 0.88275  0.22151  0.38687  Biso   1.000  C
  C26      1.0000 0.86774  0.14275  0.62107  Biso   1.000  C
  C27      1.0000 0.86022  0.22018  0.76807  Biso   1.000  C
  Fe10     1.0000 0.69780  0.97220  0.28870  Biso   1.000  Fe
  P10      1.0000 0.57372  0.95967  0.42140  Biso   1.000  P
  O28      1.0000 0.52260  0.90900  0.48210  Biso   1.000  O
  O29      1.0000 0.60840  0.94390  0.28360  Biso   1.000  O
  O30      1.0000 0.61100  0.98820  0.60370  Biso   1.000  O
  N10      1.0000 0.53809  0.98165  0.06300  Biso   1.000  N
  C28      1.0000 0.55484  0.00542  0.27980  Biso   1.000  C
  C29      1.0000 0.47608  0.94167  0.04560  Biso   1.000  C
  C30      1.0000 0.55351  0.02662  0.89860  Biso   1.000  C
  Fe11     1.0000 0.36447  0.30553  0.62203  Biso   1.000  Fe
  P11      1.0000 0.24039  0.29300  0.75473  Biso   1.000  P
  O31      1.0000 0.18927  0.24233  0.81543  Biso   1.000  O
  O32      1.0000 0.27507  0.27723  0.61693  Biso   1.000  O
  O33      1.0000 0.27767  0.32153  0.93703  Biso   1.000  O
  N11      1.0000 0.20476  0.31498  0.39633  Biso   1.000  N
  C31      1.0000 0.22151  0.33875  0.61313  Biso   1.000  C
  C32      1.0000 0.14275  0.27500  0.37893  Biso   1.000  C
  C33      1.0000 0.22018  0.35995  0.23193  Biso   1.000  C
  Fe12     1.0000 0.03113  0.63887  0.95537  Biso   1.000  Fe
  P12      1.0000 0.90705  0.62634  0.08807  Biso   1.000  P
  O34      1.0000 0.85593  0.57567  0.14877  Biso   1.000  O
  O35      1.0000 0.94173  0.61057  0.95027  Biso   1.000  O
  O36      1.0000 0.94433  0.65487  0.27037  Biso   1.000  O
  N12      1.0000 0.87142  0.64832  0.72967  Biso   1.000  N
  C34      1.0000 0.88817  0.67209  0.94647  Biso   1.000  C
  C35      1.0000 0.80941  0.60834  0.71227  Biso   1.000  C
  C36      1.0000 0.88684  0.69329  0.56527  Biso   1.000  C
  Fe13     1.0000 0.02780  0.72560  0.28870  Biso   1.000  Fe
  P13      1.0000 0.04033  0.61405  0.42140  Biso   1.000  P
  O37      1.0000 0.09100  0.61360  0.48210  Biso   1.000  O
  O38      1.0000 0.05610  0.66450  0.28360  Biso   1.000  O
  O39      1.0000 0.01180  0.62280  0.60370  Biso   1.000  O
  N13      1.0000 0.01835  0.55644  0.06300  Biso   1.000  N
  C37      1.0000 0.99458  0.54942  0.27980  Biso   1.000  C
  C38      1.0000 0.05833  0.53441  0.04560  Biso   1.000  C
  C39      1.0000 0.97338  0.52689  0.89860  Biso   1.000  C
  Fe14     1.0000 0.69447  0.05893  0.62203  Biso   1.000  Fe
  P14      1.0000 0.70700  0.94738  0.75473  Biso   1.000  P
  O40      1.0000 0.75767  0.94693  0.81543  Biso   1.000  O
  O41      1.0000 0.72277  0.99783  0.61693  Biso   1.000  O
  O42      1.0000 0.67847  0.95613  0.93703  Biso   1.000  O
  N14      1.0000 0.68502  0.88977  0.39633  Biso   1.000  N
  C40      1.0000 0.66125  0.88275  0.61313  Biso   1.000  C
  C41      1.0000 0.72500  0.86774  0.37893  Biso   1.000  C
  C42      1.0000 0.64005  0.86022  0.23193  Biso   1.000  C
  Fe15     1.0000 0.36113  0.39227  0.95537  Biso   1.000  Fe
  P15      1.0000 0.37366  0.28072  0.08807  Biso   1.000  P
  O43      1.0000 0.42433  0.28027  0.14877  Biso   1.000  O
  O44      1.0000 0.38943  0.33117  0.95027  Biso   1.000  O
  O45      1.0000 0.34513  0.28947  0.27037  Biso   1.000  O
  N15      1.0000 0.35168  0.22311  0.72967  Biso   1.000  N
  C43      1.0000 0.32791  0.21609  0.94647  Biso   1.000  C
  C44      1.0000 0.39166  0.20108  0.71227  Biso   1.000  C
  C45      1.0000 0.30671  0.19356  0.56527  Biso   1.000  C
  Fe16     1.0000 0.27440  0.30220  0.28870  Biso   1.000  Fe
  P16      1.0000 0.38595  0.42628  0.42140  Biso   1.000  P
  O46      1.0000 0.38640  0.47740  0.48210  Biso   1.000  O
  O47      1.0000 0.33550  0.39160  0.28360  Biso   1.000  O
  O48      1.0000 0.37720  0.38900  0.60370  Biso   1.000  O
  N16      1.0000 0.44356  0.46191  0.06300  Biso   1.000  N
  C46      1.0000 0.45058  0.44516  0.27980  Biso   1.000  C
  C47      1.0000 0.46559  0.52392  0.04560  Biso   1.000  C
  C48      1.0000 0.47311  0.44649  0.89860  Biso   1.000  C
  Fe17     1.0000 0.94107  0.63553  0.62203  Biso   1.000  Fe
  P17      1.0000 0.05262  0.75961  0.75473  Biso   1.000  P
  O49      1.0000 0.05307  0.81073  0.81543  Biso   1.000  O
  O50      1.0000 0.00217  0.72493  0.61693  Biso   1.000  O
  O51      1.0000 0.04387  0.72233  0.93703  Biso   1.000  O
  N17      1.0000 0.11023  0.79524  0.39633  Biso   1.000  N
  C49      1.0000 0.11725  0.77849  0.61313  Biso   1.000  C
  C50      1.0000 0.13226  0.85725  0.37893  Biso   1.000  C
  C51      1.0000 0.13978  0.77982  0.23193  Biso   1.000  C
  Fe18     1.0000 0.60773  0.96887  0.95537  Biso   1.000  Fe
  P18      1.0000 0.71928  0.09295  0.08807  Biso   1.000  P
  O52      1.0000 0.71973  0.14407  0.14877  Biso   1.000  O
  O53      1.0000 0.66883  0.05827  0.95027  Biso   1.000  O
  O54      1.0000 0.71053  0.05567  0.27037  Biso   1.000  O
  N18      1.0000 0.77689  0.12858  0.72967  Biso   1.000  N
  C52      1.0000 0.78391  0.11183  0.94647  Biso   1.000  C
  C53      1.0000 0.79892  0.19059  0.71227  Biso   1.000  C
  C54      1.0000 0.80644  0.11316  0.56527  Biso   1.000  C
