data_XESKEN_clean_h
_audit_creation_date              2015-05-18
_audit_creation_method            'Materials Studio'
_symmetry_space_group_name_H-M    'P1'
_symmetry_Int_Tables_number       1
_symmetry_cell_setting            triclinic
loop_
_symmetry_equiv_pos_as_xyz
  x,y,z
_cell_length_a                    28.2453
_cell_length_b                    28.2453
_cell_length_c                    6.2202
_cell_angle_alpha                 90.0000
_cell_angle_beta                  90.0000
_cell_angle_gamma                 120.0000
loop_
_atom_site_label
_atom_site_type_symbol
_atom_site_fract_x
_atom_site_fract_y
_atom_site_fract_z
_atom_site_U_iso_or_equiv
_atom_site_adp_type
_atom_site_occupancy
Mg1    Mg    0.05694   0.69257   0.40063   0.01267  Uiso   1.00
P2     P     0.09144   0.71768   0.92003   0.01267  Uiso   1.00
C3     C     0.11065   0.78421   0.05033   0.01267  Uiso   1.00
C4     C     0.11347   0.82593   0.40863   0.01267  Uiso   1.00
C5     C     0.17417   0.78543   0.32523   0.01267  Uiso   1.00
N6     N     0.11846   0.78152   0.28943   0.01267  Uiso   1.00
O7     O     0.13884   0.70984   0.86163   0.01267  Uiso   1.00
O8     O     0.05427   0.67103   0.06953   0.01267  Uiso   1.00
O9     O     0.05962   0.71383   0.71873   0.01267  Uiso   1.00
H10    H     0.15034   0.81761   0.97657   0.01267  Uiso   1.00
H11    H     0.07252   0.82259   0.36843   0.01267  Uiso   1.00
H12    H     0.11599   0.82059   0.58916   0.01267  Uiso   1.00
H13    H     0.17882   0.77869   0.50288   0.01267  Uiso   1.00
H14    H     0.17606   0.75245   0.22628   0.01267  Uiso   1.00
H15    H     0.61572   0.74358   0.64395   0.00000  Uiso   1.00
Mg16   Mg    0.72360   0.02591   0.73397   0.01267  Uiso   1.00
P17    P     0.75810   0.05102   0.25337   0.01267  Uiso   1.00
C18    C     0.77731   0.11755   0.38367   0.01267  Uiso   1.00
C19    C     0.78013   0.15927   0.74197   0.01267  Uiso   1.00
C20    C     0.84083   0.11877   0.65857   0.01267  Uiso   1.00
N21    N     0.78512   0.11486   0.62277   0.01267  Uiso   1.00
O22    O     0.80550   0.04318   0.19497   0.01267  Uiso   1.00
O23    O     0.72093   0.00437   0.40287   0.01267  Uiso   1.00
O24    O     0.72628   0.04717   0.05207   0.01267  Uiso   1.00
H25    H     0.81700   0.15094   0.30991   0.01267  Uiso   1.00
H26    H     0.73919   0.15592   0.70176   0.01267  Uiso   1.00
H27    H     0.78265   0.15392   0.92250   0.01267  Uiso   1.00
H28    H     0.84548   0.11203   0.83622   0.01267  Uiso   1.00
H29    H     0.84273   0.08578   0.55962   0.01267  Uiso   1.00
H30    H     0.28239   0.07691   0.97728   0.00000  Uiso   1.00
Mg31   Mg    0.39027   0.35924   0.06730   0.01267  Uiso   1.00
P32    P     0.42477   0.38435   0.58670   0.01267  Uiso   1.00
C33    C     0.44398   0.45088   0.71700   0.01267  Uiso   1.00
C34    C     0.44680   0.49260   0.07530   0.01267  Uiso   1.00
C35    C     0.50750   0.45210   0.99190   0.01267  Uiso   1.00
N36    N     0.45179   0.44819   0.95610   0.01267  Uiso   1.00
O37    O     0.47217   0.37651   0.52830   0.01267  Uiso   1.00
O38    O     0.38760   0.33770   0.73620   0.01267  Uiso   1.00
O39    O     0.39295   0.38050   0.38540   0.01267  Uiso   1.00
H40    H     0.48367   0.48428   0.64324   0.01267  Uiso   1.00
H41    H     0.40586   0.48926   0.03510   0.01267  Uiso   1.00
H42    H     0.44932   0.48725   0.25583   0.01267  Uiso   1.00
H43    H     0.51215   0.44536   0.16955   0.01267  Uiso   1.00
H44    H     0.50940   0.41912   0.89295   0.01267  Uiso   1.00
H45    H     0.94906   0.41024   0.31061   0.00000  Uiso   1.00
Mg46   Mg    0.30743   0.36436   0.40063   0.01267  Uiso   1.00
P47    P     0.28232   0.37375   0.92003   0.01267  Uiso   1.00
C48    C     0.21579   0.32643   0.05033   0.01267  Uiso   1.00
C49    C     0.17407   0.28753   0.40863   0.01267  Uiso   1.00
C50    C     0.21457   0.38873   0.32523   0.01267  Uiso   1.00
N51    N     0.21848   0.33693   0.28943   0.01267  Uiso   1.00
O52    O     0.29016   0.42899   0.86163   0.01267  Uiso   1.00
O53    O     0.32897   0.38323   0.06953   0.01267  Uiso   1.00
O54    O     0.28617   0.34578   0.71873   0.01267  Uiso   1.00
H55    H     0.18239   0.33273   0.97657   0.01267  Uiso   1.00
H56    H     0.17741   0.24993   0.36843   0.01267  Uiso   1.00
H57    H     0.17941   0.29540   0.58916   0.01267  Uiso   1.00
H58    H     0.22131   0.40012   0.50288   0.01267  Uiso   1.00
H59    H     0.24755   0.42361   0.22628   0.01267  Uiso   1.00
H60    H     0.25642   0.87215   0.64395   0.00000  Uiso   1.00
Mg61   Mg    0.97409   0.69770   0.73397   0.01267  Uiso   1.00
P62    P     0.94898   0.70709   0.25337   0.01267  Uiso   1.00
C63    C     0.88245   0.65977   0.38367   0.01267  Uiso   1.00
C64    C     0.84073   0.62087   0.74197   0.01267  Uiso   1.00
C65    C     0.88123   0.72207   0.65857   0.01267  Uiso   1.00
N66    N     0.88514   0.67027   0.62277   0.01267  Uiso   1.00
O67    O     0.95682   0.76233   0.19497   0.01267  Uiso   1.00
O68    O     0.99563   0.71657   0.40287   0.01267  Uiso   1.00
O69    O     0.95283   0.67912   0.05207   0.01267  Uiso   1.00
H70    H     0.84906   0.66606   0.30991   0.01267  Uiso   1.00
H71    H     0.84408   0.58326   0.70176   0.01267  Uiso   1.00
H72    H     0.84608   0.62873   0.92250   0.01267  Uiso   1.00
H73    H     0.88797   0.73346   0.83622   0.01267  Uiso   1.00
H74    H     0.91422   0.75695   0.55962   0.01267  Uiso   1.00
H75    H     0.92309   0.20548   0.97728   0.00000  Uiso   1.00
Mg76   Mg    0.64076   0.03103   0.06730   0.01267  Uiso   1.00
P77    P     0.61565   0.04042   0.58670   0.01267  Uiso   1.00
C78    C     0.54912   0.99310   0.71700   0.01267  Uiso   1.00
C79    C     0.50740   0.95420   0.07530   0.01267  Uiso   1.00
C80    C     0.54790   0.05540   0.99190   0.01267  Uiso   1.00
N81    N     0.55181   0.00360   0.95610   0.01267  Uiso   1.00
O82    O     0.62349   0.09566   0.52830   0.01267  Uiso   1.00
O83    O     0.66230   0.04990   0.73620   0.01267  Uiso   1.00
O84    O     0.61950   0.01245   0.38540   0.01267  Uiso   1.00
H85    H     0.51572   0.99940   0.64324   0.01267  Uiso   1.00
H86    H     0.51074   0.91660   0.03510   0.01267  Uiso   1.00
H87    H     0.51275   0.96207   0.25583   0.01267  Uiso   1.00
H88    H     0.55464   0.06679   0.16955   0.01267  Uiso   1.00
H89    H     0.58088   0.09028   0.89295   0.01267  Uiso   1.00
H90    H     0.58976   0.53881   0.31061   0.00000  Uiso   1.00
Mg91   Mg    0.63564   0.94306   0.40063   0.01267  Uiso   1.00
P92    P     0.62625   0.90856   0.92003   0.01267  Uiso   1.00
C93    C     0.67357   0.88935   0.05033   0.01267  Uiso   1.00
C94    C     0.71247   0.88653   0.40863   0.01267  Uiso   1.00
C95    C     0.61127   0.82583   0.32523   0.01267  Uiso   1.00
N96    N     0.66307   0.88154   0.28943   0.01267  Uiso   1.00
O97    O     0.57101   0.86116   0.86163   0.01267  Uiso   1.00
O98    O     0.61677   0.94573   0.06953   0.01267  Uiso   1.00
O99    O     0.65422   0.94038   0.71873   0.01267  Uiso   1.00
H100   H     0.66727   0.84966   0.97657   0.01267  Uiso   1.00
H101   H     0.75007   0.92748   0.36843   0.01267  Uiso   1.00
H102   H     0.70460   0.88401   0.58916   0.01267  Uiso   1.00
H103   H     0.59988   0.82118   0.50288   0.01267  Uiso   1.00
H104   H     0.57639   0.82394   0.22628   0.01267  Uiso   1.00
H105   H     0.12785   0.38428   0.64395   0.00000  Uiso   1.00
Mg106  Mg    0.30230   0.27640   0.73397   0.01267  Uiso   1.00
P107   P     0.29291   0.24190   0.25337   0.01267  Uiso   1.00
C108   C     0.34023   0.22269   0.38367   0.01267  Uiso   1.00
C109   C     0.37913   0.21987   0.74197   0.01267  Uiso   1.00
C110   C     0.27793   0.15917   0.65857   0.01267  Uiso   1.00
N111   N     0.32973   0.21488   0.62277   0.01267  Uiso   1.00
O112   O     0.23767   0.19450   0.19497   0.01267  Uiso   1.00
O113   O     0.28343   0.27907   0.40287   0.01267  Uiso   1.00
O114   O     0.32088   0.27372   0.05207   0.01267  Uiso   1.00
H115   H     0.33394   0.18300   0.30991   0.01267  Uiso   1.00
H116   H     0.41674   0.26081   0.70176   0.01267  Uiso   1.00
H117   H     0.37127   0.21735   0.92250   0.01267  Uiso   1.00
H118   H     0.26654   0.15452   0.83622   0.01267  Uiso   1.00
H119   H     0.24305   0.15727   0.55962   0.01267  Uiso   1.00
H120   H     0.79452   0.71761   0.97728   0.00000  Uiso   1.00
Mg121  Mg    0.96897   0.60973   0.06730   0.01267  Uiso   1.00
P122   P     0.95958   0.57523   0.58670   0.01267  Uiso   1.00
C123   C     0.00690   0.55602   0.71700   0.01267  Uiso   1.00
C124   C     0.04580   0.55320   0.07530   0.01267  Uiso   1.00
C125   C     0.94460   0.49250   0.99190   0.01267  Uiso   1.00
N126   N     0.99640   0.54821   0.95610   0.01267  Uiso   1.00
O127   O     0.90434   0.52783   0.52830   0.01267  Uiso   1.00
O128   O     0.95010   0.61240   0.73620   0.01267  Uiso   1.00
O129   O     0.98755   0.60705   0.38540   0.01267  Uiso   1.00
H130   H     0.00060   0.51633   0.64324   0.01267  Uiso   1.00
H131   H     0.08340   0.59414   0.03510   0.01267  Uiso   1.00
H132   H     0.03793   0.55068   0.25583   0.01267  Uiso   1.00
H133   H     0.93321   0.48785   0.16955   0.01267  Uiso   1.00
H134   H     0.90972   0.49060   0.89295   0.01267  Uiso   1.00
H135   H     0.46119   0.05094   0.31061   0.00000  Uiso   1.00
Mg136  Mg    0.94306   0.30743   0.59937   0.01267  Uiso   1.00
P137   P     0.90856   0.28232   0.07997   0.01267  Uiso   1.00
C138   C     0.88935   0.21579   0.94967   0.01267  Uiso   1.00
C139   C     0.88653   0.17407   0.59137   0.01267  Uiso   1.00
C140   C     0.82583   0.21457   0.67477   0.01267  Uiso   1.00
N141   N     0.88154   0.21848   0.71057   0.01267  Uiso   1.00
O142   O     0.86116   0.29016   0.13837   0.01267  Uiso   1.00
O143   O     0.94573   0.32897   0.93047   0.01267  Uiso   1.00
O144   O     0.94038   0.28617   0.28127   0.01267  Uiso   1.00
H145   H     0.84966   0.18239   0.02343   0.01267  Uiso   1.00
H146   H     0.92748   0.17741   0.63157   0.01267  Uiso   1.00
H147   H     0.88401   0.17941   0.41084   0.01267  Uiso   1.00
H148   H     0.82118   0.22131   0.49712   0.01267  Uiso   1.00
H149   H     0.82394   0.24755   0.77372   0.01267  Uiso   1.00
H150   H     0.38428   0.25642   0.35605   0.00000  Uiso   1.00
Mg151  Mg    0.60973   0.64076   0.93270   0.01267  Uiso   1.00
P152   P     0.57523   0.61565   0.41330   0.01267  Uiso   1.00
C153   C     0.55602   0.54912   0.28300   0.01267  Uiso   1.00
C154   C     0.55320   0.50740   0.92470   0.01267  Uiso   1.00
C155   C     0.49250   0.54790   0.00810   0.01267  Uiso   1.00
N156   N     0.54821   0.55181   0.04390   0.01267  Uiso   1.00
O157   O     0.52783   0.62349   0.47170   0.01267  Uiso   1.00
O158   O     0.61240   0.66230   0.26380   0.01267  Uiso   1.00
O159   O     0.60705   0.61950   0.61460   0.01267  Uiso   1.00
H160   H     0.51633   0.51572   0.35676   0.01267  Uiso   1.00
H161   H     0.59414   0.51074   0.96490   0.01267  Uiso   1.00
H162   H     0.55068   0.51275   0.74417   0.01267  Uiso   1.00
H163   H     0.48785   0.55464   0.83045   0.01267  Uiso   1.00
H164   H     0.49060   0.58088   0.10705   0.01267  Uiso   1.00
H165   H     0.05094   0.58976   0.68939   0.00000  Uiso   1.00
Mg166  Mg    0.27640   0.97409   0.26603   0.01267  Uiso   1.00
P167   P     0.24190   0.94898   0.74663   0.01267  Uiso   1.00
C168   C     0.22269   0.88245   0.61633   0.01267  Uiso   1.00
C169   C     0.21987   0.84073   0.25803   0.01267  Uiso   1.00
C170   C     0.15917   0.88123   0.34143   0.01267  Uiso   1.00
N171   N     0.21488   0.88514   0.37723   0.01267  Uiso   1.00
O172   O     0.19450   0.95682   0.80503   0.01267  Uiso   1.00
O173   O     0.27907   0.99563   0.59713   0.01267  Uiso   1.00
O174   O     0.27372   0.95283   0.94793   0.01267  Uiso   1.00
H175   H     0.18300   0.84906   0.69009   0.01267  Uiso   1.00
H176   H     0.26081   0.84408   0.29824   0.01267  Uiso   1.00
H177   H     0.21735   0.84608   0.07750   0.01267  Uiso   1.00
H178   H     0.15452   0.88797   0.16378   0.01267  Uiso   1.00
H179   H     0.15727   0.91422   0.44038   0.01267  Uiso   1.00
H180   H     0.71761   0.92309   0.02272   0.00000  Uiso   1.00
Mg181  Mg    0.69257   0.63564   0.59937   0.01267  Uiso   1.00
P182   P     0.71768   0.62625   0.07997   0.01267  Uiso   1.00
C183   C     0.78421   0.67357   0.94967   0.01267  Uiso   1.00
C184   C     0.82593   0.71247   0.59137   0.01267  Uiso   1.00
C185   C     0.78543   0.61127   0.67477   0.01267  Uiso   1.00
N186   N     0.78152   0.66307   0.71057   0.01267  Uiso   1.00
O187   O     0.70984   0.57101   0.13837   0.01267  Uiso   1.00
O188   O     0.67103   0.61677   0.93047   0.01267  Uiso   1.00
O189   O     0.71383   0.65422   0.28127   0.01267  Uiso   1.00
H190   H     0.81761   0.66727   0.02343   0.01267  Uiso   1.00
H191   H     0.82259   0.75007   0.63157   0.01267  Uiso   1.00
H192   H     0.82059   0.70460   0.41084   0.01267  Uiso   1.00
H193   H     0.77869   0.59988   0.49712   0.01267  Uiso   1.00
H194   H     0.75245   0.57639   0.77372   0.01267  Uiso   1.00
H195   H     0.74358   0.12785   0.35605   0.00000  Uiso   1.00
Mg196  Mg    0.35924   0.96897   0.93270   0.01267  Uiso   1.00
P197   P     0.38435   0.95958   0.41330   0.01267  Uiso   1.00
C198   C     0.45088   0.00690   0.28300   0.01267  Uiso   1.00
C199   C     0.49260   0.04580   0.92470   0.01267  Uiso   1.00
C200   C     0.45210   0.94460   0.00810   0.01267  Uiso   1.00
N201   N     0.44819   0.99640   0.04390   0.01267  Uiso   1.00
O202   O     0.37651   0.90434   0.47170   0.01267  Uiso   1.00
O203   O     0.33770   0.95010   0.26380   0.01267  Uiso   1.00
O204   O     0.38050   0.98755   0.61460   0.01267  Uiso   1.00
H205   H     0.48428   0.00060   0.35676   0.01267  Uiso   1.00
H206   H     0.48926   0.08340   0.96490   0.01267  Uiso   1.00
H207   H     0.48725   0.03793   0.74417   0.01267  Uiso   1.00
H208   H     0.44536   0.93321   0.83045   0.01267  Uiso   1.00
H209   H     0.41912   0.90972   0.10705   0.01267  Uiso   1.00
H210   H     0.41024   0.46119   0.68939   0.00000  Uiso   1.00
Mg211  Mg    0.02591   0.30230   0.26603   0.01267  Uiso   1.00
P212   P     0.05102   0.29291   0.74663   0.01267  Uiso   1.00
C213   C     0.11755   0.34023   0.61633   0.01267  Uiso   1.00
C214   C     0.15927   0.37913   0.25803   0.01267  Uiso   1.00
C215   C     0.11877   0.27793   0.34143   0.01267  Uiso   1.00
N216   N     0.11486   0.32973   0.37723   0.01267  Uiso   1.00
O217   O     0.04318   0.23767   0.80503   0.01267  Uiso   1.00
O218   O     0.00437   0.28343   0.59713   0.01267  Uiso   1.00
O219   O     0.04717   0.32088   0.94793   0.01267  Uiso   1.00
H220   H     0.15094   0.33394   0.69009   0.01267  Uiso   1.00
H221   H     0.15592   0.41674   0.29824   0.01267  Uiso   1.00
H222   H     0.15392   0.37127   0.07750   0.01267  Uiso   1.00
H223   H     0.11203   0.26654   0.16378   0.01267  Uiso   1.00
H224   H     0.08578   0.24305   0.44038   0.01267  Uiso   1.00
H225   H     0.07691   0.79452   0.02272   0.00000  Uiso   1.00
Mg226  Mg    0.36436   0.05694   0.59937   0.01267  Uiso   1.00
P227   P     0.37375   0.09144   0.07997   0.01267  Uiso   1.00
C228   C     0.32643   0.11065   0.94967   0.01267  Uiso   1.00
C229   C     0.28753   0.11347   0.59137   0.01267  Uiso   1.00
C230   C     0.38873   0.17417   0.67477   0.01267  Uiso   1.00
N231   N     0.33693   0.11846   0.71057   0.01267  Uiso   1.00
O232   O     0.42899   0.13884   0.13837   0.01267  Uiso   1.00
O233   O     0.38323   0.05427   0.93047   0.01267  Uiso   1.00
O234   O     0.34578   0.05962   0.28127   0.01267  Uiso   1.00
H235   H     0.33273   0.15034   0.02343   0.01267  Uiso   1.00
H236   H     0.24993   0.07252   0.63157   0.01267  Uiso   1.00
H237   H     0.29540   0.11599   0.41084   0.01267  Uiso   1.00
H238   H     0.40012   0.17882   0.49712   0.01267  Uiso   1.00
H239   H     0.42361   0.17606   0.77372   0.01267  Uiso   1.00
H240   H     0.87215   0.61572   0.35605   0.00000  Uiso   1.00
Mg241  Mg    0.03103   0.39027   0.93270   0.01267  Uiso   1.00
P242   P     0.04042   0.42477   0.41330   0.01267  Uiso   1.00
C243   C     0.99310   0.44398   0.28300   0.01267  Uiso   1.00
C244   C     0.95420   0.44680   0.92470   0.01267  Uiso   1.00
C245   C     0.05540   0.50750   0.00810   0.01267  Uiso   1.00
N246   N     0.00360   0.45179   0.04390   0.01267  Uiso   1.00
O247   O     0.09566   0.47217   0.47170   0.01267  Uiso   1.00
O248   O     0.04990   0.38760   0.26380   0.01267  Uiso   1.00
O249   O     0.01245   0.39295   0.61460   0.01267  Uiso   1.00
H250   H     0.99940   0.48367   0.35676   0.01267  Uiso   1.00
H251   H     0.91660   0.40586   0.96490   0.01267  Uiso   1.00
H252   H     0.96207   0.44932   0.74417   0.01267  Uiso   1.00
H253   H     0.06679   0.51215   0.83045   0.01267  Uiso   1.00
H254   H     0.09028   0.50940   0.10705   0.01267  Uiso   1.00
H255   H     0.53881   0.94906   0.68939   0.00000  Uiso   1.00
Mg256  Mg    0.69770   0.72360   0.26603   0.01267  Uiso   1.00
P257   P     0.70709   0.75810   0.74663   0.01267  Uiso   1.00
C258   C     0.65977   0.77731   0.61633   0.01267  Uiso   1.00
C259   C     0.62087   0.78013   0.25803   0.01267  Uiso   1.00
C260   C     0.72207   0.84083   0.34143   0.01267  Uiso   1.00
N261   N     0.67027   0.78512   0.37723   0.01267  Uiso   1.00
O262   O     0.76233   0.80550   0.80503   0.01267  Uiso   1.00
O263   O     0.71657   0.72093   0.59713   0.01267  Uiso   1.00
O264   O     0.67912   0.72628   0.94793   0.01267  Uiso   1.00
H265   H     0.66606   0.81700   0.69009   0.01267  Uiso   1.00
H266   H     0.58326   0.73919   0.29824   0.01267  Uiso   1.00
H267   H     0.62873   0.78265   0.07750   0.01267  Uiso   1.00
H268   H     0.73346   0.84548   0.16378   0.01267  Uiso   1.00
H269   H     0.75695   0.84273   0.44038   0.01267  Uiso   1.00
H270   H     0.20548   0.28239   0.02272   0.00000  Uiso   1.00
