data_image0
_cell_length_a       28.0942
_cell_length_b       28.0942
_cell_length_c       6.2846
_cell_angle_alpha    90
_cell_angle_beta     90
_cell_angle_gamma    120

_symmetry_space_group_name_H-M    "P 1"
_symmetry_int_tables_number       1

loop_
  _symmetry_equiv_pos_as_xyz
  'x, y, z'

loop_
  _atom_site_label
  _atom_site_occupancy
  _atom_site_fract_x
  _atom_site_fract_y
  _atom_site_fract_z
  _atom_site_thermal_displace_type
  _atom_site_B_iso_or_equiv
  _atom_site_type_symbol
  Co1      1.0000 0.30680  0.03248  0.71680  Biso   1.000  Co
  P1       1.0000 0.42240  0.03100  0.57050  Biso   1.000  P
  O1       1.0000 0.47470  0.08250  0.52200  Biso   1.000  O
  O2       1.0000 0.38960  0.04450  0.71850  Biso   1.000  O
  O3       1.0000 0.38500  0.00290  0.38420  Biso   1.000  O
  N1       1.0000 0.44779  0.99440  0.95570  Biso   1.000  N
  C1       1.0000 0.43940  0.98470  0.71730  Biso   1.000  C
  C2       1.0000 0.49750  0.05080  0.00100  Biso   1.000  C
  C3       1.0000 0.45150  0.94970  0.08000  Biso   1.000  C
  Co2      1.0000 0.97347  0.36581  0.05013  Biso   1.000  Co
  P2       1.0000 0.08907  0.36433  0.90383  Biso   1.000  P
  O4       1.0000 0.14137  0.41583  0.85533  Biso   1.000  O
  O5       1.0000 0.05627  0.37783  0.05183  Biso   1.000  O
  O6       1.0000 0.05167  0.33623  0.71753  Biso   1.000  O
  N2       1.0000 0.11446  0.32773  0.28903  Biso   1.000  N
  C4       1.0000 0.10607  0.31803  0.05063  Biso   1.000  C
  C5       1.0000 0.16417  0.38413  0.33433  Biso   1.000  C
  C6       1.0000 0.11817  0.28303  0.41333  Biso   1.000  C
  Co3      1.0000 0.64013  0.69915  0.38347  Biso   1.000  Co
  P3       1.0000 0.75573  0.69767  0.23717  Biso   1.000  P
  O7       1.0000 0.80803  0.74917  0.18867  Biso   1.000  O
  O8       1.0000 0.72293  0.71117  0.38517  Biso   1.000  O
  O9       1.0000 0.71833  0.66957  0.05087  Biso   1.000  O
  N3       1.0000 0.78112  0.66107  0.62237  Biso   1.000  N
  C7       1.0000 0.77273  0.65137  0.38397  Biso   1.000  C
  C8       1.0000 0.83083  0.71747  0.66767  Biso   1.000  C
  C9       1.0000 0.78483  0.61637  0.74667  Biso   1.000  C
  Co4      1.0000 0.96752  0.27432  0.71680  Biso   1.000  Co
  P4       1.0000 0.96900  0.39140  0.57050  Biso   1.000  P
  O10      1.0000 0.91750  0.39220  0.52200  Biso   1.000  O
  O11      1.0000 0.95550  0.34510  0.71850  Biso   1.000  O
  O12      1.0000 0.99710  0.38210  0.38420  Biso   1.000  O
  N4       1.0000 0.00560  0.45339  0.95570  Biso   1.000  N
  C10      1.0000 0.01530  0.45470  0.71730  Biso   1.000  C
  C11      1.0000 0.94920  0.44670  0.00100  Biso   1.000  C
  C12      1.0000 0.05030  0.50180  0.08000  Biso   1.000  C
  Co5      1.0000 0.63419  0.60765  0.05013  Biso   1.000  Co
  P5       1.0000 0.63567  0.72473  0.90383  Biso   1.000  P
  O13      1.0000 0.58417  0.72553  0.85533  Biso   1.000  O
  O14      1.0000 0.62217  0.67843  0.05183  Biso   1.000  O
  O15      1.0000 0.66377  0.71543  0.71753  Biso   1.000  O
  N5       1.0000 0.67227  0.78672  0.28903  Biso   1.000  N
  C13      1.0000 0.68197  0.78803  0.05063  Biso   1.000  C
  C14      1.0000 0.61587  0.78003  0.33433  Biso   1.000  C
  C15      1.0000 0.71697  0.83513  0.41333  Biso   1.000  C
  Co6      1.0000 0.30085  0.94099  0.38347  Biso   1.000  Co
  P6       1.0000 0.30233  0.05807  0.23717  Biso   1.000  P
  O16      1.0000 0.25083  0.05887  0.18867  Biso   1.000  O
  O17      1.0000 0.28883  0.01177  0.38517  Biso   1.000  O
  O18      1.0000 0.33043  0.04877  0.05087  Biso   1.000  O
  N6       1.0000 0.33893  0.12006  0.62237  Biso   1.000  N
  C16      1.0000 0.34863  0.12137  0.38397  Biso   1.000  C
  C17      1.0000 0.28253  0.11337  0.66767  Biso   1.000  C
  C18      1.0000 0.38363  0.16847  0.74667  Biso   1.000  C
  Co7      1.0000 0.72568  0.69320  0.71680  Biso   1.000  Co
  P7       1.0000 0.60860  0.57760  0.57050  Biso   1.000  P
  O19      1.0000 0.60780  0.52530  0.52200  Biso   1.000  O
  O20      1.0000 0.65490  0.61040  0.71850  Biso   1.000  O
  O21      1.0000 0.61790  0.61500  0.38420  Biso   1.000  O
  N7       1.0000 0.54661  0.55221  0.95570  Biso   1.000  N
  C19      1.0000 0.54530  0.56060  0.71730  Biso   1.000  C
  C20      1.0000 0.55330  0.50250  0.00100  Biso   1.000  C
  C21      1.0000 0.49820  0.54850  0.08000  Biso   1.000  C
  Co8      1.0000 0.39235  0.02653  0.05013  Biso   1.000  Co
  P8       1.0000 0.27527  0.91093  0.90383  Biso   1.000  P
  O22      1.0000 0.27447  0.85863  0.85533  Biso   1.000  O
  O23      1.0000 0.32157  0.94373  0.05183  Biso   1.000  O
  O24      1.0000 0.28457  0.94833  0.71753  Biso   1.000  O
  N8       1.0000 0.21328  0.88554  0.28903  Biso   1.000  N
  C22      1.0000 0.21197  0.89393  0.05063  Biso   1.000  C
  C23      1.0000 0.21997  0.83583  0.33433  Biso   1.000  C
  C24      1.0000 0.16487  0.88183  0.41333  Biso   1.000  C
  Co9      1.0000 0.05901  0.35987  0.38347  Biso   1.000  Co
  P9       1.0000 0.94193  0.24427  0.23717  Biso   1.000  P
  O25      1.0000 0.94113  0.19197  0.18867  Biso   1.000  O
  O26      1.0000 0.98823  0.27707  0.38517  Biso   1.000  O
  O27      1.0000 0.95123  0.28167  0.05087  Biso   1.000  O
  N9       1.0000 0.87994  0.21888  0.62237  Biso   1.000  N
  C25      1.0000 0.87863  0.22727  0.38397  Biso   1.000  C
  C26      1.0000 0.88663  0.16917  0.66767  Biso   1.000  C
  C27      1.0000 0.83153  0.21517  0.74667  Biso   1.000  C
  Co10     1.0000 0.69320  0.96752  0.28320  Biso   1.000  Co
  P10      1.0000 0.57760  0.96900  0.42950  Biso   1.000  P
  O28      1.0000 0.52530  0.91750  0.47800  Biso   1.000  O
  O29      1.0000 0.61040  0.95550  0.28150  Biso   1.000  O
  O30      1.0000 0.61500  0.99710  0.61580  Biso   1.000  O
  N10      1.0000 0.55221  0.00560  0.04430  Biso   1.000  N
  C28      1.0000 0.56060  0.01530  0.28270  Biso   1.000  C
  C29      1.0000 0.50250  0.94920  0.99900  Biso   1.000  C
  C30      1.0000 0.54850  0.05030  0.92000  Biso   1.000  C
  Co11     1.0000 0.35987  0.30085  0.61653  Biso   1.000  Co
  P11      1.0000 0.24427  0.30233  0.76283  Biso   1.000  P
  O31      1.0000 0.19197  0.25083  0.81133  Biso   1.000  O
  O32      1.0000 0.27707  0.28883  0.61483  Biso   1.000  O
  O33      1.0000 0.28167  0.33043  0.94913  Biso   1.000  O
  N11      1.0000 0.21888  0.33893  0.37763  Biso   1.000  N
  C31      1.0000 0.22727  0.34863  0.61603  Biso   1.000  C
  C32      1.0000 0.16917  0.28253  0.33233  Biso   1.000  C
  C33      1.0000 0.21517  0.38363  0.25333  Biso   1.000  C
  Co12     1.0000 0.02653  0.63419  0.94987  Biso   1.000  Co
  P12      1.0000 0.91093  0.63567  0.09617  Biso   1.000  P
  O34      1.0000 0.85863  0.58417  0.14467  Biso   1.000  O
  O35      1.0000 0.94373  0.62217  0.94817  Biso   1.000  O
  O36      1.0000 0.94833  0.66377  0.28247  Biso   1.000  O
  N12      1.0000 0.88554  0.67227  0.71097  Biso   1.000  N
  C34      1.0000 0.89393  0.68197  0.94937  Biso   1.000  C
  C35      1.0000 0.83583  0.61587  0.66567  Biso   1.000  C
  C36      1.0000 0.88183  0.71697  0.58667  Biso   1.000  C
  Co13     1.0000 0.03248  0.72568  0.28320  Biso   1.000  Co
  P13      1.0000 0.03100  0.60860  0.42950  Biso   1.000  P
  O37      1.0000 0.08250  0.60780  0.47800  Biso   1.000  O
  O38      1.0000 0.04450  0.65490  0.28150  Biso   1.000  O
  O39      1.0000 0.00290  0.61790  0.61580  Biso   1.000  O
  N13      1.0000 0.99440  0.54661  0.04430  Biso   1.000  N
  C37      1.0000 0.98470  0.54530  0.28270  Biso   1.000  C
  C38      1.0000 0.05080  0.55330  0.99900  Biso   1.000  C
  C39      1.0000 0.94970  0.49820  0.92000  Biso   1.000  C
  Co14     1.0000 0.69915  0.05901  0.61653  Biso   1.000  Co
  P14      1.0000 0.69767  0.94193  0.76283  Biso   1.000  P
  O40      1.0000 0.74917  0.94113  0.81133  Biso   1.000  O
  O41      1.0000 0.71117  0.98823  0.61483  Biso   1.000  O
  O42      1.0000 0.66957  0.95123  0.94913  Biso   1.000  O
  N14      1.0000 0.66107  0.87994  0.37763  Biso   1.000  N
  C40      1.0000 0.65137  0.87863  0.61603  Biso   1.000  C
  C41      1.0000 0.71747  0.88663  0.33233  Biso   1.000  C
  C42      1.0000 0.61637  0.83153  0.25333  Biso   1.000  C
  Co15     1.0000 0.36581  0.39235  0.94987  Biso   1.000  Co
  P15      1.0000 0.36433  0.27527  0.09617  Biso   1.000  P
  O43      1.0000 0.41583  0.27447  0.14467  Biso   1.000  O
  O44      1.0000 0.37783  0.32157  0.94817  Biso   1.000  O
  O45      1.0000 0.33623  0.28457  0.28247  Biso   1.000  O
  N15      1.0000 0.32773  0.21328  0.71097  Biso   1.000  N
  C43      1.0000 0.31803  0.21197  0.94937  Biso   1.000  C
  C44      1.0000 0.38413  0.21997  0.66567  Biso   1.000  C
  C45      1.0000 0.28303  0.16487  0.58667  Biso   1.000  C
  Co16     1.0000 0.27432  0.30680  0.28320  Biso   1.000  Co
  P16      1.0000 0.39140  0.42240  0.42950  Biso   1.000  P
  O46      1.0000 0.39220  0.47470  0.47800  Biso   1.000  O
  O47      1.0000 0.34510  0.38960  0.28150  Biso   1.000  O
  O48      1.0000 0.38210  0.38500  0.61580  Biso   1.000  O
  N16      1.0000 0.45339  0.44779  0.04430  Biso   1.000  N
  C46      1.0000 0.45470  0.43940  0.28270  Biso   1.000  C
  C47      1.0000 0.44670  0.49750  0.99900  Biso   1.000  C
  C48      1.0000 0.50180  0.45150  0.92000  Biso   1.000  C
  Co17     1.0000 0.94099  0.64013  0.61653  Biso   1.000  Co
  P17      1.0000 0.05807  0.75573  0.76283  Biso   1.000  P
  O49      1.0000 0.05887  0.80803  0.81133  Biso   1.000  O
  O50      1.0000 0.01177  0.72293  0.61483  Biso   1.000  O
  O51      1.0000 0.04877  0.71833  0.94913  Biso   1.000  O
  N17      1.0000 0.12006  0.78112  0.37763  Biso   1.000  N
  C49      1.0000 0.12137  0.77273  0.61603  Biso   1.000  C
  C50      1.0000 0.11337  0.83083  0.33233  Biso   1.000  C
  C51      1.0000 0.16847  0.78483  0.25333  Biso   1.000  C
  Co18     1.0000 0.60765  0.97347  0.94987  Biso   1.000  Co
  P18      1.0000 0.72473  0.08907  0.09617  Biso   1.000  P
  O52      1.0000 0.72553  0.14137  0.14467  Biso   1.000  O
  O53      1.0000 0.67843  0.05627  0.94817  Biso   1.000  O
  O54      1.0000 0.71543  0.05167  0.28247  Biso   1.000  O
  N18      1.0000 0.78672  0.11446  0.71097  Biso   1.000  N
  C52      1.0000 0.78803  0.10607  0.94937  Biso   1.000  C
  C53      1.0000 0.78003  0.16417  0.66567  Biso   1.000  C
  C54      1.0000 0.83513  0.11817  0.58667  Biso   1.000  C
