data_image0
_cell_length_a       8.4738
_cell_length_b       16.6853
_cell_length_c       16.2148
_cell_angle_alpha    90
_cell_angle_beta     95.919
_cell_angle_gamma    90

_symmetry_space_group_name_H-M    "P 1"
_symmetry_int_tables_number       1

loop_
  _symmetry_equiv_pos_as_xyz
  'x, y, z'

loop_
  _atom_site_label
  _atom_site_occupancy
  _atom_site_fract_x
  _atom_site_fract_y
  _atom_site_fract_z
  _atom_site_thermal_displace_type
  _atom_site_B_iso_or_equiv
  _atom_site_type_symbol
  P1       1.0000 0.81365  0.53488  0.76918  Biso   1.000  P
  H1       1.0000 0.76960  0.49970  0.80940  Biso   1.000  H
  P2       1.0000 0.30060  0.23584  0.70784  Biso   1.000  P
  H2       1.0000 0.40380  0.25330  0.73460  Biso   1.000  H
  P3       1.0000 0.01817  0.28537  0.89068  Biso   1.000  P
  H3       1.0000 0.13330  0.28790  0.90480  Biso   1.000  H
  P4       1.0000 0.80155  0.24924  0.66253  Biso   1.000  P
  H4       1.0000 0.74810  0.25210  0.71330  Biso   1.000  H
  O1       1.0000 0.20160  0.31037  0.69233  Biso   1.000  O
  O2       1.0000 0.91240  0.48385  0.71646  Biso   1.000  O
  O3       1.0000 0.97390  0.34365  0.82036  Biso   1.000  O
  O4       1.0000 0.87560  0.33088  0.64918  Biso   1.000  O
  O5       1.0000 0.22240  0.44349  0.80046  Biso   1.000  O
  O6       1.0000 0.16280  0.45961  0.63569  Biso   1.000  O
  O7       1.0000 0.33160  0.19757  0.62548  Biso   1.000  O
  O8       1.0000 0.91330  0.59837  0.81689  Biso   1.000  O
  O9       1.0000 0.67620  0.23060  0.59037  Biso   1.000  O
  O10      1.0000 0.93900  0.30763  0.96742  Biso   1.000  O
  O11      1.0000 0.35280  0.05230  0.54403  Biso   1.000  O
  O12      1.0000 0.34360  0.93250  0.48112  Biso   1.000  O
  O13      1.0000 0.97460  0.19969  0.86495  Biso   1.000  O
  O14      1.0000 0.67630  0.57030  0.71327  Biso   1.000  O
  O15      1.0000 0.92600  0.18325  0.67393  Biso   1.000  O
  O16      1.0000 0.23280  0.17864  0.76728  Biso   1.000  O
  O17      1.0000 0.40460  0.54032  0.80164  Biso   1.000  O
  O18      1.0000 0.35290  0.55306  0.63809  Biso   1.000  O
  C1       1.0000 0.26800  0.50290  0.67140  Biso   1.000  C
  C2       1.0000 0.30050  0.49470  0.76620  Biso   1.000  C
  C3       1.0000 0.41180  0.99530  0.50735  Biso   1.000  C
  Fe1      1.0000 0.04622  0.38793  0.71993  Biso   1.000  Fe
  Fe2      1.0000 0.50940  0.14865  0.57818  Biso   1.000  Fe
  Fe3      1.0000 0.02136  0.12854  0.77519  Biso   1.000  Fe
  P5       1.0000 0.68635  0.03488  0.73082  Biso   1.000  P
  H5       1.0000 0.73040  0.99970  0.69060  Biso   1.000  H
  P6       1.0000 0.19940  0.73584  0.79216  Biso   1.000  P
  H6       1.0000 0.09620  0.75330  0.76540  Biso   1.000  H
  P7       1.0000 0.48183  0.78537  0.60932  Biso   1.000  P
  H7       1.0000 0.36670  0.78790  0.59520  Biso   1.000  H
  P8       1.0000 0.69845  0.74924  0.83747  Biso   1.000  P
  H8       1.0000 0.75190  0.75210  0.78670  Biso   1.000  H
  O19      1.0000 0.29840  0.81037  0.80767  Biso   1.000  O
  O20      1.0000 0.58760  0.98385  0.78354  Biso   1.000  O
  O21      1.0000 0.52610  0.84365  0.67964  Biso   1.000  O
  O22      1.0000 0.62440  0.83088  0.85082  Biso   1.000  O
  O23      1.0000 0.27760  0.94349  0.69954  Biso   1.000  O
  O24      1.0000 0.33720  0.95961  0.86431  Biso   1.000  O
  O25      1.0000 0.16840  0.69757  0.87452  Biso   1.000  O
  O26      1.0000 0.58670  0.09837  0.68311  Biso   1.000  O
  O27      1.0000 0.82380  0.73060  0.90963  Biso   1.000  O
  O28      1.0000 0.56100  0.80763  0.53258  Biso   1.000  O
  O29      1.0000 0.14720  0.55230  0.95597  Biso   1.000  O
  O30      1.0000 0.15640  0.43250  0.01888  Biso   1.000  O
  O31      1.0000 0.52540  0.69969  0.63505  Biso   1.000  O
  O32      1.0000 0.82370  0.07030  0.78673  Biso   1.000  O
  O33      1.0000 0.57400  0.68325  0.82607  Biso   1.000  O
  O34      1.0000 0.26720  0.67864  0.73272  Biso   1.000  O
  O35      1.0000 0.09540  0.04032  0.69836  Biso   1.000  O
  O36      1.0000 0.14710  0.05306  0.86191  Biso   1.000  O
  C4       1.0000 0.23200  0.00290  0.82860  Biso   1.000  C
  C5       1.0000 0.19950  0.99470  0.73380  Biso   1.000  C
  C6       1.0000 0.08820  0.49530  0.99265  Biso   1.000  C
  Fe4      1.0000 0.45378  0.88793  0.78007  Biso   1.000  Fe
  Fe5      1.0000 0.99060  0.64865  0.92182  Biso   1.000  Fe
  Fe6      1.0000 0.47864  0.62854  0.72481  Biso   1.000  Fe
  P9       1.0000 0.18635  0.46512  0.23082  Biso   1.000  P
  H9       1.0000 0.23040  0.50030  0.19060  Biso   1.000  H
  P10      1.0000 0.69940  0.76416  0.29216  Biso   1.000  P
  H10      1.0000 0.59620  0.74670  0.26540  Biso   1.000  H
  P11      1.0000 0.98183  0.71463  0.10932  Biso   1.000  P
  H11      1.0000 0.86670  0.71210  0.09520  Biso   1.000  H
  P12      1.0000 0.19845  0.75076  0.33747  Biso   1.000  P
  H12      1.0000 0.25190  0.74790  0.28670  Biso   1.000  H
  O37      1.0000 0.79840  0.68963  0.30767  Biso   1.000  O
  O38      1.0000 0.08760  0.51615  0.28354  Biso   1.000  O
  O39      1.0000 0.02610  0.65635  0.17964  Biso   1.000  O
  O40      1.0000 0.12440  0.66912  0.35082  Biso   1.000  O
  O41      1.0000 0.77760  0.55651  0.19954  Biso   1.000  O
  O42      1.0000 0.83720  0.54039  0.36431  Biso   1.000  O
  O43      1.0000 0.66840  0.80243  0.37452  Biso   1.000  O
  O44      1.0000 0.08670  0.40163  0.18311  Biso   1.000  O
  O45      1.0000 0.32380  0.76940  0.40963  Biso   1.000  O
  O46      1.0000 0.06100  0.69237  0.03258  Biso   1.000  O
  O47      1.0000 0.64720  0.94770  0.45597  Biso   1.000  O
  O48      1.0000 0.65640  0.06750  0.51888  Biso   1.000  O
  O49      1.0000 0.02540  0.80031  0.13505  Biso   1.000  O
  O50      1.0000 0.32370  0.42970  0.28673  Biso   1.000  O
  O51      1.0000 0.07400  0.81675  0.32607  Biso   1.000  O
  O52      1.0000 0.76720  0.82136  0.23272  Biso   1.000  O
  O53      1.0000 0.59540  0.45968  0.19836  Biso   1.000  O
  O54      1.0000 0.64710  0.44694  0.36191  Biso   1.000  O
  C7       1.0000 0.73200  0.49710  0.32860  Biso   1.000  C
  C8       1.0000 0.69950  0.50530  0.23380  Biso   1.000  C
  C9       1.0000 0.58820  0.00470  0.49265  Biso   1.000  C
  Fe7      1.0000 0.95378  0.61207  0.28007  Biso   1.000  Fe
  Fe8      1.0000 0.49060  0.85135  0.42182  Biso   1.000  Fe
  Fe9      1.0000 0.97864  0.87146  0.22481  Biso   1.000  Fe
  P13      1.0000 0.31365  0.96512  0.26918  Biso   1.000  P
  H13      1.0000 0.26960  0.00030  0.30940  Biso   1.000  H
  P14      1.0000 0.80060  0.26416  0.20784  Biso   1.000  P
  H14      1.0000 0.90380  0.24670  0.23460  Biso   1.000  H
  P15      1.0000 0.51817  0.21463  0.39068  Biso   1.000  P
  H15      1.0000 0.63330  0.21210  0.40480  Biso   1.000  H
  P16      1.0000 0.30155  0.25076  0.16253  Biso   1.000  P
  H16      1.0000 0.24810  0.24790  0.21330  Biso   1.000  H
  O55      1.0000 0.70160  0.18963  0.19233  Biso   1.000  O
  O56      1.0000 0.41240  0.01615  0.21646  Biso   1.000  O
  O57      1.0000 0.47390  0.15635  0.32036  Biso   1.000  O
  O58      1.0000 0.37560  0.16912  0.14918  Biso   1.000  O
  O59      1.0000 0.72240  0.05651  0.30046  Biso   1.000  O
  O60      1.0000 0.66280  0.04039  0.13569  Biso   1.000  O
  O61      1.0000 0.83160  0.30243  0.12548  Biso   1.000  O
  O62      1.0000 0.41330  0.90163  0.31689  Biso   1.000  O
  O63      1.0000 0.17620  0.26940  0.09037  Biso   1.000  O
  O64      1.0000 0.43900  0.19237  0.46742  Biso   1.000  O
  O65      1.0000 0.85280  0.44770  0.04403  Biso   1.000  O
  O66      1.0000 0.84360  0.56750  0.98112  Biso   1.000  O
  O67      1.0000 0.47460  0.30031  0.36495  Biso   1.000  O
  O68      1.0000 0.17630  0.92970  0.21327  Biso   1.000  O
  O69      1.0000 0.42600  0.31675  0.17393  Biso   1.000  O
  O70      1.0000 0.73280  0.32136  0.26728  Biso   1.000  O
  O71      1.0000 0.90460  0.95968  0.30164  Biso   1.000  O
  O72      1.0000 0.85290  0.94694  0.13809  Biso   1.000  O
  C10      1.0000 0.76800  0.99710  0.17140  Biso   1.000  C
  C11      1.0000 0.80050  0.00530  0.26620  Biso   1.000  C
  C12      1.0000 0.91180  0.50470  0.00735  Biso   1.000  C
  Fe10     1.0000 0.54622  0.11207  0.21993  Biso   1.000  Fe
  Fe11     1.0000 0.00940  0.35135  0.07818  Biso   1.000  Fe
  Fe12     1.0000 0.52136  0.37146  0.27519  Biso   1.000  Fe
