data_XEWDUA_clean
_audit_creation_date              2014-07-02
_audit_creation_method            'Materials Studio'
_symmetry_space_group_name_H-M    'P1'
_symmetry_Int_Tables_number       1
_symmetry_cell_setting            triclinic
loop_
_symmetry_equiv_pos_as_xyz
  x,y,z
_cell_length_a                    8.8492
_cell_length_b                    17.2450
_cell_length_c                    17.7910
_cell_angle_alpha                 115.2750
_cell_angle_beta                  95.6620
_cell_angle_gamma                 103.8650
loop_
_atom_site_label
_atom_site_type_symbol
_atom_site_fract_x
_atom_site_fract_y
_atom_site_fract_z
_atom_site_U_iso_or_equiv
_atom_site_adp_type
_atom_site_occupancy
Gd1    Gd    0.18578   0.21965   0.37528   0.01267  Uiso   1.00
Gd2    Gd    0.81422   0.78035   0.62472   0.01267  Uiso   1.00
Cu1    Cu    0.00000   0.50000   0.50000   0.01267  Uiso   1.00
Cu2    Cu    0.50000   0.00000   0.50000   0.01267  Uiso   1.00
Cu3    Cu    0.50000   0.00000   0.00000   0.01267  Uiso   1.00
H1     H     0.98090   0.36530   0.61590   0.01267  Uiso   1.00
H2     H     0.14540   0.44120   0.64750   0.01267  Uiso   1.00
H3     H     0.94000   0.58900   0.68160   0.01267  Uiso   1.00
H4     H     0.98790   0.53440   0.72590   0.01267  Uiso   1.00
H5     H     0.19720   0.66050   0.76800   0.01267  Uiso   1.00
H6     H     0.24870   0.57740   0.71160   0.01267  Uiso   1.00
H7     H     0.34120   0.70000   0.68130   0.01267  Uiso   1.00
H8     H     0.16360   0.69240   0.65040   0.01267  Uiso   1.00
H9     H     0.32010   0.50860   0.59750   0.01267  Uiso   1.00
H10    H     0.35330   0.50380   0.51110   0.01267  Uiso   1.00
H11    H     0.76650   0.39760   0.61350   0.01267  Uiso   1.00
H12    H     0.73610   0.47290   0.59210   0.01267  Uiso   1.00
H13    H     0.62070   0.32890   0.47170   0.01267  Uiso   1.00
H14    H     0.79010   0.31520   0.47170   0.01267  Uiso   1.00
H15    H     0.65700   0.08790   0.38270   0.01267  Uiso   1.00
H16    H     0.75800   0.15780   0.47450   0.01267  Uiso   1.00
H17    H     0.95230   0.08470   0.51850   0.01267  Uiso   1.00
H18    H     0.85640   0.99870   0.52400   0.01267  Uiso   1.00
H19    H     0.90000   0.13090   0.65060   0.01267  Uiso   1.00
H20    H     0.79760   0.16440   0.60050   0.01267  Uiso   1.00
H21    H     0.61340   0.97100   0.66690   0.01267  Uiso   1.00
H22    H     0.78050   0.98390   0.64400   0.01267  Uiso   1.00
H23    H     0.38040   0.82740   0.32850   0.01267  Uiso   1.00
H24    H     0.30700   0.85790   0.26600   0.01267  Uiso   1.00
H25    H     0.56220   0.96450   0.29360   0.01267  Uiso   1.00
H26    H     0.56820   0.86550   0.25120   0.01267  Uiso   1.00
H27    H     0.80580   0.94430   0.35460   0.01267  Uiso   1.00
H28    H     0.69740   0.89610   0.39680   0.01267  Uiso   1.00
H29    H     0.22440   0.04450   0.09700   0.01267  Uiso   1.00
H30    H     0.30570   0.99550   0.13680   0.01267  Uiso   1.00
H31    H     0.58330   0.11890   0.24090   0.01267  Uiso   1.00
H32    H     0.69860   0.13930   0.18520   0.01267  Uiso   1.00
H33    H     0.46860   0.22010   0.18000   0.01267  Uiso   1.00
H34    H     0.58020   0.20100   0.11590   0.01267  Uiso   1.00
H35    H     0.35990   0.23870   0.07120   0.01267  Uiso   1.00
H36    H     0.24570   0.14910   0.06240   0.01267  Uiso   1.00
H37    H     0.46780   0.15610   0.96030   0.01267  Uiso   1.00
H38    H     0.28380   0.13420   0.92940   0.01267  Uiso   1.00
H39    H     0.29040   0.99110   0.80540   0.01267  Uiso   1.00
H40    H     0.47410   0.03640   0.84730   0.01267  Uiso   1.00
H41    H     0.10920   0.95880   0.86780   0.01267  Uiso   1.00
H42    H     0.12790   0.01710   0.96590   0.01267  Uiso   1.00
H43    H     0.01910   0.63470   0.38410   0.01267  Uiso   1.00
H44    H     0.85460   0.55880   0.35250   0.01267  Uiso   1.00
H45    H     0.06000   0.41100   0.31840   0.01267  Uiso   1.00
H46    H     0.01210   0.46560   0.27410   0.01267  Uiso   1.00
H47    H     0.80280   0.33950   0.23200   0.01267  Uiso   1.00
H48    H     0.75130   0.42260   0.28840   0.01267  Uiso   1.00
H49    H     0.65880   0.30000   0.31870   0.01267  Uiso   1.00
H50    H     0.83640   0.30760   0.34960   0.01267  Uiso   1.00
H51    H     0.67990   0.49140   0.40250   0.01267  Uiso   1.00
H52    H     0.64670   0.49620   0.48890   0.01267  Uiso   1.00
H53    H     0.23350   0.60240   0.38650   0.01267  Uiso   1.00
H54    H     0.26390   0.52710   0.40790   0.01267  Uiso   1.00
H55    H     0.37930   0.67110   0.52830   0.01267  Uiso   1.00
H56    H     0.20990   0.68480   0.52830   0.01267  Uiso   1.00
H57    H     0.34300   0.91210   0.61730   0.01267  Uiso   1.00
H58    H     0.24200   0.84220   0.52550   0.01267  Uiso   1.00
H59    H     0.04770   0.91530   0.48150   0.01267  Uiso   1.00
H60    H     0.14360   0.00130   0.47600   0.01267  Uiso   1.00
H61    H     0.10000   0.86910   0.34940   0.01267  Uiso   1.00
H62    H     0.20240   0.83560   0.39950   0.01267  Uiso   1.00
H63    H     0.38660   0.02900   0.33310   0.01267  Uiso   1.00
H64    H     0.21950   0.01610   0.35600   0.01267  Uiso   1.00
H65    H     0.61960   0.17260   0.67150   0.01267  Uiso   1.00
H66    H     0.69300   0.14210   0.73400   0.01267  Uiso   1.00
H67    H     0.43780   0.03550   0.70640   0.01267  Uiso   1.00
H68    H     0.43180   0.13450   0.74880   0.01267  Uiso   1.00
H69    H     0.19420   0.05570   0.64540   0.01267  Uiso   1.00
H70    H     0.30260   0.10390   0.60320   0.01267  Uiso   1.00
H71    H     0.77560   0.95550   0.90300   0.01267  Uiso   1.00
H72    H     0.69430   0.00450   0.86320   0.01267  Uiso   1.00
H73    H     0.41670   0.88110   0.75910   0.01267  Uiso   1.00
H74    H     0.30140   0.86070   0.81480   0.01267  Uiso   1.00
H75    H     0.53140   0.77990   0.82000   0.01267  Uiso   1.00
H76    H     0.41980   0.79900   0.88410   0.01267  Uiso   1.00
H77    H     0.64010   0.76130   0.92880   0.01267  Uiso   1.00
H78    H     0.75430   0.85090   0.93760   0.01267  Uiso   1.00
H79    H     0.53220   0.84390   0.03970   0.01267  Uiso   1.00
H80    H     0.71620   0.86580   0.07060   0.01267  Uiso   1.00
H81    H     0.70960   0.00890   0.19460   0.01267  Uiso   1.00
H82    H     0.52590   0.96360   0.15270   0.01267  Uiso   1.00
H83    H     0.89080   0.04120   0.13220   0.01267  Uiso   1.00
H84    H     0.87210   0.98290   0.03410   0.01267  Uiso   1.00
C1     C     0.09740   0.35450   0.52130   0.01267  Uiso   1.00
C2     C     0.04990   0.40740   0.60170   0.01267  Uiso   1.00
C3     C     0.00920   0.55350   0.68300   0.01267  Uiso   1.00
C4     C     0.17990   0.61310   0.71010   0.01267  Uiso   1.00
C5     C     0.23390   0.65810   0.65400   0.01267  Uiso   1.00
C6     C     0.35350   0.54480   0.56910   0.01267  Uiso   1.00
C7     C     0.52660   0.60740   0.61530   0.01267  Uiso   1.00
C8     C     0.79080   0.42780   0.57890   0.01267  Uiso   1.00
C9     C     0.73440   0.35980   0.48510   0.01267  Uiso   1.00
C10    C     0.89760   0.12300   0.38780   0.01267  Uiso   1.00
C11    C     0.75190   0.10250   0.42470   0.01267  Uiso   1.00
C12    C     0.84950   0.05370   0.52310   0.01267  Uiso   1.00
C13    C     0.81280   0.11130   0.60250   0.01267  Uiso   1.00
C14    C     0.66840   0.97370   0.62310   0.01267  Uiso   1.00
C15    C     0.60470   0.88440   0.54600   0.01267  Uiso   1.00
C16    C     0.38610   0.87870   0.31800   0.01267  Uiso   1.00
C17    C     0.55770   0.91280   0.30330   0.01267  Uiso   1.00
C18    C     0.71020   0.94120   0.37700   0.01267  Uiso   1.00
C19    C     0.27580   0.10940   0.22690   0.01267  Uiso   1.00
C20    C     0.31030   0.05430   0.14150   0.01267  Uiso   1.00
C21    C     0.60220   0.09700   0.18380   0.01267  Uiso   1.00
C22    C     0.47510   0.17790   0.12390   0.01267  Uiso   1.00
C23    C     0.35110   0.17680   0.05760   0.01267  Uiso   1.00
C24    C     0.36360   0.12720   0.96540   0.01267  Uiso   1.00
C25    C     0.37720   0.99440   0.84570   0.01267  Uiso   1.00
C26    C     0.17210   0.97680   0.92380   0.01267  Uiso   1.00
C27    C     0.15530   0.89470   0.93570   0.01267  Uiso   1.00
C28    C     0.90260   0.64550   0.47870   0.01267  Uiso   1.00
C29    C     0.95010   0.59260   0.39830   0.01267  Uiso   1.00
C30    C     0.99080   0.44650   0.31700   0.01267  Uiso   1.00
C31    C     0.82010   0.38690   0.28990   0.01267  Uiso   1.00
C32    C     0.76610   0.34190   0.34600   0.01267  Uiso   1.00
C33    C     0.64650   0.45520   0.43090   0.01267  Uiso   1.00
C34    C     0.47340   0.39260   0.38470   0.01267  Uiso   1.00
C35    C     0.20920   0.57220   0.42110   0.01267  Uiso   1.00
C36    C     0.26560   0.64020   0.51490   0.01267  Uiso   1.00
C37    C     0.10240   0.87700   0.61220   0.01267  Uiso   1.00
C38    C     0.24810   0.89750   0.57530   0.01267  Uiso   1.00
C39    C     0.15050   0.94630   0.47690   0.01267  Uiso   1.00
C40    C     0.18720   0.88870   0.39750   0.01267  Uiso   1.00
C41    C     0.33160   0.02630   0.37690   0.01267  Uiso   1.00
C42    C     0.39530   0.11560   0.45400   0.01267  Uiso   1.00
C43    C     0.61390   0.12130   0.68200   0.01267  Uiso   1.00
C44    C     0.44230   0.08720   0.69670   0.01267  Uiso   1.00
C45    C     0.28980   0.05880   0.62300   0.01267  Uiso   1.00
C46    C     0.72420   0.89060   0.77310   0.01267  Uiso   1.00
C47    C     0.68970   0.94570   0.85850   0.01267  Uiso   1.00
C48    C     0.39780   0.90300   0.81620   0.01267  Uiso   1.00
C49    C     0.52490   0.82210   0.87610   0.01267  Uiso   1.00
C50    C     0.64890   0.82320   0.94240   0.01267  Uiso   1.00
C51    C     0.63640   0.87280   0.03460   0.01267  Uiso   1.00
C52    C     0.62280   0.00560   0.15430   0.01267  Uiso   1.00
C53    C     0.82790   0.02320   0.07620   0.01267  Uiso   1.00
C54    C     0.84470   0.10530   0.06430   0.01267  Uiso   1.00
N1     N     0.96590   0.47180   0.59850   0.01267  Uiso   1.00
N2     N     0.23240   0.59160   0.56580   0.01267  Uiso   1.00
N3     N     0.65450   0.05440   0.61250   0.01267  Uiso   1.00
N4     N     0.72740   0.03090   0.44990   0.01267  Uiso   1.00
N5     N     0.34190   0.02800   0.93140   0.01267  Uiso   1.00
N6     N     0.46260   0.09040   0.12320   0.01267  Uiso   1.00
N7     N     0.03410   0.52820   0.40150   0.01267  Uiso   1.00
N8     N     0.76760   0.40840   0.43420   0.01267  Uiso   1.00
N9     N     0.34550   0.94560   0.38750   0.01267  Uiso   1.00
N10    N     0.27260   0.96910   0.55010   0.01267  Uiso   1.00
N11    N     0.65810   0.97200   0.06860   0.01267  Uiso   1.00
N12    N     0.53740   0.90960   0.87680   0.01267  Uiso   1.00
O1     O     0.08570   0.37010   0.45980   0.01267  Uiso   1.00
O2     O     0.15190   0.29080   0.52070   0.01267  Uiso   1.00
O3     O     0.60050   0.64890   0.57880   0.01267  Uiso   1.00
O4     O     0.58640   0.60970   0.68240   0.01267  Uiso   1.00
O5     O     0.89670   0.17110   0.35250   0.01267  Uiso   1.00
O6     O     0.01490   0.09600   0.39790   0.01267  Uiso   1.00
O7     O     0.63300   0.81660   0.55310   0.01267  Uiso   1.00
O8     O     0.52840   0.87650   0.48610   0.01267  Uiso   1.00
O9     O     0.14340   0.08020   0.23960   0.01267  Uiso   1.00
O10    O     0.37800   0.18260   0.28390   0.01267  Uiso   1.00
O11    O     0.27400   0.88950   0.97580   0.01267  Uiso   1.00
O12    O     0.01850   0.83520   0.90410   0.01267  Uiso   1.00
O13    O     0.91430   0.62990   0.54020   0.01267  Uiso   1.00
O14    O     0.84810   0.70920   0.47930   0.01267  Uiso   1.00
O15    O     0.39950   0.35110   0.42120   0.01267  Uiso   1.00
O16    O     0.41360   0.39030   0.31760   0.01267  Uiso   1.00
O17    O     0.10330   0.82890   0.64750   0.01267  Uiso   1.00
O18    O     0.98510   0.90400   0.60210   0.01267  Uiso   1.00
O19    O     0.36700   0.18340   0.44690   0.01267  Uiso   1.00
O20    O     0.47160   0.12350   0.51390   0.01267  Uiso   1.00
O21    O     0.85660   0.91980   0.76040   0.01267  Uiso   1.00
O22    O     0.62200   0.81740   0.71610   0.01267  Uiso   1.00
O23    O     0.72600   0.11050   0.02420   0.01267  Uiso   1.00
O24    O     0.98150   0.16480   0.09590   0.01267  Uiso   1.00
