data_XEWRUO_clean
_audit_creation_date              2014-07-02
_audit_creation_method            'Materials Studio'
_symmetry_space_group_name_H-M    'P1'
_symmetry_Int_Tables_number       1
_symmetry_cell_setting            triclinic
loop_
_symmetry_equiv_pos_as_xyz
  x,y,z
_cell_length_a                    9.9411
_cell_length_b                    9.9411
_cell_length_c                    11.2100
_cell_angle_alpha                 63.6786
_cell_angle_beta                  63.6786
_cell_angle_gamma                 89.9999
loop_
_atom_site_label
_atom_site_type_symbol
_atom_site_fract_x
_atom_site_fract_y
_atom_site_fract_z
_atom_site_U_iso_or_equiv
_atom_site_adp_type
_atom_site_occupancy
Cd1    Cd    0.86416   0.61416   0.77168   0.01267  Uiso   1.00
Cd2    Cd    0.61416   0.86416   0.27168   0.01267  Uiso   1.00
Cd3    Cd    0.13584   0.38584   0.22832   0.01267  Uiso   1.00
Cd4    Cd    0.38584   0.13584   0.72832   0.01267  Uiso   1.00
C1     C     0.61300   0.55860   0.55820   0.01267  Uiso   1.00
C2     C     0.32880   0.88320   0.55820   0.01267  Uiso   1.00
C3     C     0.55860   0.32880   0.05820   0.01267  Uiso   1.00
C4     C     0.88320   0.61300   0.05820   0.01267  Uiso   1.00
C5     C     0.38700   0.44140   0.44180   0.01267  Uiso   1.00
C6     C     0.67120   0.11680   0.44180   0.01267  Uiso   1.00
C7     C     0.44140   0.67120   0.94180   0.01267  Uiso   1.00
C8     C     0.11680   0.38700   0.94180   0.01267  Uiso   1.00
N1     N     0.75368   0.75252   0.51484   0.01267  Uiso   1.00
N2     N     0.74791   0.62566   0.63060   0.01267  Uiso   1.00
N3     N     0.66005   0.50206   0.66034   0.01267  Uiso   1.00
N4     N     0.66775   0.71116   0.46770   0.01267  Uiso   1.00
N5     N     0.51751   0.46270   0.55132   0.01267  Uiso   1.00
N6     N     0.23148   0.73264   0.51484   0.01267  Uiso   1.00
N7     N     0.12149   0.74374   0.63060   0.01267  Uiso   1.00
N8     N     0.17961   0.83760   0.66034   0.01267  Uiso   1.00
N9     N     0.36455   0.82114   0.46770   0.01267  Uiso   1.00
N10    N     0.43117   0.98598   0.55132   0.01267  Uiso   1.00
N11    N     0.75252   0.23148   0.01484   0.01267  Uiso   1.00
N12    N     0.62566   0.12149   0.13060   0.01267  Uiso   1.00
N13    N     0.50206   0.17961   0.16034   0.01267  Uiso   1.00
N14    N     0.71116   0.36455   0.96770   0.01267  Uiso   1.00
N15    N     0.46270   0.43117   0.05132   0.01267  Uiso   1.00
N16    N     0.73264   0.75368   0.01484   0.01267  Uiso   1.00
N17    N     0.74374   0.74791   0.13060   0.01267  Uiso   1.00
N18    N     0.83760   0.66005   0.16034   0.01267  Uiso   1.00
N19    N     0.82114   0.66775   0.96770   0.01267  Uiso   1.00
N20    N     0.98598   0.51751   0.05132   0.01267  Uiso   1.00
N21    N     0.24632   0.24748   0.48516   0.01267  Uiso   1.00
N22    N     0.25209   0.37434   0.36940   0.01267  Uiso   1.00
N23    N     0.33995   0.49794   0.33966   0.01267  Uiso   1.00
N24    N     0.33225   0.28884   0.53230   0.01267  Uiso   1.00
N25    N     0.48249   0.53730   0.44868   0.01267  Uiso   1.00
N26    N     0.76852   0.26736   0.48516   0.01267  Uiso   1.00
N27    N     0.87851   0.25626   0.36940   0.01267  Uiso   1.00
N28    N     0.82039   0.16240   0.33966   0.01267  Uiso   1.00
N29    N     0.63545   0.17886   0.53230   0.01267  Uiso   1.00
N30    N     0.56883   0.01402   0.44868   0.01267  Uiso   1.00
N31    N     0.24748   0.76852   0.98516   0.01267  Uiso   1.00
N32    N     0.37434   0.87851   0.86940   0.01267  Uiso   1.00
N33    N     0.49794   0.82039   0.83966   0.01267  Uiso   1.00
N34    N     0.28884   0.63545   0.03230   0.01267  Uiso   1.00
N35    N     0.53730   0.56883   0.94868   0.01267  Uiso   1.00
N36    N     0.26736   0.24632   0.98516   0.01267  Uiso   1.00
N37    N     0.25626   0.25209   0.86940   0.01267  Uiso   1.00
N38    N     0.16240   0.33995   0.83966   0.01267  Uiso   1.00
N39    N     0.17886   0.33225   0.03230   0.01267  Uiso   1.00
N40    N     0.01402   0.48249   0.94868   0.01267  Uiso   1.00
