data_XEXLOD_clean
_audit_creation_date              2014-07-02
_audit_creation_method            'Materials Studio'
_symmetry_space_group_name_H-M    'P1'
_symmetry_Int_Tables_number       1
_symmetry_cell_setting            triclinic
loop_
_symmetry_equiv_pos_as_xyz
  x,y,z
_cell_length_a                    5.5797
_cell_length_b                    16.7931
_cell_length_c                    25.9231
_cell_angle_alpha                 90.0000
_cell_angle_beta                  90.0000
_cell_angle_gamma                 98.5750
loop_
_atom_site_label
_atom_site_type_symbol
_atom_site_fract_x
_atom_site_fract_y
_atom_site_fract_z
_atom_site_U_iso_or_equiv
_atom_site_adp_type
_atom_site_occupancy
Zn1    Zn    0.11923   0.57962   0.52087   0.01267  Uiso   1.00
Zn2    Zn    0.88077   0.92038   0.02087   0.01267  Uiso   1.00
Zn3    Zn    0.88077   0.42038   0.47913   0.01267  Uiso   1.00
Zn4    Zn    0.11923   0.07962   0.97913   0.01267  Uiso   1.00
H1     H     0.44790   0.87190   0.08840   0.01267  Uiso   1.00
H2     H     0.38210   0.79820   0.16470   0.01267  Uiso   1.00
H3     H     0.95650   0.68690   0.12860   0.01267  Uiso   1.00
H4     H     0.01000   0.76490   0.05430   0.01267  Uiso   1.00
H5     H     0.11690   0.53120   0.24970   0.01267  Uiso   1.00
H6     H     0.05860   0.47920   0.33380   0.01267  Uiso   1.00
H7     H     0.06340   0.70110   0.40450   0.01267  Uiso   1.00
H8     H     0.10520   0.75440   0.32140   0.01267  Uiso   1.00
H9     H     0.55210   0.62810   0.58840   0.01267  Uiso   1.00
H10    H     0.61790   0.70180   0.66470   0.01267  Uiso   1.00
H11    H     0.04350   0.81310   0.62860   0.01267  Uiso   1.00
H12    H     0.99000   0.73510   0.55430   0.01267  Uiso   1.00
H13    H     0.88310   0.96880   0.74970   0.01267  Uiso   1.00
H14    H     0.94140   0.02080   0.83380   0.01267  Uiso   1.00
H15    H     0.93660   0.79890   0.90450   0.01267  Uiso   1.00
H16    H     0.89480   0.74560   0.82140   0.01267  Uiso   1.00
H17    H     0.55210   0.12810   0.91160   0.01267  Uiso   1.00
H18    H     0.61790   0.20180   0.83530   0.01267  Uiso   1.00
H19    H     0.04350   0.31310   0.87140   0.01267  Uiso   1.00
H20    H     0.99000   0.23510   0.94570   0.01267  Uiso   1.00
H21    H     0.88310   0.46880   0.75030   0.01267  Uiso   1.00
H22    H     0.94140   0.52080   0.66620   0.01267  Uiso   1.00
H23    H     0.93660   0.29890   0.59550   0.01267  Uiso   1.00
H24    H     0.89480   0.24560   0.67860   0.01267  Uiso   1.00
H25    H     0.44790   0.37190   0.41160   0.01267  Uiso   1.00
H26    H     0.38210   0.29820   0.33530   0.01267  Uiso   1.00
H27    H     0.95650   0.18690   0.37140   0.01267  Uiso   1.00
H28    H     0.01000   0.26490   0.44570   0.01267  Uiso   1.00
H29    H     0.11690   0.03120   0.25030   0.01267  Uiso   1.00
H30    H     0.05860   0.97920   0.16620   0.01267  Uiso   1.00
H31    H     0.06340   0.20110   0.09550   0.01267  Uiso   1.00
H32    H     0.10520   0.25440   0.17860   0.01267  Uiso   1.00
C1     C     0.55470   0.83510   0.09746   0.01267  Uiso   1.00
C2     C     0.51440   0.79170   0.14281   0.01267  Uiso   1.00
C3     C     0.67230   0.73890   0.15528   0.01267  Uiso   1.00
C4     C     0.85440   0.72610   0.12160   0.01267  Uiso   1.00
C5     C     0.88320   0.77220   0.07747   0.01267  Uiso   1.00
C6     C     0.44610   0.64260   0.21341   0.01267  Uiso   1.00
C7     C     0.42450   0.60690   0.26594   0.01267  Uiso   1.00
C8     C     0.59760   0.63220   0.30421   0.01267  Uiso   1.00
C9     C     0.80220   0.68920   0.29248   0.01267  Uiso   1.00
C10    C     0.83640   0.72410   0.23998   0.01267  Uiso   1.00
C11    C     0.22850   0.54990   0.27632   0.01267  Uiso   1.00
C12    C     0.19380   0.51920   0.32672   0.01267  Uiso   1.00
C13    C     0.35180   0.54590   0.36575   0.01267  Uiso   1.00
C14    C     0.56560   0.60064   0.35535   0.01267  Uiso   1.00
C15    C     0.75010   0.62680   0.39232   0.01267  Uiso   1.00
C16    C     0.94430   0.68320   0.37921   0.01267  Uiso   1.00
C17    C     0.97040   0.71490   0.32956   0.01267  Uiso   1.00
C18    C     0.26390   0.52390   0.41971   0.01267  Uiso   1.00
C19    C     0.77390   0.58600   0.44373   0.01267  Uiso   1.00
C20    C     0.44530   0.66490   0.59746   0.01267  Uiso   1.00
C21    C     0.48560   0.70830   0.64281   0.01267  Uiso   1.00
C22    C     0.32770   0.76110   0.65528   0.01267  Uiso   1.00
C23    C     0.14560   0.77390   0.62160   0.01267  Uiso   1.00
C24    C     0.11680   0.72780   0.57747   0.01267  Uiso   1.00
C25    C     0.55390   0.85740   0.71341   0.01267  Uiso   1.00
C26    C     0.57550   0.89310   0.76594   0.01267  Uiso   1.00
C27    C     0.40240   0.86780   0.80421   0.01267  Uiso   1.00
C28    C     0.19780   0.81080   0.79248   0.01267  Uiso   1.00
C29    C     0.16360   0.77590   0.73998   0.01267  Uiso   1.00
C30    C     0.77150   0.95010   0.77632   0.01267  Uiso   1.00
C31    C     0.80620   0.98080   0.82672   0.01267  Uiso   1.00
C32    C     0.64820   0.95410   0.86575   0.01267  Uiso   1.00
C33    C     0.43440   0.89936   0.85535   0.01267  Uiso   1.00
C34    C     0.24990   0.87320   0.89232   0.01267  Uiso   1.00
C35    C     0.05570   0.81680   0.87921   0.01267  Uiso   1.00
C36    C     0.02960   0.78510   0.82956   0.01267  Uiso   1.00
C37    C     0.73610   0.97610   0.91971   0.01267  Uiso   1.00
C38    C     0.22610   0.91400   0.94373   0.01267  Uiso   1.00
C39    C     0.44530   0.16490   0.90254   0.01267  Uiso   1.00
C40    C     0.48560   0.20830   0.85719   0.01267  Uiso   1.00
C41    C     0.32770   0.26110   0.84472   0.01267  Uiso   1.00
C42    C     0.14560   0.27390   0.87840   0.01267  Uiso   1.00
C43    C     0.11680   0.22780   0.92253   0.01267  Uiso   1.00
C44    C     0.55390   0.35740   0.78659   0.01267  Uiso   1.00
C45    C     0.57550   0.39310   0.73406   0.01267  Uiso   1.00
C46    C     0.40240   0.36780   0.69579   0.01267  Uiso   1.00
C47    C     0.19780   0.31080   0.70752   0.01267  Uiso   1.00
C48    C     0.16360   0.27590   0.76002   0.01267  Uiso   1.00
C49    C     0.77150   0.45010   0.72368   0.01267  Uiso   1.00
C50    C     0.80620   0.48080   0.67328   0.01267  Uiso   1.00
C51    C     0.64820   0.45410   0.63425   0.01267  Uiso   1.00
C52    C     0.43440   0.39936   0.64465   0.01267  Uiso   1.00
C53    C     0.24990   0.37320   0.60768   0.01267  Uiso   1.00
C54    C     0.05570   0.31680   0.62079   0.01267  Uiso   1.00
C55    C     0.02960   0.28510   0.67044   0.01267  Uiso   1.00
C56    C     0.73610   0.47610   0.58029   0.01267  Uiso   1.00
C57    C     0.22610   0.41400   0.55627   0.01267  Uiso   1.00
C58    C     0.55470   0.33510   0.40254   0.01267  Uiso   1.00
C59    C     0.51440   0.29170   0.35719   0.01267  Uiso   1.00
C60    C     0.67230   0.23890   0.34472   0.01267  Uiso   1.00
C61    C     0.85440   0.22610   0.37840   0.01267  Uiso   1.00
C62    C     0.88320   0.27220   0.42253   0.01267  Uiso   1.00
C63    C     0.44610   0.14260   0.28659   0.01267  Uiso   1.00
C64    C     0.42450   0.10690   0.23406   0.01267  Uiso   1.00
C65    C     0.59760   0.13220   0.19579   0.01267  Uiso   1.00
C66    C     0.80220   0.18920   0.20752   0.01267  Uiso   1.00
C67    C     0.83640   0.22410   0.26002   0.01267  Uiso   1.00
C68    C     0.22850   0.04990   0.22368   0.01267  Uiso   1.00
C69    C     0.19380   0.01920   0.17328   0.01267  Uiso   1.00
C70    C     0.35180   0.04590   0.13425   0.01267  Uiso   1.00
C71    C     0.56560   0.10064   0.14465   0.01267  Uiso   1.00
C72    C     0.75010   0.12680   0.10768   0.01267  Uiso   1.00
C73    C     0.94430   0.18320   0.12079   0.01267  Uiso   1.00
C74    C     0.97040   0.21490   0.17044   0.01267  Uiso   1.00
C75    C     0.26390   0.02390   0.08029   0.01267  Uiso   1.00
C76    C     0.77390   0.08600   0.05627   0.01267  Uiso   1.00
N1     N     0.73950   0.82687   0.06585   0.01267  Uiso   1.00
N2     N     0.65210   0.69965   0.20458   0.01267  Uiso   1.00
N3     N     0.26050   0.67313   0.56585   0.01267  Uiso   1.00
N4     N     0.34790   0.80035   0.70458   0.01267  Uiso   1.00
N5     N     0.26050   0.17313   0.93415   0.01267  Uiso   1.00
N6     N     0.34790   0.30035   0.79542   0.01267  Uiso   1.00
N7     N     0.73950   0.32687   0.43415   0.01267  Uiso   1.00
N8     N     0.65210   0.19965   0.29542   0.01267  Uiso   1.00
O1     O     0.28910   0.57993   0.45242   0.01267  Uiso   1.00
O2     O     0.15480   0.45465   0.42625   0.01267  Uiso   1.00
O3     O     0.72790   0.51054   0.44401   0.01267  Uiso   1.00
O4     O     0.86240   0.63006   0.48011   0.01267  Uiso   1.00
O5     O     0.29900   0.62587   0.17956   0.01267  Uiso   1.00
O6     O     0.01080   0.77335   0.22833   0.01267  Uiso   1.00
O7     O     0.71090   0.92007   0.95242   0.01267  Uiso   1.00
O8     O     0.84520   0.04535   0.92625   0.01267  Uiso   1.00
O9     O     0.27210   0.98946   0.94401   0.01267  Uiso   1.00
O10    O     0.13760   0.86994   0.98011   0.01267  Uiso   1.00
O11    O     0.70100   0.87413   0.67956   0.01267  Uiso   1.00
O12    O     0.98920   0.72665   0.72833   0.01267  Uiso   1.00
O13    O     0.71090   0.42007   0.54758   0.01267  Uiso   1.00
O14    O     0.84520   0.54535   0.57375   0.01267  Uiso   1.00
O15    O     0.27210   0.48946   0.55599   0.01267  Uiso   1.00
O16    O     0.13760   0.36994   0.51989   0.01267  Uiso   1.00
O17    O     0.70100   0.37413   0.82044   0.01267  Uiso   1.00
O18    O     0.98920   0.22665   0.77167   0.01267  Uiso   1.00
O19    O     0.28910   0.07993   0.04758   0.01267  Uiso   1.00
O20    O     0.15480   0.95465   0.07375   0.01267  Uiso   1.00
O21    O     0.72790   0.01054   0.05599   0.01267  Uiso   1.00
O22    O     0.86240   0.13006   0.01989   0.01267  Uiso   1.00
O23    O     0.29900   0.12587   0.32044   0.01267  Uiso   1.00
O24    O     0.01080   0.27335   0.27167   0.01267  Uiso   1.00
