data_image0
_cell_length_a       4.9738
_cell_length_b       24.836
_cell_length_c       20.663
_cell_angle_alpha    90
_cell_angle_beta     95.903
_cell_angle_gamma    90

_symmetry_space_group_name_H-M    "P 1"
_symmetry_int_tables_number       1

loop_
  _symmetry_equiv_pos_as_xyz
  'x, y, z'

loop_
  _atom_site_label
  _atom_site_occupancy
  _atom_site_fract_x
  _atom_site_fract_y
  _atom_site_fract_z
  _atom_site_thermal_displace_type
  _atom_site_B_iso_or_equiv
  _atom_site_type_symbol
  Cd1      1.0000 0.32280  0.95764  0.44051  Biso   1.000  Cd
  O1       1.0000 0.94320  0.98257  0.37813  Biso   1.000  O
  O2       1.0000 0.50260  0.00155  0.36211  Biso   1.000  O
  O3       1.0000 0.28220  0.04105  0.48795  Biso   1.000  O
  O4       1.0000 0.87140  0.07872  0.47595  Biso   1.000  O
  O5       1.0000 0.76370  0.19706  0.13660  Biso   1.000  O
  O6       1.0000 0.48310  0.25722  0.26970  Biso   1.000  O
  N1       1.0000 0.12780  0.37373  0.10130  Biso   1.000  N
  C1       1.0000 0.96000  0.36660  0.14640  Biso   1.000  C
  H1       1.0000 0.84340  0.39530  0.15540  Biso   1.000  H
  C2       1.0000 0.94710  0.31930  0.18100  Biso   1.000  C
  H2       1.0000 0.82440  0.31560  0.21300  Biso   1.000  H
  C3       1.0000 0.11390  0.27810  0.16820  Biso   1.000  C
  C4       1.0000 0.27730  0.28300  0.11990  Biso   1.000  C
  H3       1.0000 0.38650  0.25400  0.10810  Biso   1.000  H
  C5       1.0000 0.27850  0.33240  0.08830  Biso   1.000  C
  H4       1.0000 0.39590  0.33650  0.05510  Biso   1.000  H
  N2       1.0000 0.10940  0.22919  0.20590  Biso   1.000  N
  C6       1.0000 0.90770  0.19130  0.18730  Biso   1.000  C
  C7       1.0000 0.88120  0.14600  0.23280  Biso   1.000  C
  C8       1.0000 0.04760  0.14263  0.29230  Biso   1.000  C
  C9       1.0000 0.25780  0.18080  0.30670  Biso   1.000  C
  C10      1.0000 0.29930  0.22440  0.26110  Biso   1.000  C
  C11      1.0000 0.68080  0.10900  0.21730  Biso   1.000  C
  H5       1.0000 0.56890  0.11180  0.17730  Biso   1.000  H
  C12      1.0000 0.64100  0.06690  0.26060  Biso   1.000  C
  H6       1.0000 0.50230  0.04120  0.24940  Biso   1.000  H
  C13      1.0000 0.79990  0.06200  0.31960  Biso   1.000  C
  C14      1.0000 0.00490  0.10150  0.33840  Biso   1.000  C
  C15      1.0000 0.16650  0.10281  0.39970  Biso   1.000  C
  C16      1.0000 0.37240  0.13990  0.41130  Biso   1.000  C
  H7       1.0000 0.48210  0.13950  0.45180  Biso   1.000  H
  C17      1.0000 0.42140  0.17830  0.36410  Biso   1.000  C
  H8       1.0000 0.56860  0.20260  0.37200  Biso   1.000  H
  C18      1.0000 0.74720  0.01195  0.35760  Biso   1.000  C
  C19      1.0000 0.10120  0.07073  0.45800  Biso   1.000  C
  Cd2      1.0000 0.17720  0.45764  0.05949  Biso   1.000  Cd
  O7       1.0000 0.55680  0.48257  0.12187  Biso   1.000  O
  O8       1.0000 0.99740  0.50155  0.13789  Biso   1.000  O
  O9       1.0000 0.21780  0.54105  0.01205  Biso   1.000  O
  O10      1.0000 0.62860  0.57872  0.02405  Biso   1.000  O
  O11      1.0000 0.73630  0.69706  0.36340  Biso   1.000  O
  O12      1.0000 0.01690  0.75722  0.23030  Biso   1.000  O
  N3       1.0000 0.37220  0.87373  0.39870  Biso   1.000  N
  C20      1.0000 0.54000  0.86660  0.35360  Biso   1.000  C
  H9       1.0000 0.65660  0.89530  0.34460  Biso   1.000  H
  C21      1.0000 0.55290  0.81930  0.31900  Biso   1.000  C
  H10      1.0000 0.67560  0.81560  0.28700  Biso   1.000  H
  C22      1.0000 0.38610  0.77810  0.33180  Biso   1.000  C
  C23      1.0000 0.22270  0.78300  0.38010  Biso   1.000  C
  H11      1.0000 0.11350  0.75400  0.39190  Biso   1.000  H
  C24      1.0000 0.22150  0.83240  0.41170  Biso   1.000  C
  H12      1.0000 0.10410  0.83650  0.44490  Biso   1.000  H
  N4       1.0000 0.39060  0.72919  0.29410  Biso   1.000  N
  C25      1.0000 0.59230  0.69130  0.31270  Biso   1.000  C
  C26      1.0000 0.61880  0.64600  0.26720  Biso   1.000  C
  C27      1.0000 0.45240  0.64263  0.20770  Biso   1.000  C
  C28      1.0000 0.24220  0.68080  0.19330  Biso   1.000  C
  C29      1.0000 0.20070  0.72440  0.23890  Biso   1.000  C
  C30      1.0000 0.81920  0.60900  0.28270  Biso   1.000  C
  H13      1.0000 0.93110  0.61180  0.32270  Biso   1.000  H
  C31      1.0000 0.85900  0.56690  0.23940  Biso   1.000  C
  H14      1.0000 0.99770  0.54120  0.25060  Biso   1.000  H
  C32      1.0000 0.70010  0.56200  0.18040  Biso   1.000  C
  C33      1.0000 0.49510  0.60150  0.16160  Biso   1.000  C
  C34      1.0000 0.33350  0.60281  0.10030  Biso   1.000  C
  C35      1.0000 0.12760  0.63990  0.08870  Biso   1.000  C
  H15      1.0000 0.01790  0.63950  0.04820  Biso   1.000  H
  C36      1.0000 0.07860  0.67830  0.13590  Biso   1.000  C
  H16      1.0000 0.93140  0.70260  0.12800  Biso   1.000  H
  C37      1.0000 0.75280  0.51195  0.14240  Biso   1.000  C
  C38      1.0000 0.39880  0.57073  0.04200  Biso   1.000  C
  Cd3      1.0000 0.67720  0.04236  0.55949  Biso   1.000  Cd
  O13      1.0000 0.05680  0.01743  0.62187  Biso   1.000  O
  O14      1.0000 0.49740  0.99845  0.63789  Biso   1.000  O
  O15      1.0000 0.71780  0.95895  0.51205  Biso   1.000  O
  O16      1.0000 0.12860  0.92128  0.52405  Biso   1.000  O
  O17      1.0000 0.23630  0.80294  0.86340  Biso   1.000  O
  O18      1.0000 0.51690  0.74278  0.73030  Biso   1.000  O
  N5       1.0000 0.87220  0.62627  0.89870  Biso   1.000  N
  C39      1.0000 0.04000  0.63340  0.85360  Biso   1.000  C
  H17      1.0000 0.15660  0.60470  0.84460  Biso   1.000  H
  C40      1.0000 0.05290  0.68070  0.81900  Biso   1.000  C
  H18      1.0000 0.17560  0.68440  0.78700  Biso   1.000  H
  C41      1.0000 0.88610  0.72190  0.83180  Biso   1.000  C
  C42      1.0000 0.72270  0.71700  0.88010  Biso   1.000  C
  H19      1.0000 0.61350  0.74600  0.89190  Biso   1.000  H
  C43      1.0000 0.72150  0.66760  0.91170  Biso   1.000  C
  H20      1.0000 0.60410  0.66350  0.94490  Biso   1.000  H
  N6       1.0000 0.89060  0.77081  0.79410  Biso   1.000  N
  C44      1.0000 0.09230  0.80870  0.81270  Biso   1.000  C
  C45      1.0000 0.11880  0.85400  0.76720  Biso   1.000  C
  C46      1.0000 0.95240  0.85737  0.70770  Biso   1.000  C
  C47      1.0000 0.74220  0.81920  0.69330  Biso   1.000  C
  C48      1.0000 0.70070  0.77560  0.73890  Biso   1.000  C
  C49      1.0000 0.31920  0.89100  0.78270  Biso   1.000  C
  H21      1.0000 0.43110  0.88820  0.82270  Biso   1.000  H
  C50      1.0000 0.35900  0.93310  0.73940  Biso   1.000  C
  H22      1.0000 0.49770  0.95880  0.75060  Biso   1.000  H
  C51      1.0000 0.20010  0.93800  0.68040  Biso   1.000  C
  C52      1.0000 0.99510  0.89850  0.66160  Biso   1.000  C
  C53      1.0000 0.83350  0.89719  0.60030  Biso   1.000  C
  C54      1.0000 0.62760  0.86010  0.58870  Biso   1.000  C
  H23      1.0000 0.51790  0.86050  0.54820  Biso   1.000  H
  C55      1.0000 0.57860  0.82170  0.63590  Biso   1.000  C
  H24      1.0000 0.43140  0.79740  0.62800  Biso   1.000  H
  C56      1.0000 0.25280  0.98805  0.64240  Biso   1.000  C
  C57      1.0000 0.89880  0.92927  0.54200  Biso   1.000  C
  Cd4      1.0000 0.82280  0.54236  0.94050  Biso   1.000  Cd
  O19      1.0000 0.44320  0.51743  0.87813  Biso   1.000  O
  O20      1.0000 0.00260  0.49845  0.86211  Biso   1.000  O
  O21      1.0000 0.78220  0.45895  0.98795  Biso   1.000  O
  O22      1.0000 0.37140  0.42128  0.97595  Biso   1.000  O
  O23      1.0000 0.26370  0.30294  0.63660  Biso   1.000  O
  O24      1.0000 0.98310  0.24278  0.76970  Biso   1.000  O
  N7       1.0000 0.62780  0.12627  0.60130  Biso   1.000  N
  C58      1.0000 0.46000  0.13340  0.64640  Biso   1.000  C
  H25      1.0000 0.34340  0.10470  0.65540  Biso   1.000  H
  C59      1.0000 0.44710  0.18070  0.68100  Biso   1.000  C
  H26      1.0000 0.32440  0.18440  0.71300  Biso   1.000  H
  C60      1.0000 0.61390  0.22190  0.66820  Biso   1.000  C
  C61      1.0000 0.77730  0.21700  0.61990  Biso   1.000  C
  H27      1.0000 0.88650  0.24600  0.60810  Biso   1.000  H
  C62      1.0000 0.77850  0.16760  0.58830  Biso   1.000  C
  H28      1.0000 0.89590  0.16350  0.55510  Biso   1.000  H
  N8       1.0000 0.60940  0.27081  0.70590  Biso   1.000  N
  C63      1.0000 0.40770  0.30870  0.68730  Biso   1.000  C
  C64      1.0000 0.38120  0.35400  0.73280  Biso   1.000  C
  C65      1.0000 0.54760  0.35737  0.79230  Biso   1.000  C
  C66      1.0000 0.75780  0.31920  0.80670  Biso   1.000  C
  C67      1.0000 0.79930  0.27560  0.76110  Biso   1.000  C
  C68      1.0000 0.18080  0.39100  0.71730  Biso   1.000  C
  H29      1.0000 0.06890  0.38820  0.67730  Biso   1.000  H
  C69      1.0000 0.14100  0.43310  0.76060  Biso   1.000  C
  H30      1.0000 0.00230  0.45880  0.74940  Biso   1.000  H
  C70      1.0000 0.29990  0.43800  0.81960  Biso   1.000  C
  C71      1.0000 0.50490  0.39850  0.83840  Biso   1.000  C
  C72      1.0000 0.66650  0.39719  0.89970  Biso   1.000  C
  C73      1.0000 0.87240  0.36010  0.91130  Biso   1.000  C
  H31      1.0000 0.98210  0.36050  0.95180  Biso   1.000  H
  C74      1.0000 0.92140  0.32170  0.86410  Biso   1.000  C
  H32      1.0000 0.06860  0.29740  0.87200  Biso   1.000  H
  C75      1.0000 0.24720  0.48805  0.85760  Biso   1.000  C
  C76      1.0000 0.60120  0.42927  0.95800  Biso   1.000  C
