data_XEXLAP_clean
_audit_creation_date              2014-07-02
_audit_creation_method            'Materials Studio'
_symmetry_space_group_name_H-M    'P1'
_symmetry_Int_Tables_number       1
_symmetry_cell_setting            triclinic
loop_
_symmetry_equiv_pos_as_xyz
  x,y,z
_cell_length_a                    5.0169
_cell_length_b                    20.6949
_cell_length_c                    24.9851
_cell_angle_alpha                 90.0000
_cell_angle_beta                  90.0000
_cell_angle_gamma                 95.7210
loop_
_atom_site_label
_atom_site_type_symbol
_atom_site_fract_x
_atom_site_fract_y
_atom_site_fract_z
_atom_site_U_iso_or_equiv
_atom_site_adp_type
_atom_site_occupancy
Mn1    Mn    0.17934   0.06154   0.96045   0.01267  Uiso   1.00
Mn2    Mn    0.32066   0.43846   0.46045   0.01267  Uiso   1.00
Mn3    Mn    0.82066   0.93846   0.03955   0.01267  Uiso   1.00
Mn4    Mn    0.67934   0.56154   0.53955   0.01267  Uiso   1.00
H1     H     0.68160   0.34160   0.40240   0.01267  Uiso   1.00
H2     H     0.69170   0.27920   0.32450   0.01267  Uiso   1.00
H3     H     0.07990   0.36980   0.26320   0.01267  Uiso   1.00
H4     H     0.06970   0.43220   0.34110   0.01267  Uiso   1.00
H5     H     0.94000   0.31270   0.12260   0.01267  Uiso   1.00
H6     H     0.99800   0.24380   0.05120   0.01267  Uiso   1.00
H7     H     0.01460   0.04320   0.14070   0.01267  Uiso   1.00
H8     H     0.93580   0.11770   0.20600   0.01267  Uiso   1.00
H9     H     0.81840   0.15840   0.90240   0.01267  Uiso   1.00
H10    H     0.80830   0.22080   0.82450   0.01267  Uiso   1.00
H11    H     0.42010   0.13020   0.76320   0.01267  Uiso   1.00
H12    H     0.43030   0.06780   0.84110   0.01267  Uiso   1.00
H13    H     0.56000   0.18730   0.62260   0.01267  Uiso   1.00
H14    H     0.50200   0.25620   0.55120   0.01267  Uiso   1.00
H15    H     0.48540   0.45680   0.64070   0.01267  Uiso   1.00
H16    H     0.56420   0.38230   0.70600   0.01267  Uiso   1.00
H17    H     0.31840   0.65840   0.59760   0.01267  Uiso   1.00
H18    H     0.30830   0.72080   0.67550   0.01267  Uiso   1.00
H19    H     0.92010   0.63020   0.73680   0.01267  Uiso   1.00
H20    H     0.93030   0.56780   0.65890   0.01267  Uiso   1.00
H21    H     0.06000   0.68730   0.87740   0.01267  Uiso   1.00
H22    H     0.00200   0.75620   0.94880   0.01267  Uiso   1.00
H23    H     0.98540   0.95680   0.85930   0.01267  Uiso   1.00
H24    H     0.06420   0.88230   0.79400   0.01267  Uiso   1.00
H25    H     0.18160   0.84160   0.09760   0.01267  Uiso   1.00
H26    H     0.19170   0.77920   0.17550   0.01267  Uiso   1.00
H27    H     0.57990   0.86980   0.23680   0.01267  Uiso   1.00
H28    H     0.56970   0.93220   0.15890   0.01267  Uiso   1.00
H29    H     0.44000   0.81270   0.37740   0.01267  Uiso   1.00
H30    H     0.49800   0.74380   0.44880   0.01267  Uiso   1.00
H31    H     0.51460   0.54320   0.35930   0.01267  Uiso   1.00
H32    H     0.43580   0.61770   0.29400   0.01267  Uiso   1.00
C1     C     0.55940   0.34730   0.37420   0.01267  Uiso   1.00
C2     C     0.56540   0.31020   0.32790   0.01267  Uiso   1.00
C3     C     0.38700   0.31860   0.28650   0.01267  Uiso   1.00
C4     C     0.20200   0.36400   0.29150   0.01267  Uiso   1.00
C5     C     0.19600   0.40110   0.33780   0.01267  Uiso   1.00
C6     C     0.58900   0.30030   0.20160   0.01267  Uiso   1.00
C7     C     0.62000   0.25720   0.15470   0.01267  Uiso   1.00
C8     C     0.45280   0.19850   0.14950   0.01267  Uiso   1.00
C9     C     0.24700   0.18420   0.18690   0.01267  Uiso   1.00
C10    C     0.20000   0.22780   0.23190   0.01267  Uiso   1.00
C11    C     0.82500   0.27360   0.11850   0.01267  Uiso   1.00
C12    C     0.85900   0.23210   0.07630   0.01267  Uiso   1.00
C13    C     0.70000   0.17410   0.06910   0.01267  Uiso   1.00
C14    C     0.49960   0.15550   0.10660   0.01267  Uiso   1.00
C15    C     0.33350   0.09530   0.10620   0.01267  Uiso   1.00
C16    C     0.12680   0.08290   0.14290   0.01267  Uiso   1.00
C17    C     0.08200   0.12670   0.18200   0.01267  Uiso   1.00
C18    C     0.39330   0.03720   0.07260   0.01267  Uiso   1.00
C19    C     0.74930   0.13930   0.01750   0.01267  Uiso   1.00
C20    C     0.94060   0.15270   0.87420   0.01267  Uiso   1.00
C21    C     0.93460   0.18980   0.82790   0.01267  Uiso   1.00
C22    C     0.11300   0.18140   0.78650   0.01267  Uiso   1.00
C23    C     0.29800   0.13600   0.79150   0.01267  Uiso   1.00
C24    C     0.30400   0.09890   0.83780   0.01267  Uiso   1.00
C25    C     0.91100   0.19970   0.70160   0.01267  Uiso   1.00
C26    C     0.88000   0.24280   0.65470   0.01267  Uiso   1.00
C27    C     0.04720   0.30150   0.64950   0.01267  Uiso   1.00
C28    C     0.25300   0.31580   0.68690   0.01267  Uiso   1.00
C29    C     0.30000   0.27220   0.73190   0.01267  Uiso   1.00
C30    C     0.67500   0.22640   0.61850   0.01267  Uiso   1.00
C31    C     0.64100   0.26790   0.57630   0.01267  Uiso   1.00
C32    C     0.80000   0.32590   0.56910   0.01267  Uiso   1.00
C33    C     0.00040   0.34450   0.60660   0.01267  Uiso   1.00
C34    C     0.16650   0.40470   0.60620   0.01267  Uiso   1.00
C35    C     0.37320   0.41710   0.64290   0.01267  Uiso   1.00
C36    C     0.41800   0.37330   0.68200   0.01267  Uiso   1.00
C37    C     0.10670   0.46280   0.57260   0.01267  Uiso   1.00
C38    C     0.75070   0.36070   0.51750   0.01267  Uiso   1.00
C39    C     0.44060   0.65270   0.62580   0.01267  Uiso   1.00
C40    C     0.43460   0.68980   0.67210   0.01267  Uiso   1.00
C41    C     0.61300   0.68140   0.71350   0.01267  Uiso   1.00
C42    C     0.79800   0.63600   0.70850   0.01267  Uiso   1.00
C43    C     0.80400   0.59890   0.66220   0.01267  Uiso   1.00
C44    C     0.41100   0.69970   0.79840   0.01267  Uiso   1.00
C45    C     0.38000   0.74280   0.84530   0.01267  Uiso   1.00
C46    C     0.54720   0.80150   0.85050   0.01267  Uiso   1.00
C47    C     0.75300   0.81580   0.81310   0.01267  Uiso   1.00
C48    C     0.80000   0.77220   0.76810   0.01267  Uiso   1.00
C49    C     0.17500   0.72640   0.88150   0.01267  Uiso   1.00
C50    C     0.14100   0.76790   0.92370   0.01267  Uiso   1.00
C51    C     0.30000   0.82590   0.93090   0.01267  Uiso   1.00
C52    C     0.50040   0.84450   0.89340   0.01267  Uiso   1.00
C53    C     0.66650   0.90470   0.89380   0.01267  Uiso   1.00
C54    C     0.87320   0.91710   0.85710   0.01267  Uiso   1.00
C55    C     0.91800   0.87330   0.81800   0.01267  Uiso   1.00
C56    C     0.60670   0.96280   0.92740   0.01267  Uiso   1.00
C57    C     0.25070   0.86070   0.98250   0.01267  Uiso   1.00
C58    C     0.05940   0.84730   0.12580   0.01267  Uiso   1.00
C59    C     0.06540   0.81020   0.17210   0.01267  Uiso   1.00
C60    C     0.88700   0.81860   0.21350   0.01267  Uiso   1.00
C61    C     0.70200   0.86400   0.20850   0.01267  Uiso   1.00
C62    C     0.69600   0.90110   0.16220   0.01267  Uiso   1.00
C63    C     0.08900   0.80030   0.29840   0.01267  Uiso   1.00
C64    C     0.12000   0.75720   0.34530   0.01267  Uiso   1.00
C65    C     0.95280   0.69850   0.35050   0.01267  Uiso   1.00
C66    C     0.74700   0.68420   0.31310   0.01267  Uiso   1.00
C67    C     0.70000   0.72780   0.26810   0.01267  Uiso   1.00
C68    C     0.32500   0.77360   0.38150   0.01267  Uiso   1.00
C69    C     0.35900   0.73210   0.42370   0.01267  Uiso   1.00
C70    C     0.20000   0.67410   0.43090   0.01267  Uiso   1.00
C71    C     0.99960   0.65550   0.39340   0.01267  Uiso   1.00
C72    C     0.83350   0.59530   0.39380   0.01267  Uiso   1.00
C73    C     0.62680   0.58290   0.35710   0.01267  Uiso   1.00
C74    C     0.58200   0.62670   0.31800   0.01267  Uiso   1.00
C75    C     0.89330   0.53720   0.42740   0.01267  Uiso   1.00
C76    C     0.24930   0.63930   0.48250   0.01267  Uiso   1.00
N1     N     0.37470   0.39280   0.37910   0.01267  Uiso   1.00
N2     N     0.39430   0.28080   0.23720   0.01267  Uiso   1.00
N3     N     0.12530   0.10720   0.87910   0.01267  Uiso   1.00
N4     N     0.10570   0.21920   0.73720   0.01267  Uiso   1.00
N5     N     0.62530   0.60720   0.62090   0.01267  Uiso   1.00
N6     N     0.60570   0.71920   0.76280   0.01267  Uiso   1.00
N7     N     0.87470   0.89280   0.12090   0.01267  Uiso   1.00
N8     N     0.89430   0.78080   0.26280   0.01267  Uiso   1.00
O1     O     0.21430   0.00960   0.04200   0.01267  Uiso   1.00
O2     O     0.62000   0.01870   0.07960   0.01267  Uiso   1.00
O3     O     0.55250   0.12180   0.98870   0.01267  Uiso   1.00
O4     O     0.98510   0.13630   0.00600   0.01267  Uiso   1.00
O5     O     0.73490   0.35130   0.20690   0.01267  Uiso   1.00
O6     O     0.01660   0.21800   0.26390   0.01267  Uiso   1.00
O7     O     0.28570   0.49040   0.54200   0.01267  Uiso   1.00
O8     O     0.88000   0.48130   0.57960   0.01267  Uiso   1.00
O9     O     0.94750   0.37820   0.48870   0.01267  Uiso   1.00
O10    O     0.51490   0.36370   0.50600   0.01267  Uiso   1.00
O11    O     0.76510   0.14870   0.70690   0.01267  Uiso   1.00
O12    O     0.48340   0.28200   0.76390   0.01267  Uiso   1.00
O13    O     0.78570   0.99040   0.95800   0.01267  Uiso   1.00
O14    O     0.38000   0.98130   0.92040   0.01267  Uiso   1.00
O15    O     0.44750   0.87820   0.01130   0.01267  Uiso   1.00
O16    O     0.01490   0.86370   0.99400   0.01267  Uiso   1.00
O17    O     0.26510   0.64870   0.79310   0.01267  Uiso   1.00
O18    O     0.98340   0.78200   0.73610   0.01267  Uiso   1.00
O19    O     0.71430   0.50960   0.45800   0.01267  Uiso   1.00
O20    O     0.12000   0.51870   0.42040   0.01267  Uiso   1.00
O21    O     0.05250   0.62180   0.51130   0.01267  Uiso   1.00
O22    O     0.48510   0.63630   0.49400   0.01267  Uiso   1.00
O23    O     0.23490   0.85130   0.29310   0.01267  Uiso   1.00
O24    O     0.51660   0.71800   0.23610   0.01267  Uiso   1.00
