data_image0
_cell_length_a       5.5871
_cell_length_b       25.9462
_cell_length_c       17.4983
_cell_angle_alpha    90
_cell_angle_beta     96.031
_cell_angle_gamma    90

_symmetry_space_group_name_H-M    "P 1"
_symmetry_int_tables_number       1

loop_
  _symmetry_equiv_pos_as_xyz
  'x, y, z'

loop_
  _atom_site_label
  _atom_site_occupancy
  _atom_site_fract_x
  _atom_site_fract_y
  _atom_site_fract_z
  _atom_site_thermal_displace_type
  _atom_site_B_iso_or_equiv
  _atom_site_type_symbol
  Zn1      1.0000 0.89206  0.47323  0.42807  Biso   1.000  Zn
  O1       1.0000 0.71300  0.54098  0.41684  Biso   1.000  O
  O2       1.0000 0.82990  0.57555  0.53239  Biso   1.000  O
  O3       1.0000 0.26420  0.55616  0.48002  Biso   1.000  O
  O4       1.0000 0.14660  0.51183  0.37262  Biso   1.000  O
  O5       1.0000 0.68550  0.81304  0.34467  Biso   1.000  O
  O6       1.0000 0.99380  0.75740  0.21130  Biso   1.000  O
  N1       1.0000 0.23380  0.92238  0.15426  Biso   1.000  N
  N2       1.0000 0.34300  0.78447  0.27760  Biso   1.000  N
  C1       1.0000 0.42780  0.89310  0.14590  Biso   1.000  C
  H1       1.0000 0.53460  0.90330  0.11150  Biso   1.000  H
  C2       1.0000 0.47230  0.84804  0.18750  Biso   1.000  C
  H2       1.0000 0.60660  0.82800  0.18080  Biso   1.000  H
  C3       1.0000 0.31440  0.83331  0.23890  Biso   1.000  C
  C4       1.0000 0.12200  0.86450  0.25030  Biso   1.000  C
  H3       1.0000 0.01840  0.85620  0.28670  Biso   1.000  H
  C5       1.0000 0.08710  0.90847  0.20630  Biso   1.000  C
  H4       1.0000 0.95580  0.92940  0.21300  Biso   1.000  H
  C6       1.0000 0.54550  0.77753  0.33010  Biso   1.000  C
  C7       1.0000 0.57370  0.72632  0.36740  Biso   1.000  C
  C8       1.0000 0.40830  0.68654  0.34650  Biso   1.000  C
  C9       1.0000 0.20880  0.69565  0.29150  Biso   1.000  C
  C10      1.0000 0.16740  0.74703  0.25640  Biso   1.000  C
  C11      1.0000 0.76390  0.71831  0.42150  Biso   1.000  C
  H5       1.0000 0.87040  0.74510  0.43550  Biso   1.000  H
  C12      1.0000 0.79910  0.66982  0.45600  Biso   1.000  C
  H6       1.0000 0.92840  0.66480  0.49320  Biso   1.000  H
  C13      1.0000 0.64480  0.62939  0.43560  Biso   1.000  C
  C14      1.0000 0.43850  0.63706  0.38190  Biso   1.000  C
  C15      1.0000 0.25970  0.59885  0.36150  Biso   1.000  C
  C16      1.0000 0.07680  0.60826  0.30520  Biso   1.000  C
  H7       1.0000 0.96790  0.58210  0.29020  Biso   1.000  H
  C17      1.0000 0.05020  0.65699  0.26920  Biso   1.000  C
  H8       1.0000 0.92540  0.66270  0.23070  Biso   1.000  H
  C18      1.0000 0.72970  0.57693  0.46500  Biso   1.000  C
  C19      1.0000 0.23010  0.55090  0.40840  Biso   1.000  C
  Zn2      1.0000 0.10794  0.97323  0.07193  Biso   1.000  Zn
  O7       1.0000 0.28700  0.04098  0.08316  Biso   1.000  O
  O8       1.0000 0.17010  0.07555  0.96761  Biso   1.000  O
  O9       1.0000 0.73580  0.05616  0.01998  Biso   1.000  O
  O10      1.0000 0.85340  0.01183  0.12738  Biso   1.000  O
  O11      1.0000 0.31450  0.31304  0.15533  Biso   1.000  O
  O12      1.0000 0.00620  0.25740  0.28870  Biso   1.000  O
  N3       1.0000 0.76620  0.42238  0.34574  Biso   1.000  N
  N4       1.0000 0.65700  0.28447  0.22240  Biso   1.000  N
  C20      1.0000 0.57220  0.39310  0.35410  Biso   1.000  C
  H9       1.0000 0.46540  0.40330  0.38850  Biso   1.000  H
  C21      1.0000 0.52770  0.34804  0.31250  Biso   1.000  C
  H10      1.0000 0.39340  0.32800  0.31920  Biso   1.000  H
  C22      1.0000 0.68560  0.33331  0.26110  Biso   1.000  C
  C23      1.0000 0.87800  0.36450  0.24970  Biso   1.000  C
  H11      1.0000 0.98160  0.35620  0.21330  Biso   1.000  H
  C24      1.0000 0.91290  0.40847  0.29370  Biso   1.000  C
  H12      1.0000 0.04420  0.42940  0.28700  Biso   1.000  H
  C25      1.0000 0.45450  0.27753  0.16990  Biso   1.000  C
  C26      1.0000 0.42630  0.22632  0.13260  Biso   1.000  C
  C27      1.0000 0.59170  0.18654  0.15350  Biso   1.000  C
  C28      1.0000 0.79120  0.19565  0.20850  Biso   1.000  C
  C29      1.0000 0.83260  0.24703  0.24360  Biso   1.000  C
  C30      1.0000 0.23610  0.21831  0.07850  Biso   1.000  C
  H13      1.0000 0.12960  0.24510  0.06450  Biso   1.000  H
  C31      1.0000 0.20090  0.16982  0.04400  Biso   1.000  C
  H14      1.0000 0.07160  0.16480  0.00680  Biso   1.000  H
  C32      1.0000 0.35520  0.12939  0.06440  Biso   1.000  C
  C33      1.0000 0.56150  0.13706  0.11810  Biso   1.000  C
  C34      1.0000 0.74030  0.09885  0.13850  Biso   1.000  C
  C35      1.0000 0.92320  0.10826  0.19480  Biso   1.000  C
  H15      1.0000 0.03210  0.08210  0.20980  Biso   1.000  H
  C36      1.0000 0.94980  0.15699  0.23080  Biso   1.000  C
  H16      1.0000 0.07460  0.16270  0.26930  Biso   1.000  H
  C37      1.0000 0.27030  0.07693  0.03500  Biso   1.000  C
  C38      1.0000 0.76990  0.05090  0.09160  Biso   1.000  C
  Zn3      1.0000 0.10794  0.52677  0.57193  Biso   1.000  Zn
  O13      1.0000 0.28700  0.45902  0.58316  Biso   1.000  O
  O14      1.0000 0.17010  0.42445  0.46761  Biso   1.000  O
  O15      1.0000 0.73580  0.44384  0.51998  Biso   1.000  O
  O16      1.0000 0.85340  0.48817  0.62738  Biso   1.000  O
  O17      1.0000 0.31450  0.18696  0.65533  Biso   1.000  O
  O18      1.0000 0.00620  0.24260  0.78870  Biso   1.000  O
  N5       1.0000 0.76620  0.07762  0.84574  Biso   1.000  N
  N6       1.0000 0.65700  0.21553  0.72240  Biso   1.000  N
  C39      1.0000 0.57220  0.10690  0.85410  Biso   1.000  C
  H17      1.0000 0.46540  0.09670  0.88850  Biso   1.000  H
  C40      1.0000 0.52770  0.15196  0.81250  Biso   1.000  C
  H18      1.0000 0.39340  0.17200  0.81920  Biso   1.000  H
  C41      1.0000 0.68560  0.16669  0.76110  Biso   1.000  C
  C42      1.0000 0.87800  0.13550  0.74970  Biso   1.000  C
  H19      1.0000 0.98160  0.14380  0.71330  Biso   1.000  H
  C43      1.0000 0.91290  0.09153  0.79370  Biso   1.000  C
  H20      1.0000 0.04420  0.07060  0.78700  Biso   1.000  H
  C44      1.0000 0.45450  0.22247  0.66990  Biso   1.000  C
  C45      1.0000 0.42630  0.27368  0.63260  Biso   1.000  C
  C46      1.0000 0.59170  0.31346  0.65350  Biso   1.000  C
  C47      1.0000 0.79120  0.30435  0.70850  Biso   1.000  C
  C48      1.0000 0.83260  0.25297  0.74360  Biso   1.000  C
  C49      1.0000 0.23610  0.28169  0.57850  Biso   1.000  C
  H21      1.0000 0.12960  0.25490  0.56450  Biso   1.000  H
  C50      1.0000 0.20090  0.33018  0.54400  Biso   1.000  C
  H22      1.0000 0.07160  0.33520  0.50680  Biso   1.000  H
  C51      1.0000 0.35520  0.37061  0.56440  Biso   1.000  C
  C52      1.0000 0.56150  0.36294  0.61810  Biso   1.000  C
  C53      1.0000 0.74030  0.40115  0.63850  Biso   1.000  C
  C54      1.0000 0.92320  0.39174  0.69480  Biso   1.000  C
  H23      1.0000 0.03210  0.41790  0.70980  Biso   1.000  H
  C55      1.0000 0.94980  0.34301  0.73080  Biso   1.000  C
  H24      1.0000 0.07460  0.33730  0.76930  Biso   1.000  H
  C56      1.0000 0.27030  0.42307  0.53500  Biso   1.000  C
  C57      1.0000 0.76990  0.44910  0.59160  Biso   1.000  C
  Zn4      1.0000 0.89206  0.02677  0.92807  Biso   1.000  Zn
  O19      1.0000 0.71300  0.95902  0.91684  Biso   1.000  O
  O20      1.0000 0.82990  0.92445  0.03239  Biso   1.000  O
  O21      1.0000 0.26420  0.94384  0.98002  Biso   1.000  O
  O22      1.0000 0.14660  0.98817  0.87262  Biso   1.000  O
  O23      1.0000 0.68550  0.68696  0.84467  Biso   1.000  O
  O24      1.0000 0.99380  0.74260  0.71130  Biso   1.000  O
  N7       1.0000 0.23380  0.57762  0.65426  Biso   1.000  N
  N8       1.0000 0.34300  0.71553  0.77760  Biso   1.000  N
  C58      1.0000 0.42780  0.60690  0.64590  Biso   1.000  C
  H25      1.0000 0.53460  0.59670  0.61150  Biso   1.000  H
  C59      1.0000 0.47230  0.65196  0.68750  Biso   1.000  C
  H26      1.0000 0.60660  0.67200  0.68080  Biso   1.000  H
  C60      1.0000 0.31440  0.66669  0.73890  Biso   1.000  C
  C61      1.0000 0.12200  0.63550  0.75030  Biso   1.000  C
  H27      1.0000 0.01840  0.64380  0.78670  Biso   1.000  H
  C62      1.0000 0.08710  0.59153  0.70630  Biso   1.000  C
  H28      1.0000 0.95580  0.57060  0.71300  Biso   1.000  H
  C63      1.0000 0.54550  0.72247  0.83010  Biso   1.000  C
  C64      1.0000 0.57370  0.77368  0.86740  Biso   1.000  C
  C65      1.0000 0.40830  0.81346  0.84650  Biso   1.000  C
  C66      1.0000 0.20880  0.80435  0.79150  Biso   1.000  C
  C67      1.0000 0.16740  0.75297  0.75640  Biso   1.000  C
  C68      1.0000 0.76390  0.78169  0.92150  Biso   1.000  C
  H29      1.0000 0.87040  0.75490  0.93550  Biso   1.000  H
  C69      1.0000 0.79910  0.83018  0.95600  Biso   1.000  C
  H30      1.0000 0.92840  0.83520  0.99320  Biso   1.000  H
  C70      1.0000 0.64480  0.87061  0.93560  Biso   1.000  C
  C71      1.0000 0.43850  0.86294  0.88190  Biso   1.000  C
  C72      1.0000 0.25970  0.90115  0.86150  Biso   1.000  C
  C73      1.0000 0.07680  0.89174  0.80520  Biso   1.000  C
  H31      1.0000 0.96790  0.91790  0.79020  Biso   1.000  H
  C74      1.0000 0.05020  0.84301  0.76920  Biso   1.000  C
  H32      1.0000 0.92540  0.83730  0.73070  Biso   1.000  H
  C75      1.0000 0.72970  0.92307  0.96500  Biso   1.000  C
  C76      1.0000 0.23010  0.94910  0.90840  Biso   1.000  C
