data_XEYMAR_clean
_audit_creation_date              2014-07-02
_audit_creation_method            'Materials Studio'
_symmetry_space_group_name_H-M    'P1'
_symmetry_Int_Tables_number       1
_symmetry_cell_setting            triclinic
loop_
_symmetry_equiv_pos_as_xyz
  x,y,z
_cell_length_a                    18.0043
_cell_length_b                    18.1594
_cell_length_c                    21.1164
_cell_angle_alpha                 90.0000
_cell_angle_beta                  90.0000
_cell_angle_gamma                 93.3440
loop_
_atom_site_label
_atom_site_type_symbol
_atom_site_fract_x
_atom_site_fract_y
_atom_site_fract_z
_atom_site_U_iso_or_equiv
_atom_site_adp_type
_atom_site_occupancy
Mn1    Mn    0.30523   0.01426   0.06274   0.01267  Uiso   1.00
Mn2    Mn    0.65396   0.35260   0.68503   0.01267  Uiso   1.00
Mn3    Mn    0.69477   0.48574   0.56274   0.01267  Uiso   1.00
Mn4    Mn    0.34604   0.14740   0.18503   0.01267  Uiso   1.00
Cu1    Cu    0.26868   0.51199   0.77000   0.01267  Uiso   1.00
Cu2    Cu    0.20501   0.59129   0.86340   0.01267  Uiso   1.00
Cu3    Cu    0.20803   0.44052   0.87019   0.01267  Uiso   1.00
Cu4    Cu    0.11982   0.50949   0.79078   0.01267  Uiso   1.00
Cu5    Cu    0.73132   0.98801   0.27000   0.01267  Uiso   1.00
Cu6    Cu    0.79499   0.90871   0.36340   0.01267  Uiso   1.00
Cu7    Cu    0.79197   0.05948   0.37019   0.01267  Uiso   1.00
Cu8    Cu    0.88018   0.99051   0.29078   0.01267  Uiso   1.00
H1     H     0.62370   0.43510   0.78430   0.01267  Uiso   1.00
H2     H     0.70110   0.21930   0.70170   0.01267  Uiso   1.00
H3     H     0.24290   0.64150   0.99110   0.01267  Uiso   1.00
H4     H     0.91060   0.55170   0.64640   0.01267  Uiso   1.00
H5     H     0.42450   0.48490   0.78570   0.01267  Uiso   1.00
H6     H     0.02660   0.57130   0.69200   0.01267  Uiso   1.00
H7     H     0.27750   0.74710   0.04520   0.01267  Uiso   1.00
H8     H     0.22270   0.86300   0.89540   0.01267  Uiso   1.00
H9     H     0.31870   0.51300   0.63210   0.01267  Uiso   1.00
H10    H     0.98490   0.41500   0.80820   0.01267  Uiso   1.00
H11    H     0.24550   0.40710   0.00200   0.01267  Uiso   1.00
H12    H     0.22530   0.27940   0.85760   0.01267  Uiso   1.00
H13    H     0.26810   0.18210   0.91830   0.01267  Uiso   1.00
H14    H     0.28080   0.31440   0.06570   0.01267  Uiso   1.00
H15    H     0.42340   0.50330   0.57320   0.01267  Uiso   1.00
H16    H     0.86960   0.39050   0.76560   0.01267  Uiso   1.00
H17    H     0.53250   0.46410   0.73370   0.01267  Uiso   1.00
H18    H     0.19480   0.75540   0.84270   0.01267  Uiso   1.00
H19    H     0.37630   0.06490   0.28430   0.01267  Uiso   1.00
H20    H     0.29890   0.28070   0.20170   0.01267  Uiso   1.00
H21    H     0.75710   0.85850   0.49110   0.01267  Uiso   1.00
H22    H     0.08940   0.94830   0.14640   0.01267  Uiso   1.00
H23    H     0.57550   0.01510   0.28570   0.01267  Uiso   1.00
H24    H     0.97340   0.92870   0.19200   0.01267  Uiso   1.00
H25    H     0.72250   0.75290   0.54520   0.01267  Uiso   1.00
H26    H     0.77730   0.63700   0.39540   0.01267  Uiso   1.00
H27    H     0.68130   0.98700   0.13210   0.01267  Uiso   1.00
H28    H     0.01510   0.08500   0.30820   0.01267  Uiso   1.00
H29    H     0.75450   0.09290   0.50200   0.01267  Uiso   1.00
H30    H     0.77470   0.22060   0.35760   0.01267  Uiso   1.00
H31    H     0.73190   0.31790   0.41830   0.01267  Uiso   1.00
H32    H     0.71920   0.18560   0.56570   0.01267  Uiso   1.00
H33    H     0.57660   0.99670   0.07320   0.01267  Uiso   1.00
H34    H     0.13040   0.10950   0.26560   0.01267  Uiso   1.00
H35    H     0.46750   0.03590   0.23370   0.01267  Uiso   1.00
H36    H     0.80520   0.74460   0.34270   0.01267  Uiso   1.00
C1     C     0.23970   0.68660   0.97080   0.01267  Uiso   1.00
C2     C     0.92510   0.52100   0.67880   0.01267  Uiso   1.00
C3     C     0.42420   0.48720   0.74170   0.01267  Uiso   1.00
C4     C     0.99480   0.53320   0.70730   0.01267  Uiso   1.00
C5     C     0.26000   0.75040   0.00400   0.01267  Uiso   1.00
C6     C     0.22850   0.81840   0.91590   0.01267  Uiso   1.00
C7     C     0.56290   0.47650   0.61490   0.01267  Uiso   1.00
C8     C     0.36310   0.50490   0.65270   0.01267  Uiso   1.00
C9     C     0.97090   0.44330   0.77390   0.01267  Uiso   1.00
C10    C     0.30290   0.17550   0.04080   0.01267  Uiso   1.00
C11    C     0.24880   0.36050   0.98430   0.01267  Uiso   1.00
C12    C     0.23780   0.28710   0.89990   0.01267  Uiso   1.00
C13    C     0.26210   0.22780   0.93690   0.01267  Uiso   1.00
C14    C     0.27540   0.88980   0.01060   0.01267  Uiso   1.00
C15    C     0.27050   0.30510   0.02320   0.01267  Uiso   1.00
C16    C     0.25450   0.81830   0.97680   0.01267  Uiso   1.00
C17    C     0.27650   0.23790   0.99920   0.01267  Uiso   1.00
C18    C     0.42530   0.49880   0.61710   0.01267  Uiso   1.00
C19    C     0.90120   0.42740   0.74820   0.01267  Uiso   1.00
C20    C     0.49030   0.47670   0.71170   0.01267  Uiso   1.00
C21    C     0.80240   0.45040   0.66500   0.01267  Uiso   1.00
C22    C     0.21090   0.75310   0.88440   0.01267  Uiso   1.00
C23    C     0.49040   0.48600   0.64680   0.01267  Uiso   1.00
C24    C     0.87970   0.46520   0.69840   0.01267  Uiso   1.00
C25    C     0.76030   0.81340   0.47080   0.01267  Uiso   1.00
C26    C     0.07490   0.97900   0.17880   0.01267  Uiso   1.00
C27    C     0.57580   0.01280   0.24170   0.01267  Uiso   1.00
C28    C     0.00520   0.96680   0.20730   0.01267  Uiso   1.00
C29    C     0.74000   0.74960   0.50400   0.01267  Uiso   1.00
C30    C     0.77150   0.68160   0.41590   0.01267  Uiso   1.00
C31    C     0.43710   0.02350   0.11490   0.01267  Uiso   1.00
C32    C     0.63690   0.99510   0.15270   0.01267  Uiso   1.00
C33    C     0.02910   0.05670   0.27390   0.01267  Uiso   1.00
C34    C     0.69710   0.32450   0.54080   0.01267  Uiso   1.00
C35    C     0.75120   0.13950   0.48430   0.01267  Uiso   1.00
C36    C     0.76220   0.21290   0.39990   0.01267  Uiso   1.00
C37    C     0.73790   0.27220   0.43690   0.01267  Uiso   1.00
C38    C     0.72460   0.61020   0.51060   0.01267  Uiso   1.00
C39    C     0.72950   0.19490   0.52320   0.01267  Uiso   1.00
C40    C     0.74550   0.68170   0.47680   0.01267  Uiso   1.00
C41    C     0.72350   0.26210   0.49920   0.01267  Uiso   1.00
C42    C     0.57470   0.00120   0.11710   0.01267  Uiso   1.00
C43    C     0.09880   0.07260   0.24820   0.01267  Uiso   1.00
C44    C     0.50970   0.02330   0.21170   0.01267  Uiso   1.00
C45    C     0.19760   0.04960   0.16500   0.01267  Uiso   1.00
C46    C     0.78910   0.74690   0.38440   0.01267  Uiso   1.00
C47    C     0.50960   0.01400   0.14680   0.01267  Uiso   1.00
C48    C     0.12030   0.03480   0.19840   0.01267  Uiso   1.00
I1     I     0.19128   0.62756   0.73955   0.01267  Uiso   1.00
I2     I     0.18462   0.38534   0.75483   0.01267  Uiso   1.00
I3     I     0.09390   0.50962   0.91802   0.01267  Uiso   1.00
I4     I     0.33240   0.52963   0.88944   0.01267  Uiso   1.00
I5     I     0.80872   0.87244   0.23955   0.01267  Uiso   1.00
I6     I     0.81538   0.11466   0.25483   0.01267  Uiso   1.00
I7     I     0.90610   0.99038   0.41802   0.01267  Uiso   1.00
I8     I     0.66760   0.97037   0.38944   0.01267  Uiso   1.00
N1     N     0.01750   0.49390   0.75410   0.01267  Uiso   1.00
N2     N     0.21590   0.68700   0.91090   0.01267  Uiso   1.00
N3     N     0.23280   0.35270   0.92510   0.01267  Uiso   1.00
N4     N     0.36240   0.49990   0.71550   0.01267  Uiso   1.00
N5     N     0.98250   0.00610   0.25410   0.01267  Uiso   1.00
N6     N     0.78410   0.81300   0.41090   0.01267  Uiso   1.00
N7     N     0.76720   0.14730   0.42510   0.01267  Uiso   1.00
N8     N     0.63760   0.00010   0.21550   0.01267  Uiso   1.00
O1     O     0.63850   0.39320   0.78520   0.01267  Uiso   1.00
O2     O     0.69030   0.24830   0.72950   0.01267  Uiso   1.00
O3     O     0.76260   0.40110   0.69230   0.01267  Uiso   1.00
O4     O     0.29860   0.11380   0.01500   0.01267  Uiso   1.00
O5     O     0.29520   0.88630   0.06750   0.01267  Uiso   1.00
O6     O     0.32440   0.19290   0.09400   0.01267  Uiso   1.00
O7     O     0.56830   0.49850   0.55760   0.01267  Uiso   1.00
O8     O     0.27140   0.94740   0.98170   0.01267  Uiso   1.00
O9     O     0.78970   0.48310   0.61620   0.01267  Uiso   1.00
O10    O     0.61890   0.45660   0.64280   0.01267  Uiso   1.00
O11    O     0.36150   0.10680   0.28520   0.01267  Uiso   1.00
O12    O     0.30970   0.25170   0.22950   0.01267  Uiso   1.00
O13    O     0.23740   0.09890   0.19230   0.01267  Uiso   1.00
O14    O     0.70140   0.38620   0.51500   0.01267  Uiso   1.00
O15    O     0.70480   0.61370   0.56750   0.01267  Uiso   1.00
O16    O     0.67560   0.30710   0.59400   0.01267  Uiso   1.00
O17    O     0.43170   0.00150   0.05760   0.01267  Uiso   1.00
O18    O     0.72860   0.55260   0.48170   0.01267  Uiso   1.00
O19    O     0.21030   0.01690   0.11620   0.01267  Uiso   1.00
O20    O     0.38110   0.04340   0.14280   0.01267  Uiso   1.00
Mn5    Mn    0.69477   0.98574   0.93726   0.01267  Uiso   1.00
Mn6    Mn    0.34604   0.64740   0.31497   0.01267  Uiso   1.00
Mn7    Mn    0.30523   0.51426   0.43726   0.01267  Uiso   1.00
Mn8    Mn    0.65396   0.85260   0.81497   0.01267  Uiso   1.00
Cu9    Cu    0.73132   0.48801   0.23000   0.01267  Uiso   1.00
Cu10   Cu    0.79499   0.40871   0.13660   0.01267  Uiso   1.00
Cu11   Cu    0.79197   0.55948   0.12981   0.01267  Uiso   1.00
Cu12   Cu    0.88018   0.49051   0.20922   0.01267  Uiso   1.00
Cu13   Cu    0.26868   0.01199   0.73000   0.01267  Uiso   1.00
Cu14   Cu    0.20501   0.09129   0.63660   0.01267  Uiso   1.00
Cu15   Cu    0.20803   0.94052   0.62981   0.01267  Uiso   1.00
Cu16   Cu    0.11982   0.00949   0.70922   0.01267  Uiso   1.00
H37    H     0.37630   0.56490   0.21570   0.01267  Uiso   1.00
H38    H     0.29890   0.78070   0.29830   0.01267  Uiso   1.00
H39    H     0.75710   0.35850   0.00890   0.01267  Uiso   1.00
H40    H     0.08940   0.44830   0.35360   0.01267  Uiso   1.00
H41    H     0.57550   0.51510   0.21430   0.01267  Uiso   1.00
H42    H     0.97340   0.42870   0.30800   0.01267  Uiso   1.00
H43    H     0.72250   0.25290   0.95480   0.01267  Uiso   1.00
H44    H     0.77730   0.13700   0.10460   0.01267  Uiso   1.00
H45    H     0.68130   0.48700   0.36790   0.01267  Uiso   1.00
H46    H     0.01510   0.58500   0.19180   0.01267  Uiso   1.00
H47    H     0.75450   0.59290   0.99800   0.01267  Uiso   1.00
H48    H     0.77470   0.72060   0.14240   0.01267  Uiso   1.00
H49    H     0.73190   0.81790   0.08170   0.01267  Uiso   1.00
H50    H     0.71920   0.68560   0.93430   0.01267  Uiso   1.00
H51    H     0.57660   0.49670   0.42680   0.01267  Uiso   1.00
H52    H     0.13040   0.60950   0.23440   0.01267  Uiso   1.00
H53    H     0.46750   0.53590   0.26630   0.01267  Uiso   1.00
H54    H     0.80520   0.24460   0.15730   0.01267  Uiso   1.00
H55    H     0.62370   0.93510   0.71570   0.01267  Uiso   1.00
H56    H     0.70110   0.71930   0.79830   0.01267  Uiso   1.00
H57    H     0.24290   0.14150   0.50890   0.01267  Uiso   1.00
H58    H     0.91060   0.05170   0.85360   0.01267  Uiso   1.00
H59    H     0.42450   0.98490   0.71430   0.01267  Uiso   1.00
H60    H     0.02660   0.07130   0.80800   0.01267  Uiso   1.00
H61    H     0.27750   0.24710   0.45480   0.01267  Uiso   1.00
H62    H     0.22270   0.36300   0.60460   0.01267  Uiso   1.00
H63    H     0.31870   0.01300   0.86790   0.01267  Uiso   1.00
H64    H     0.98490   0.91500   0.69180   0.01267  Uiso   1.00
H65    H     0.24550   0.90710   0.49800   0.01267  Uiso   1.00
H66    H     0.22530   0.77940   0.64240   0.01267  Uiso   1.00
H67    H     0.26810   0.68210   0.58170   0.01267  Uiso   1.00
H68    H     0.28080   0.81440   0.43430   0.01267  Uiso   1.00
H69    H     0.42340   0.00330   0.92680   0.01267  Uiso   1.00
H70    H     0.86960   0.89050   0.73440   0.01267  Uiso   1.00
H71    H     0.53250   0.96410   0.76630   0.01267  Uiso   1.00
H72    H     0.19480   0.25540   0.65730   0.01267  Uiso   1.00
C49    C     0.76030   0.31340   0.02920   0.01267  Uiso   1.00
C50    C     0.07490   0.47900   0.32120   0.01267  Uiso   1.00
C51    C     0.57580   0.51280   0.25830   0.01267  Uiso   1.00
C52    C     0.00520   0.46680   0.29270   0.01267  Uiso   1.00
C53    C     0.74000   0.24960   0.99600   0.01267  Uiso   1.00
C54    C     0.77150   0.18160   0.08410   0.01267  Uiso   1.00
C55    C     0.43710   0.52350   0.38510   0.01267  Uiso   1.00
C56    C     0.63690   0.49510   0.34730   0.01267  Uiso   1.00
C57    C     0.02910   0.55670   0.22610   0.01267  Uiso   1.00
C58    C     0.69710   0.82450   0.95920   0.01267  Uiso   1.00
C59    C     0.75120   0.63950   0.01570   0.01267  Uiso   1.00
C60    C     0.76220   0.71290   0.10010   0.01267  Uiso   1.00
C61    C     0.73790   0.77220   0.06310   0.01267  Uiso   1.00
C62    C     0.72460   0.11020   0.98940   0.01267  Uiso   1.00
C63    C     0.72950   0.69490   0.97680   0.01267  Uiso   1.00
C64    C     0.74550   0.18170   0.02320   0.01267  Uiso   1.00
C65    C     0.72350   0.76210   0.00080   0.01267  Uiso   1.00
C66    C     0.57470   0.50120   0.38290   0.01267  Uiso   1.00
C67    C     0.09880   0.57260   0.25180   0.01267  Uiso   1.00
C68    C     0.50970   0.52330   0.28830   0.01267  Uiso   1.00
C69    C     0.19760   0.54960   0.33500   0.01267  Uiso   1.00
C70    C     0.78910   0.24690   0.11560   0.01267  Uiso   1.00
C71    C     0.50960   0.51400   0.35320   0.01267  Uiso   1.00
C72    C     0.12030   0.53480   0.30160   0.01267  Uiso   1.00
C73    C     0.23970   0.18660   0.52920   0.01267  Uiso   1.00
C74    C     0.92510   0.02100   0.82120   0.01267  Uiso   1.00
C75    C     0.42420   0.98720   0.75830   0.01267  Uiso   1.00
C76    C     0.99480   0.03320   0.79270   0.01267  Uiso   1.00
C77    C     0.26000   0.25040   0.49600   0.01267  Uiso   1.00
C78    C     0.22850   0.31840   0.58410   0.01267  Uiso   1.00
C79    C     0.56290   0.97650   0.88510   0.01267  Uiso   1.00
C80    C     0.36310   0.00490   0.84730   0.01267  Uiso   1.00
C81    C     0.97090   0.94330   0.72610   0.01267  Uiso   1.00
C82    C     0.30290   0.67550   0.45920   0.01267  Uiso   1.00
C83    C     0.24880   0.86050   0.51570   0.01267  Uiso   1.00
C84    C     0.23780   0.78710   0.60010   0.01267  Uiso   1.00
C85    C     0.26210   0.72780   0.56310   0.01267  Uiso   1.00
C86    C     0.27540   0.38980   0.48940   0.01267  Uiso   1.00
C87    C     0.27050   0.80510   0.47680   0.01267  Uiso   1.00
C88    C     0.25450   0.31830   0.52320   0.01267  Uiso   1.00
C89    C     0.27650   0.73790   0.50080   0.01267  Uiso   1.00
C90    C     0.42530   0.99880   0.88290   0.01267  Uiso   1.00
C91    C     0.90120   0.92740   0.75180   0.01267  Uiso   1.00
C92    C     0.49030   0.97670   0.78830   0.01267  Uiso   1.00
C93    C     0.80240   0.95040   0.83500   0.01267  Uiso   1.00
C94    C     0.21090   0.25310   0.61560   0.01267  Uiso   1.00
C95    C     0.49040   0.98600   0.85320   0.01267  Uiso   1.00
C96    C     0.87970   0.96520   0.80160   0.01267  Uiso   1.00
I9     I     0.80872   0.37244   0.26045   0.01267  Uiso   1.00
I10    I     0.81538   0.61466   0.24517   0.01267  Uiso   1.00
I11    I     0.90610   0.49038   0.08198   0.01267  Uiso   1.00
I12    I     0.66760   0.47037   0.11056   0.01267  Uiso   1.00
I13    I     0.19128   0.12756   0.76045   0.01267  Uiso   1.00
I14    I     0.18462   0.88534   0.74517   0.01267  Uiso   1.00
I15    I     0.09390   0.00962   0.58198   0.01267  Uiso   1.00
I16    I     0.33240   0.02963   0.61056   0.01267  Uiso   1.00
N9     N     0.98250   0.50610   0.24590   0.01267  Uiso   1.00
N10    N     0.78410   0.31300   0.08910   0.01267  Uiso   1.00
N11    N     0.76720   0.64730   0.07490   0.01267  Uiso   1.00
N12    N     0.63760   0.50010   0.28450   0.01267  Uiso   1.00
N13    N     0.01750   0.99390   0.74590   0.01267  Uiso   1.00
N14    N     0.21590   0.18700   0.58910   0.01267  Uiso   1.00
N15    N     0.23280   0.85270   0.57490   0.01267  Uiso   1.00
N16    N     0.36240   0.99990   0.78450   0.01267  Uiso   1.00
O21    O     0.36150   0.60680   0.21480   0.01267  Uiso   1.00
O22    O     0.30970   0.75170   0.27050   0.01267  Uiso   1.00
O23    O     0.23740   0.59890   0.30770   0.01267  Uiso   1.00
O24    O     0.70140   0.88620   0.98500   0.01267  Uiso   1.00
O25    O     0.70480   0.11370   0.93250   0.01267  Uiso   1.00
O26    O     0.67560   0.80710   0.90600   0.01267  Uiso   1.00
O27    O     0.43170   0.50150   0.44240   0.01267  Uiso   1.00
O28    O     0.72860   0.05260   0.01830   0.01267  Uiso   1.00
O29    O     0.21030   0.51690   0.38380   0.01267  Uiso   1.00
O30    O     0.38110   0.54340   0.35720   0.01267  Uiso   1.00
O31    O     0.63850   0.89320   0.71480   0.01267  Uiso   1.00
O32    O     0.69030   0.74830   0.77050   0.01267  Uiso   1.00
O33    O     0.76260   0.90110   0.80770   0.01267  Uiso   1.00
O34    O     0.29860   0.61380   0.48500   0.01267  Uiso   1.00
O35    O     0.29520   0.38630   0.43250   0.01267  Uiso   1.00
O36    O     0.32440   0.69290   0.40600   0.01267  Uiso   1.00
O37    O     0.56830   0.99850   0.94240   0.01267  Uiso   1.00
O38    O     0.27140   0.44740   0.51830   0.01267  Uiso   1.00
O39    O     0.78970   0.98310   0.88380   0.01267  Uiso   1.00
O40    O     0.61890   0.95660   0.85720   0.01267  Uiso   1.00
