data_image0
_cell_length_a       17.2547
_cell_length_b       10.5045
_cell_length_c       26.609
_cell_angle_alpha    90
_cell_angle_beta     90
_cell_angle_gamma    90

_symmetry_space_group_name_H-M    "P 1"
_symmetry_int_tables_number       1

loop_
  _symmetry_equiv_pos_as_xyz
  'x, y, z'

loop_
  _atom_site_label
  _atom_site_occupancy
  _atom_site_fract_x
  _atom_site_fract_y
  _atom_site_fract_z
  _atom_site_thermal_displace_type
  _atom_site_B_iso_or_equiv
  _atom_site_type_symbol
  Sr1      1.0000 0.01588  0.49998  0.90407  Biso   1.000  Sr
  Sr2      1.0000 0.91261  0.20812  0.00818  Biso   1.000  Sr
  C1       1.0000 0.76060  0.49830  0.93430  Biso   1.000  C
  C2       1.0000 0.71930  0.38500  0.93390  Biso   1.000  C
  H1       1.0000 0.74610  0.30820  0.93370  Biso   1.000  H
  C3       1.0000 0.63990  0.38390  0.93380  Biso   1.000  C
  C4       1.0000 0.60070  0.49590  0.93360  Biso   1.000  C
  H2       1.0000 0.54680  0.49580  0.93460  Biso   1.000  H
  C5       1.0000 0.64040  0.61000  0.93190  Biso   1.000  C
  C6       1.0000 0.72050  0.61190  0.93160  Biso   1.000  C
  H3       1.0000 0.74710  0.68870  0.92960  Biso   1.000  H
  C7       1.0000 0.84780  0.49580  0.93910  Biso   1.000  C
  C8       1.0000 0.59790  0.25620  0.93610  Biso   1.000  C
  C9       1.0000 0.59590  0.73510  0.93170  Biso   1.000  C
  C10      1.0000 0.22350  0.65940  0.83010  Biso   1.000  C
  C11      1.0000 0.25630  0.57100  0.86080  Biso   1.000  C
  H4       1.0000 0.22660  0.50210  0.87140  Biso   1.000  H
  C12      1.0000 0.33220  0.58030  0.87670  Biso   1.000  C
  C13      1.0000 0.37600  0.68170  0.86040  Biso   1.000  C
  H5       1.0000 0.42670  0.68970  0.87180  Biso   1.000  H
  C14      1.0000 0.34660  0.77440  0.82680  Biso   1.000  C
  C15      1.0000 0.26830  0.76150  0.81300  Biso   1.000  C
  H6       1.0000 0.24590  0.82200  0.79200  Biso   1.000  H
  C16      1.0000 0.13960  0.64940  0.81240  Biso   1.000  C
  C17      1.0000 0.36700  0.48290  0.91070  Biso   1.000  C
  C18      1.0000 0.39630  0.87750  0.80560  Biso   1.000  C
  O1       1.0000 0.88150  0.39050  0.94520  Biso   1.000  O
  O2       1.0000 0.88400  0.59780  0.93530  Biso   1.000  O
  O3       1.0000 0.62560  0.82790  0.90950  Biso   1.000  O
  O4       1.0000 0.53180  0.74090  0.95190  Biso   1.000  O
  O5       1.0000 0.52530  0.25580  0.92950  Biso   1.000  O
  O6       1.0000 0.63650  0.15790  0.94500  Biso   1.000  O
  O7       1.0000 0.11410  0.72260  0.78020  Biso   1.000  O
  O8       1.0000 0.10050  0.55960  0.83150  Biso   1.000  O
  O9       1.0000 0.35180  0.37040  0.90350  Biso   1.000  O
  O10      1.0000 0.41020  0.52080  0.94630  Biso   1.000  O
  O11      1.0000 0.37560  0.93110  0.76570  Biso   1.000  O
  O12      1.0000 0.46100  0.90310  0.82580  Biso   1.000  O
  H7       1.0000 0.07000  0.55000  0.99100  Biso   1.000  H
  Sr3      1.0000 0.51588  0.99998  0.90407  Biso   1.000  Sr
  Sr4      1.0000 0.41261  0.70812  0.00818  Biso   1.000  Sr
  C19      1.0000 0.26060  0.99830  0.93430  Biso   1.000  C
  C20      1.0000 0.21930  0.88500  0.93390  Biso   1.000  C
  H8       1.0000 0.24610  0.80820  0.93370  Biso   1.000  H
  C21      1.0000 0.13990  0.88390  0.93380  Biso   1.000  C
  C22      1.0000 0.10070  0.99590  0.93360  Biso   1.000  C
  H9       1.0000 0.04680  0.99580  0.93460  Biso   1.000  H
  C23      1.0000 0.14040  0.11000  0.93190  Biso   1.000  C
  C24      1.0000 0.22050  0.11190  0.93160  Biso   1.000  C
  H10      1.0000 0.24710  0.18870  0.92960  Biso   1.000  H
  C25      1.0000 0.34780  0.99580  0.93910  Biso   1.000  C
  C26      1.0000 0.09790  0.75620  0.93610  Biso   1.000  C
  C27      1.0000 0.09590  0.23510  0.93170  Biso   1.000  C
  C28      1.0000 0.72350  0.15940  0.83010  Biso   1.000  C
  C29      1.0000 0.75630  0.07100  0.86080  Biso   1.000  C
  H11      1.0000 0.72660  0.00210  0.87140  Biso   1.000  H
  C30      1.0000 0.83220  0.08030  0.87670  Biso   1.000  C
  C31      1.0000 0.87600  0.18170  0.86040  Biso   1.000  C
  H12      1.0000 0.92670  0.18970  0.87180  Biso   1.000  H
  C32      1.0000 0.84660  0.27440  0.82680  Biso   1.000  C
  C33      1.0000 0.76830  0.26150  0.81300  Biso   1.000  C
  H13      1.0000 0.74590  0.32200  0.79200  Biso   1.000  H
  C34      1.0000 0.63960  0.14940  0.81240  Biso   1.000  C
  C35      1.0000 0.86700  0.98290  0.91070  Biso   1.000  C
  C36      1.0000 0.89630  0.37750  0.80560  Biso   1.000  C
  O13      1.0000 0.38150  0.89050  0.94520  Biso   1.000  O
  O14      1.0000 0.38400  0.09780  0.93530  Biso   1.000  O
  O15      1.0000 0.12560  0.32790  0.90950  Biso   1.000  O
  O16      1.0000 0.03180  0.24090  0.95190  Biso   1.000  O
  O17      1.0000 0.02530  0.75580  0.92950  Biso   1.000  O
  O18      1.0000 0.13650  0.65790  0.94500  Biso   1.000  O
  O19      1.0000 0.61410  0.22260  0.78020  Biso   1.000  O
  O20      1.0000 0.60050  0.05960  0.83150  Biso   1.000  O
  O21      1.0000 0.85180  0.87040  0.90350  Biso   1.000  O
  O22      1.0000 0.91020  0.02080  0.94630  Biso   1.000  O
  O23      1.0000 0.87560  0.43110  0.76570  Biso   1.000  O
  O24      1.0000 0.96100  0.40310  0.82580  Biso   1.000  O
  H14      1.0000 0.57000  0.05000  0.99100  Biso   1.000  H
  Sr5      1.0000 0.98412  0.50002  0.40407  Biso   1.000  Sr
  Sr6      1.0000 0.08739  0.79188  0.50818  Biso   1.000  Sr
  C37      1.0000 0.23940  0.50170  0.43430  Biso   1.000  C
  C38      1.0000 0.28070  0.61500  0.43390  Biso   1.000  C
  H15      1.0000 0.25390  0.69180  0.43370  Biso   1.000  H
  C39      1.0000 0.36010  0.61610  0.43380  Biso   1.000  C
  C40      1.0000 0.39930  0.50410  0.43360  Biso   1.000  C
  H16      1.0000 0.45320  0.50420  0.43460  Biso   1.000  H
  C41      1.0000 0.35960  0.39000  0.43190  Biso   1.000  C
  C42      1.0000 0.27950  0.38810  0.43160  Biso   1.000  C
  H17      1.0000 0.25290  0.31130  0.42960  Biso   1.000  H
  C43      1.0000 0.15220  0.50420  0.43910  Biso   1.000  C
  C44      1.0000 0.40210  0.74380  0.43610  Biso   1.000  C
  C45      1.0000 0.40410  0.26490  0.43170  Biso   1.000  C
  C46      1.0000 0.77650  0.34060  0.33010  Biso   1.000  C
  C47      1.0000 0.74370  0.42900  0.36080  Biso   1.000  C
  H18      1.0000 0.77340  0.49790  0.37140  Biso   1.000  H
  C48      1.0000 0.66780  0.41970  0.37670  Biso   1.000  C
  C49      1.0000 0.62400  0.31830  0.36040  Biso   1.000  C
  H19      1.0000 0.57330  0.31030  0.37180  Biso   1.000  H
  C50      1.0000 0.65340  0.22560  0.32680  Biso   1.000  C
  C51      1.0000 0.73170  0.23850  0.31300  Biso   1.000  C
  H20      1.0000 0.75410  0.17800  0.29200  Biso   1.000  H
  C52      1.0000 0.86040  0.35060  0.31240  Biso   1.000  C
  C53      1.0000 0.63300  0.51710  0.41070  Biso   1.000  C
  C54      1.0000 0.60370  0.12250  0.30560  Biso   1.000  C
  O25      1.0000 0.11850  0.60950  0.44520  Biso   1.000  O
  O26      1.0000 0.11600  0.40220  0.43530  Biso   1.000  O
  O27      1.0000 0.37440  0.17210  0.40950  Biso   1.000  O
  O28      1.0000 0.46820  0.25910  0.45190  Biso   1.000  O
  O29      1.0000 0.47470  0.74420  0.42950  Biso   1.000  O
  O30      1.0000 0.36350  0.84210  0.44500  Biso   1.000  O
  O31      1.0000 0.88590  0.27740  0.28020  Biso   1.000  O
  O32      1.0000 0.89950  0.44040  0.33150  Biso   1.000  O
  O33      1.0000 0.64820  0.62960  0.40350  Biso   1.000  O
  O34      1.0000 0.58980  0.47920  0.44630  Biso   1.000  O
  O35      1.0000 0.62440  0.06890  0.26570  Biso   1.000  O
  O36      1.0000 0.53900  0.09690  0.32580  Biso   1.000  O
  H21      1.0000 0.93000  0.45000  0.49100  Biso   1.000  H
  Sr7      1.0000 0.48412  0.00002  0.40407  Biso   1.000  Sr
  Sr8      1.0000 0.58739  0.29188  0.50818  Biso   1.000  Sr
  C55      1.0000 0.73940  0.00170  0.43430  Biso   1.000  C
  C56      1.0000 0.78070  0.11500  0.43390  Biso   1.000  C
  H22      1.0000 0.75390  0.19180  0.43370  Biso   1.000  H
  C57      1.0000 0.86010  0.11610  0.43380  Biso   1.000  C
  C58      1.0000 0.89930  0.00410  0.43360  Biso   1.000  C
  H23      1.0000 0.95320  0.00420  0.43460  Biso   1.000  H
  C59      1.0000 0.85960  0.89000  0.43190  Biso   1.000  C
  C60      1.0000 0.77950  0.88810  0.43160  Biso   1.000  C
  H24      1.0000 0.75290  0.81130  0.42960  Biso   1.000  H
  C61      1.0000 0.65220  0.00420  0.43910  Biso   1.000  C
  C62      1.0000 0.90210  0.24380  0.43610  Biso   1.000  C
  C63      1.0000 0.90410  0.76490  0.43170  Biso   1.000  C
  C64      1.0000 0.27650  0.84060  0.33010  Biso   1.000  C
  C65      1.0000 0.24370  0.92900  0.36080  Biso   1.000  C
  H25      1.0000 0.27340  0.99790  0.37140  Biso   1.000  H
  C66      1.0000 0.16780  0.91970  0.37670  Biso   1.000  C
  C67      1.0000 0.12400  0.81830  0.36040  Biso   1.000  C
  H26      1.0000 0.07330  0.81030  0.37180  Biso   1.000  H
  C68      1.0000 0.15340  0.72560  0.32680  Biso   1.000  C
  C69      1.0000 0.23170  0.73850  0.31300  Biso   1.000  C
  H27      1.0000 0.25410  0.67800  0.29200  Biso   1.000  H
  C70      1.0000 0.36040  0.85060  0.31240  Biso   1.000  C
  C71      1.0000 0.13300  0.01710  0.41070  Biso   1.000  C
  C72      1.0000 0.10370  0.62250  0.30560  Biso   1.000  C
  O37      1.0000 0.61850  0.10950  0.44520  Biso   1.000  O
  O38      1.0000 0.61600  0.90220  0.43530  Biso   1.000  O
  O39      1.0000 0.87440  0.67210  0.40950  Biso   1.000  O
  O40      1.0000 0.96820  0.75910  0.45190  Biso   1.000  O
  O41      1.0000 0.97470  0.24420  0.42950  Biso   1.000  O
  O42      1.0000 0.86350  0.34210  0.44500  Biso   1.000  O
  O43      1.0000 0.38590  0.77740  0.28020  Biso   1.000  O
  O44      1.0000 0.39950  0.94040  0.33150  Biso   1.000  O
  O45      1.0000 0.14820  0.12960  0.40350  Biso   1.000  O
  O46      1.0000 0.08980  0.97920  0.44630  Biso   1.000  O
  O47      1.0000 0.12440  0.56890  0.26570  Biso   1.000  O
  O48      1.0000 0.03900  0.59690  0.32580  Biso   1.000  O
  H28      1.0000 0.43000  0.95000  0.49100  Biso   1.000  H
  Sr9      1.0000 0.98412  0.49998  0.59593  Biso   1.000  Sr
  Sr10     1.0000 0.08739  0.20812  0.49182  Biso   1.000  Sr
  C73      1.0000 0.23940  0.49830  0.56570  Biso   1.000  C
  C74      1.0000 0.28070  0.38500  0.56610  Biso   1.000  C
  H29      1.0000 0.25390  0.30820  0.56630  Biso   1.000  H
  C75      1.0000 0.36010  0.38390  0.56620  Biso   1.000  C
  C76      1.0000 0.39930  0.49590  0.56640  Biso   1.000  C
  H30      1.0000 0.45320  0.49580  0.56540  Biso   1.000  H
  C77      1.0000 0.35960  0.61000  0.56810  Biso   1.000  C
  C78      1.0000 0.27950  0.61190  0.56840  Biso   1.000  C
  H31      1.0000 0.25290  0.68870  0.57040  Biso   1.000  H
  C79      1.0000 0.15220  0.49580  0.56090  Biso   1.000  C
  C80      1.0000 0.40210  0.25620  0.56390  Biso   1.000  C
  C81      1.0000 0.40410  0.73510  0.56830  Biso   1.000  C
  C82      1.0000 0.77650  0.65940  0.66990  Biso   1.000  C
  C83      1.0000 0.74370  0.57100  0.63920  Biso   1.000  C
  H32      1.0000 0.77340  0.50210  0.62860  Biso   1.000  H
  C84      1.0000 0.66780  0.58030  0.62330  Biso   1.000  C
  C85      1.0000 0.62400  0.68170  0.63960  Biso   1.000  C
  H33      1.0000 0.57330  0.68970  0.62820  Biso   1.000  H
  C86      1.0000 0.65340  0.77440  0.67320  Biso   1.000  C
  C87      1.0000 0.73170  0.76150  0.68700  Biso   1.000  C
  H34      1.0000 0.75410  0.82200  0.70800  Biso   1.000  H
  C88      1.0000 0.86040  0.64940  0.68760  Biso   1.000  C
  C89      1.0000 0.63300  0.48290  0.58930  Biso   1.000  C
  C90      1.0000 0.60370  0.87750  0.69440  Biso   1.000  C
  O49      1.0000 0.11850  0.39050  0.55480  Biso   1.000  O
  O50      1.0000 0.11600  0.59780  0.56470  Biso   1.000  O
  O51      1.0000 0.37440  0.82790  0.59050  Biso   1.000  O
  O52      1.0000 0.46820  0.74090  0.54810  Biso   1.000  O
  O53      1.0000 0.47470  0.25580  0.57050  Biso   1.000  O
  O54      1.0000 0.36350  0.15790  0.55500  Biso   1.000  O
  O55      1.0000 0.88590  0.72260  0.71980  Biso   1.000  O
  O56      1.0000 0.89950  0.55960  0.66850  Biso   1.000  O
  O57      1.0000 0.64820  0.37040  0.59650  Biso   1.000  O
  O58      1.0000 0.58980  0.52080  0.55370  Biso   1.000  O
  O59      1.0000 0.62440  0.93110  0.73430  Biso   1.000  O
  O60      1.0000 0.53900  0.90310  0.67420  Biso   1.000  O
  H35      1.0000 0.93000  0.55000  0.50900  Biso   1.000  H
  Sr11     1.0000 0.48412  0.99998  0.59593  Biso   1.000  Sr
  Sr12     1.0000 0.58739  0.70812  0.49182  Biso   1.000  Sr
  C91      1.0000 0.73940  0.99830  0.56570  Biso   1.000  C
  C92      1.0000 0.78070  0.88500  0.56610  Biso   1.000  C
  H36      1.0000 0.75390  0.80820  0.56630  Biso   1.000  H
  C93      1.0000 0.86010  0.88390  0.56620  Biso   1.000  C
  C94      1.0000 0.89930  0.99590  0.56640  Biso   1.000  C
  H37      1.0000 0.95320  0.99580  0.56540  Biso   1.000  H
  C95      1.0000 0.85960  0.11000  0.56810  Biso   1.000  C
  C96      1.0000 0.77950  0.11190  0.56840  Biso   1.000  C
  H38      1.0000 0.75290  0.18870  0.57040  Biso   1.000  H
  C97      1.0000 0.65220  0.99580  0.56090  Biso   1.000  C
  C98      1.0000 0.90210  0.75620  0.56390  Biso   1.000  C
  C99      1.0000 0.90410  0.23510  0.56830  Biso   1.000  C
  C100     1.0000 0.27650  0.15940  0.66990  Biso   1.000  C
  C101     1.0000 0.24370  0.07100  0.63920  Biso   1.000  C
  H39      1.0000 0.27340  0.00210  0.62860  Biso   1.000  H
  C102     1.0000 0.16780  0.08030  0.62330  Biso   1.000  C
  C103     1.0000 0.12400  0.18170  0.63960  Biso   1.000  C
  H40      1.0000 0.07330  0.18970  0.62820  Biso   1.000  H
  C104     1.0000 0.15340  0.27440  0.67320  Biso   1.000  C
  C105     1.0000 0.23170  0.26150  0.68700  Biso   1.000  C
  H41      1.0000 0.25410  0.32200  0.70800  Biso   1.000  H
  C106     1.0000 0.36040  0.14940  0.68760  Biso   1.000  C
  C107     1.0000 0.13300  0.98290  0.58930  Biso   1.000  C
  C108     1.0000 0.10370  0.37750  0.69440  Biso   1.000  C
  O61      1.0000 0.61850  0.89050  0.55480  Biso   1.000  O
  O62      1.0000 0.61600  0.09780  0.56470  Biso   1.000  O
  O63      1.0000 0.87440  0.32790  0.59050  Biso   1.000  O
  O64      1.0000 0.96820  0.24090  0.54810  Biso   1.000  O
  O65      1.0000 0.97470  0.75580  0.57050  Biso   1.000  O
  O66      1.0000 0.86350  0.65790  0.55500  Biso   1.000  O
  O67      1.0000 0.38590  0.22260  0.71980  Biso   1.000  O
  O68      1.0000 0.39950  0.05960  0.66850  Biso   1.000  O
  O69      1.0000 0.14820  0.87040  0.59650  Biso   1.000  O
  O70      1.0000 0.08980  0.02080  0.55370  Biso   1.000  O
  O71      1.0000 0.12440  0.43110  0.73430  Biso   1.000  O
  O72      1.0000 0.03900  0.40310  0.67420  Biso   1.000  O
  H42      1.0000 0.43000  0.05000  0.50900  Biso   1.000  H
  Sr13     1.0000 0.01588  0.50002  0.09593  Biso   1.000  Sr
  Sr14     1.0000 0.91261  0.79188  0.99182  Biso   1.000  Sr
  C109     1.0000 0.76060  0.50170  0.06570  Biso   1.000  C
  C110     1.0000 0.71930  0.61500  0.06610  Biso   1.000  C
  H43      1.0000 0.74610  0.69180  0.06630  Biso   1.000  H
  C111     1.0000 0.63990  0.61610  0.06620  Biso   1.000  C
  C112     1.0000 0.60070  0.50410  0.06640  Biso   1.000  C
  H44      1.0000 0.54680  0.50420  0.06540  Biso   1.000  H
  C113     1.0000 0.64040  0.39000  0.06810  Biso   1.000  C
  C114     1.0000 0.72050  0.38810  0.06840  Biso   1.000  C
  H45      1.0000 0.74710  0.31130  0.07040  Biso   1.000  H
  C115     1.0000 0.84780  0.50420  0.06090  Biso   1.000  C
  C116     1.0000 0.59790  0.74380  0.06390  Biso   1.000  C
  C117     1.0000 0.59590  0.26490  0.06830  Biso   1.000  C
  C118     1.0000 0.22350  0.34060  0.16990  Biso   1.000  C
  C119     1.0000 0.25630  0.42900  0.13920  Biso   1.000  C
  H46      1.0000 0.22660  0.49790  0.12860  Biso   1.000  H
  C120     1.0000 0.33220  0.41970  0.12330  Biso   1.000  C
  C121     1.0000 0.37600  0.31830  0.13960  Biso   1.000  C
  H47      1.0000 0.42670  0.31030  0.12820  Biso   1.000  H
  C122     1.0000 0.34660  0.22560  0.17320  Biso   1.000  C
  C123     1.0000 0.26830  0.23850  0.18700  Biso   1.000  C
  H48      1.0000 0.24590  0.17800  0.20800  Biso   1.000  H
  C124     1.0000 0.13960  0.35060  0.18760  Biso   1.000  C
  C125     1.0000 0.36700  0.51710  0.08930  Biso   1.000  C
  C126     1.0000 0.39630  0.12250  0.19440  Biso   1.000  C
  O73      1.0000 0.88150  0.60950  0.05480  Biso   1.000  O
  O74      1.0000 0.88400  0.40220  0.06470  Biso   1.000  O
  O75      1.0000 0.62560  0.17210  0.09050  Biso   1.000  O
  O76      1.0000 0.53180  0.25910  0.04810  Biso   1.000  O
  O77      1.0000 0.52530  0.74420  0.07050  Biso   1.000  O
  O78      1.0000 0.63650  0.84210  0.05500  Biso   1.000  O
  O79      1.0000 0.11410  0.27740  0.21980  Biso   1.000  O
  O80      1.0000 0.10050  0.44040  0.16850  Biso   1.000  O
  O81      1.0000 0.35180  0.62960  0.09650  Biso   1.000  O
  O82      1.0000 0.41020  0.47920  0.05370  Biso   1.000  O
  O83      1.0000 0.37560  0.06890  0.23430  Biso   1.000  O
  O84      1.0000 0.46100  0.09690  0.17420  Biso   1.000  O
  H49      1.0000 0.07000  0.45000  0.00900  Biso   1.000  H
  Sr15     1.0000 0.51588  0.00002  0.09593  Biso   1.000  Sr
  Sr16     1.0000 0.41261  0.29188  0.99182  Biso   1.000  Sr
  C127     1.0000 0.26060  0.00170  0.06570  Biso   1.000  C
  C128     1.0000 0.21930  0.11500  0.06610  Biso   1.000  C
  H50      1.0000 0.24610  0.19180  0.06630  Biso   1.000  H
  C129     1.0000 0.13990  0.11610  0.06620  Biso   1.000  C
  C130     1.0000 0.10070  0.00410  0.06640  Biso   1.000  C
  H51      1.0000 0.04680  0.00420  0.06540  Biso   1.000  H
  C131     1.0000 0.14040  0.89000  0.06810  Biso   1.000  C
  C132     1.0000 0.22050  0.88810  0.06840  Biso   1.000  C
  H52      1.0000 0.24710  0.81130  0.07040  Biso   1.000  H
  C133     1.0000 0.34780  0.00420  0.06090  Biso   1.000  C
  C134     1.0000 0.09790  0.24380  0.06390  Biso   1.000  C
  C135     1.0000 0.09590  0.76490  0.06830  Biso   1.000  C
  C136     1.0000 0.72350  0.84060  0.16990  Biso   1.000  C
  C137     1.0000 0.75630  0.92900  0.13920  Biso   1.000  C
  H53      1.0000 0.72660  0.99790  0.12860  Biso   1.000  H
  C138     1.0000 0.83220  0.91970  0.12330  Biso   1.000  C
  C139     1.0000 0.87600  0.81830  0.13960  Biso   1.000  C
  H54      1.0000 0.92670  0.81030  0.12820  Biso   1.000  H
  C140     1.0000 0.84660  0.72560  0.17320  Biso   1.000  C
  C141     1.0000 0.76830  0.73850  0.18700  Biso   1.000  C
  H55      1.0000 0.74590  0.67800  0.20800  Biso   1.000  H
  C142     1.0000 0.63960  0.85060  0.18760  Biso   1.000  C
  C143     1.0000 0.86700  0.01710  0.08930  Biso   1.000  C
  C144     1.0000 0.89630  0.62250  0.19440  Biso   1.000  C
  O85      1.0000 0.38150  0.10950  0.05480  Biso   1.000  O
  O86      1.0000 0.38400  0.90220  0.06470  Biso   1.000  O
  O87      1.0000 0.12560  0.67210  0.09050  Biso   1.000  O
  O88      1.0000 0.03180  0.75910  0.04810  Biso   1.000  O
  O89      1.0000 0.02530  0.24420  0.07050  Biso   1.000  O
  O90      1.0000 0.13650  0.34210  0.05500  Biso   1.000  O
  O91      1.0000 0.61410  0.77740  0.21980  Biso   1.000  O
  O92      1.0000 0.60050  0.94040  0.16850  Biso   1.000  O
  O93      1.0000 0.85180  0.12960  0.09650  Biso   1.000  O
  O94      1.0000 0.91020  0.97920  0.05370  Biso   1.000  O
  O95      1.0000 0.87560  0.56890  0.23430  Biso   1.000  O
  O96      1.0000 0.96100  0.59690  0.17420  Biso   1.000  O
  H56      1.0000 0.57000  0.95000  0.00900  Biso   1.000  H
  Sr17     1.0000 0.00000  0.57253  0.75000  Biso   1.000  Sr
  Sr18     1.0000 0.50000  0.07253  0.75000  Biso   1.000  Sr
  Sr19     1.0000 0.00000  0.42747  0.25000  Biso   1.000  Sr
  Sr20     1.0000 0.50000  0.92747  0.25000  Biso   1.000  Sr
  O97      1.0000 0.04570  0.50000  0.00000  Biso   1.000  O
  O98      1.0000 0.54570  0.00000  0.00000  Biso   1.000  O
  O99      1.0000 0.95430  0.50000  0.50000  Biso   1.000  O
  O100     1.0000 0.45430  0.00000  0.50000  Biso   1.000  O
