data_XIBZUF_clean
_audit_creation_date              2014-07-02
_audit_creation_method            'Materials Studio'
_symmetry_space_group_name_H-M    'P1'
_symmetry_Int_Tables_number       1
_symmetry_cell_setting            triclinic
loop_
_symmetry_equiv_pos_as_xyz
  x,y,z
_cell_length_a                    14.4590
_cell_length_b                    20.2430
_cell_length_c                    21.1090
_cell_angle_alpha                 90.0000
_cell_angle_beta                  90.0000
_cell_angle_gamma                 90.0000
loop_
_atom_site_label
_atom_site_type_symbol
_atom_site_fract_x
_atom_site_fract_y
_atom_site_fract_z
_atom_site_U_iso_or_equiv
_atom_site_adp_type
_atom_site_occupancy
Y1     Y     0.05131   0.18107   0.90305   0.01267  Uiso   1.00
Y2     Y     0.80211   0.34888   0.93386   0.01267  Uiso   1.00
Y3     Y     0.44869   0.81893   0.40305   0.01267  Uiso   1.00
Y4     Y     0.69789   0.65112   0.43386   0.01267  Uiso   1.00
Y5     Y     0.94869   0.68107   0.59695   0.01267  Uiso   1.00
Y6     Y     0.19789   0.84888   0.56614   0.01267  Uiso   1.00
Y7     Y     0.55131   0.31893   0.09695   0.01267  Uiso   1.00
Y8     Y     0.30211   0.15112   0.06614   0.01267  Uiso   1.00
H1     H     0.69420   0.94650   0.91670   0.01267  Uiso   1.00
H2     H     0.55650   0.83810   0.78920   0.01267  Uiso   1.00
H3     H     0.64970   0.71500   0.10310   0.01267  Uiso   1.00
H4     H     0.67790   0.21080   0.99440   0.01267  Uiso   1.00
H5     H     0.55300   0.03430   0.01100   0.01267  Uiso   1.00
H6     H     0.79900   0.04820   0.92330   0.01267  Uiso   1.00
H7     H     0.63380   0.80540   0.05580   0.01267  Uiso   1.00
H8     H     0.58540   0.67770   0.91400   0.01267  Uiso   1.00
H9     H     0.62140   0.87000   0.87590   0.01267  Uiso   1.00
H10    H     0.44980   0.83060   0.69250   0.01267  Uiso   1.00
H11    H     0.57340   0.76010   0.53680   0.01267  Uiso   1.00
H12    H     0.69570   0.74390   0.70610   0.01267  Uiso   1.00
H13    H     0.64550   0.68410   0.21290   0.01267  Uiso   1.00
H14    H     0.62690   0.49210   0.25940   0.01267  Uiso   1.00
H15    H     0.60790   0.54760   0.07710   0.01267  Uiso   1.00
H16    H     0.80580   0.05350   0.41670   0.01267  Uiso   1.00
H17    H     0.94350   0.16190   0.28920   0.01267  Uiso   1.00
H18    H     0.85030   0.28500   0.60310   0.01267  Uiso   1.00
H19    H     0.82210   0.78920   0.49440   0.01267  Uiso   1.00
H20    H     0.94700   0.96570   0.51100   0.01267  Uiso   1.00
H21    H     0.70100   0.95180   0.42330   0.01267  Uiso   1.00
H22    H     0.86620   0.19460   0.55580   0.01267  Uiso   1.00
H23    H     0.91460   0.32230   0.41400   0.01267  Uiso   1.00
H24    H     0.87860   0.13000   0.37590   0.01267  Uiso   1.00
H25    H     0.05020   0.16940   0.19250   0.01267  Uiso   1.00
H26    H     0.92660   0.23990   0.03680   0.01267  Uiso   1.00
H27    H     0.80430   0.25610   0.20610   0.01267  Uiso   1.00
H28    H     0.85450   0.31590   0.71290   0.01267  Uiso   1.00
H29    H     0.87310   0.50790   0.75940   0.01267  Uiso   1.00
H30    H     0.89210   0.45240   0.57710   0.01267  Uiso   1.00
H31    H     0.30580   0.44650   0.58330   0.01267  Uiso   1.00
H32    H     0.44350   0.33810   0.71080   0.01267  Uiso   1.00
H33    H     0.35030   0.21500   0.39690   0.01267  Uiso   1.00
H34    H     0.32210   0.71080   0.50560   0.01267  Uiso   1.00
H35    H     0.44700   0.53430   0.48900   0.01267  Uiso   1.00
H36    H     0.20100   0.54820   0.57670   0.01267  Uiso   1.00
H37    H     0.36620   0.30540   0.44420   0.01267  Uiso   1.00
H38    H     0.41460   0.17770   0.58600   0.01267  Uiso   1.00
H39    H     0.37860   0.37000   0.62410   0.01267  Uiso   1.00
H40    H     0.55020   0.33060   0.80750   0.01267  Uiso   1.00
H41    H     0.42660   0.26010   0.96320   0.01267  Uiso   1.00
H42    H     0.30430   0.24390   0.79390   0.01267  Uiso   1.00
H43    H     0.35450   0.18410   0.28710   0.01267  Uiso   1.00
H44    H     0.37310   0.99210   0.24060   0.01267  Uiso   1.00
H45    H     0.39210   0.04760   0.42290   0.01267  Uiso   1.00
H46    H     0.19420   0.55350   0.08330   0.01267  Uiso   1.00
H47    H     0.05650   0.66190   0.21080   0.01267  Uiso   1.00
H48    H     0.14970   0.78500   0.89690   0.01267  Uiso   1.00
H49    H     0.17790   0.28920   0.00560   0.01267  Uiso   1.00
H50    H     0.05300   0.46570   0.98900   0.01267  Uiso   1.00
H51    H     0.29900   0.45180   0.07670   0.01267  Uiso   1.00
H52    H     0.13380   0.69460   0.94420   0.01267  Uiso   1.00
H53    H     0.08540   0.82230   0.08600   0.01267  Uiso   1.00
H54    H     0.12140   0.63000   0.12410   0.01267  Uiso   1.00
H55    H     0.94980   0.66940   0.30750   0.01267  Uiso   1.00
H56    H     0.07340   0.73990   0.46320   0.01267  Uiso   1.00
H57    H     0.19570   0.75610   0.29390   0.01267  Uiso   1.00
H58    H     0.14550   0.81590   0.78710   0.01267  Uiso   1.00
H59    H     0.12690   0.00790   0.74060   0.01267  Uiso   1.00
H60    H     0.10790   0.95240   0.92290   0.01267  Uiso   1.00
C1     C     0.83080   0.17670   0.93260   0.01267  Uiso   1.00
C2     C     0.75070   0.13580   0.95540   0.01267  Uiso   1.00
C3     C     0.67740   0.16552   0.98710   0.01267  Uiso   1.00
C4     C     0.60330   0.12750   0.00790   0.01267  Uiso   1.00
C5     C     0.60260   0.05980   0.99700   0.01267  Uiso   1.00
C6     C     0.67590   0.03008   0.96530   0.01267  Uiso   1.00
C7     C     0.74990   0.06810   0.94450   0.01267  Uiso   1.00
C8     C     0.52450   0.15730   0.04070   0.01267  Uiso   1.00
C9     C     0.64090   0.91600   0.99390   0.01267  Uiso   1.00
C10    C     0.62910   0.84820   0.96840   0.01267  Uiso   1.00
C11    C     0.62240   0.79670   0.01320   0.01267  Uiso   1.00
C12    C     0.59980   0.73510   0.99490   0.01267  Uiso   1.00
C13    C     0.59520   0.72080   0.92770   0.01267  Uiso   1.00
C14    C     0.60530   0.77030   0.88440   0.01267  Uiso   1.00
C15    C     0.61910   0.83560   0.90510   0.01267  Uiso   1.00
C16    C     0.59800   0.75350   0.81650   0.01267  Uiso   1.00
C17    C     0.57410   0.78850   0.70820   0.01267  Uiso   1.00
C18    C     0.49950   0.80950   0.67310   0.01267  Uiso   1.00
C19    C     0.50000   0.79810   0.60650   0.01267  Uiso   1.00
C20    C     0.41810   0.82260   0.56890   0.01267  Uiso   1.00
C21    C     0.57330   0.76750   0.58030   0.01267  Uiso   1.00
C22    C     0.64690   0.74710   0.61500   0.01267  Uiso   1.00
C23    C     0.72770   0.70850   0.58760   0.01267  Uiso   1.00
C24    C     0.64620   0.75790   0.68130   0.01267  Uiso   1.00
C25    C     0.59180   0.67610   0.03450   0.01267  Uiso   1.00
C26    C     0.62670   0.62400   0.13740   0.01267  Uiso   1.00
C27    C     0.63800   0.64022   0.20090   0.01267  Uiso   1.00
C28    C     0.63810   0.59080   0.24664   0.01267  Uiso   1.00
C29    C     0.62690   0.52520   0.22880   0.01267  Uiso   1.00
C30    C     0.61550   0.50900   0.16530   0.01267  Uiso   1.00
C31    C     0.61550   0.55840   0.11959   0.01267  Uiso   1.00
C32    C     0.65760   0.60970   0.31280   0.01267  Uiso   1.00
C33    C     0.59660   0.44120   0.14220   0.01267  Uiso   1.00
C34    C     0.66920   0.82330   0.43260   0.01267  Uiso   1.00
C35    C     0.74930   0.86420   0.45540   0.01267  Uiso   1.00
C36    C     0.82260   0.83448   0.48710   0.01267  Uiso   1.00
C37    C     0.89670   0.87250   0.50790   0.01267  Uiso   1.00
C38    C     0.89740   0.94020   0.49700   0.01267  Uiso   1.00
C39    C     0.82410   0.96992   0.46530   0.01267  Uiso   1.00
C40    C     0.75010   0.93190   0.44450   0.01267  Uiso   1.00
C41    C     0.97550   0.84270   0.54070   0.01267  Uiso   1.00
C42    C     0.85910   0.08400   0.49390   0.01267  Uiso   1.00
C43    C     0.87090   0.15180   0.46840   0.01267  Uiso   1.00
C44    C     0.87760   0.20330   0.51320   0.01267  Uiso   1.00
C45    C     0.90020   0.26490   0.49490   0.01267  Uiso   1.00
C46    C     0.90480   0.27920   0.42770   0.01267  Uiso   1.00
C47    C     0.89470   0.22970   0.38440   0.01267  Uiso   1.00
C48    C     0.88090   0.16440   0.40510   0.01267  Uiso   1.00
C49    C     0.90200   0.24650   0.31650   0.01267  Uiso   1.00
C50    C     0.92590   0.21150   0.20820   0.01267  Uiso   1.00
C51    C     0.00050   0.19050   0.17310   0.01267  Uiso   1.00
C52    C     0.00000   0.20190   0.10650   0.01267  Uiso   1.00
C53    C     0.08190   0.17740   0.06890   0.01267  Uiso   1.00
C54    C     0.92670   0.23250   0.08030   0.01267  Uiso   1.00
C55    C     0.85310   0.25290   0.11500   0.01267  Uiso   1.00
C56    C     0.77230   0.29150   0.08760   0.01267  Uiso   1.00
C57    C     0.85380   0.24210   0.18130   0.01267  Uiso   1.00
C58    C     0.90820   0.32390   0.53450   0.01267  Uiso   1.00
C59    C     0.87330   0.37600   0.63740   0.01267  Uiso   1.00
C60    C     0.86200   0.35978   0.70090   0.01267  Uiso   1.00
C61    C     0.86190   0.40920   0.74664   0.01267  Uiso   1.00
C62    C     0.87310   0.47480   0.72880   0.01267  Uiso   1.00
C63    C     0.88450   0.49100   0.66530   0.01267  Uiso   1.00
C64    C     0.88450   0.44160   0.61959   0.01267  Uiso   1.00
C65    C     0.84240   0.39030   0.81280   0.01267  Uiso   1.00
C66    C     0.90340   0.55880   0.64220   0.01267  Uiso   1.00
C67    C     0.16920   0.67670   0.56740   0.01267  Uiso   1.00
C68    C     0.24930   0.63580   0.54460   0.01267  Uiso   1.00
C69    C     0.32260   0.66552   0.51290   0.01267  Uiso   1.00
C70    C     0.39670   0.62750   0.49210   0.01267  Uiso   1.00
C71    C     0.39740   0.55980   0.50300   0.01267  Uiso   1.00
C72    C     0.32410   0.53008   0.53470   0.01267  Uiso   1.00
C73    C     0.25010   0.56810   0.55550   0.01267  Uiso   1.00
C74    C     0.47550   0.65730   0.45930   0.01267  Uiso   1.00
C75    C     0.35910   0.41600   0.50610   0.01267  Uiso   1.00
C76    C     0.37090   0.34820   0.53160   0.01267  Uiso   1.00
C77    C     0.37760   0.29670   0.48680   0.01267  Uiso   1.00
C78    C     0.40020   0.23510   0.50510   0.01267  Uiso   1.00
C79    C     0.40480   0.22080   0.57230   0.01267  Uiso   1.00
C80    C     0.39470   0.27030   0.61560   0.01267  Uiso   1.00
C81    C     0.38090   0.33560   0.59490   0.01267  Uiso   1.00
C82    C     0.40200   0.25350   0.68350   0.01267  Uiso   1.00
C83    C     0.42590   0.28850   0.79180   0.01267  Uiso   1.00
C84    C     0.50050   0.30950   0.82690   0.01267  Uiso   1.00
C85    C     0.50000   0.29810   0.89350   0.01267  Uiso   1.00
C86    C     0.58190   0.32260   0.93110   0.01267  Uiso   1.00
C87    C     0.42670   0.26750   0.91970   0.01267  Uiso   1.00
C88    C     0.35310   0.24710   0.88500   0.01267  Uiso   1.00
C89    C     0.27230   0.20850   0.91240   0.01267  Uiso   1.00
C90    C     0.35380   0.25790   0.81870   0.01267  Uiso   1.00
C91    C     0.40820   0.17610   0.46550   0.01267  Uiso   1.00
C92    C     0.37330   0.12400   0.36260   0.01267  Uiso   1.00
C93    C     0.36200   0.14022   0.29910   0.01267  Uiso   1.00
C94    C     0.36190   0.09080   0.25336   0.01267  Uiso   1.00
C95    C     0.37310   0.02520   0.27120   0.01267  Uiso   1.00
C96    C     0.38450   0.00900   0.33470   0.01267  Uiso   1.00
C97    C     0.38450   0.05840   0.38041   0.01267  Uiso   1.00
C98    C     0.34240   0.10970   0.18720   0.01267  Uiso   1.00
C99    C     0.40340   0.94120   0.35780   0.01267  Uiso   1.00
C100   C     0.33080   0.32330   0.06740   0.01267  Uiso   1.00
C101   C     0.25070   0.36420   0.04460   0.01267  Uiso   1.00
C102   C     0.17740   0.33448   0.01290   0.01267  Uiso   1.00
C103   C     0.10330   0.37250   0.99210   0.01267  Uiso   1.00
C104   C     0.10260   0.44020   0.00300   0.01267  Uiso   1.00
C105   C     0.17590   0.46992   0.03470   0.01267  Uiso   1.00
C106   C     0.24990   0.43190   0.05550   0.01267  Uiso   1.00
C107   C     0.02450   0.34270   0.95930   0.01267  Uiso   1.00
C108   C     0.14090   0.58400   0.00610   0.01267  Uiso   1.00
C109   C     0.12910   0.65180   0.03160   0.01267  Uiso   1.00
C110   C     0.12240   0.70330   0.98680   0.01267  Uiso   1.00
C111   C     0.09980   0.76490   0.00510   0.01267  Uiso   1.00
C112   C     0.09520   0.77920   0.07230   0.01267  Uiso   1.00
C113   C     0.10530   0.72970   0.11560   0.01267  Uiso   1.00
C114   C     0.11910   0.66440   0.09490   0.01267  Uiso   1.00
C115   C     0.09800   0.74650   0.18350   0.01267  Uiso   1.00
C116   C     0.07410   0.71150   0.29180   0.01267  Uiso   1.00
C117   C     0.99950   0.69050   0.32690   0.01267  Uiso   1.00
C118   C     0.00000   0.70190   0.39350   0.01267  Uiso   1.00
C119   C     0.91810   0.67740   0.43110   0.01267  Uiso   1.00
C120   C     0.07330   0.73250   0.41970   0.01267  Uiso   1.00
C121   C     0.14690   0.75290   0.38500   0.01267  Uiso   1.00
C122   C     0.22770   0.79150   0.41240   0.01267  Uiso   1.00
C123   C     0.14620   0.74210   0.31870   0.01267  Uiso   1.00
C124   C     0.09180   0.82390   0.96550   0.01267  Uiso   1.00
C125   C     0.12670   0.87600   0.86260   0.01267  Uiso   1.00
C126   C     0.13800   0.85978   0.79910   0.01267  Uiso   1.00
C127   C     0.13810   0.90920   0.75336   0.01267  Uiso   1.00
C128   C     0.12690   0.97480   0.77120   0.01267  Uiso   1.00
C129   C     0.11550   0.99100   0.83470   0.01267  Uiso   1.00
C130   C     0.11550   0.94160   0.88041   0.01267  Uiso   1.00
C131   C     0.15760   0.89030   0.68720   0.01267  Uiso   1.00
C132   C     0.09660   0.05880   0.85780   0.01267  Uiso   1.00
N1     N     0.67360   0.96040   0.95250   0.01267  Uiso   1.00
N2     N     0.57330   0.80000   0.77530   0.01267  Uiso   1.00
N3     N     0.62550   0.67820   0.09130   0.01267  Uiso   1.00
N4     N     0.82640   0.03960   0.45250   0.01267  Uiso   1.00
N5     N     0.92670   0.20000   0.27530   0.01267  Uiso   1.00
N6     N     0.87450   0.32180   0.59130   0.01267  Uiso   1.00
N7     N     0.32640   0.46040   0.54750   0.01267  Uiso   1.00
N8     N     0.42670   0.30000   0.72470   0.01267  Uiso   1.00
N9     N     0.37450   0.17820   0.40870   0.01267  Uiso   1.00
N10    N     0.17360   0.53960   0.04750   0.01267  Uiso   1.00
N11    N     0.07330   0.70000   0.22470   0.01267  Uiso   1.00
N12    N     0.12550   0.82180   0.90870   0.01267  Uiso   1.00
O1     O     0.90480   0.14620   0.91890   0.01267  Uiso   1.00
O2     O     0.82050   0.23940   0.92970   0.01267  Uiso   1.00
O3     O     0.53470   0.21370   0.06490   0.01267  Uiso   1.00
O4     O     0.44960   0.12680   0.04160   0.01267  Uiso   1.00
O5     O     0.62080   0.93160   0.04570   0.01267  Uiso   1.00
O6     O     0.34530   0.83210   0.59770   0.01267  Uiso   1.00
O7     O     0.43050   0.82660   0.50940   0.01267  Uiso   1.00
O8     O     0.71520   0.68100   0.53410   0.01267  Uiso   1.00
O9     O     0.80150   0.70870   0.61800   0.01267  Uiso   1.00
O10    O     0.62080   0.69560   0.80010   0.01267  Uiso   1.00
O11    O     0.67790   0.56760   0.35450   0.01267  Uiso   1.00
O12    O     0.64730   0.67110   0.32950   0.01267  Uiso   1.00
O13    O     0.57050   0.39600   0.18180   0.01267  Uiso   1.00
O14    O     0.60560   0.42840   0.08370   0.01267  Uiso   1.00
O15    O     0.53420   0.62780   0.01790   0.01267  Uiso   1.00
O16    O     0.59520   0.85380   0.41890   0.01267  Uiso   1.00
O17    O     0.67950   0.76060   0.42970   0.01267  Uiso   1.00
O18    O     0.96530   0.78630   0.56490   0.01267  Uiso   1.00
O19    O     0.05040   0.87320   0.54160   0.01267  Uiso   1.00
O20    O     0.87920   0.06840   0.54570   0.01267  Uiso   1.00
O21    O     0.15470   0.16790   0.09770   0.01267  Uiso   1.00
O22    O     0.06950   0.17340   0.00940   0.01267  Uiso   1.00
O23    O     0.78480   0.31900   0.03410   0.01267  Uiso   1.00
O24    O     0.69850   0.29130   0.11800   0.01267  Uiso   1.00
O25    O     0.87920   0.30440   0.30010   0.01267  Uiso   1.00
O26    O     0.82210   0.43240   0.85450   0.01267  Uiso   1.00
O27    O     0.85270   0.32890   0.82950   0.01267  Uiso   1.00
O28    O     0.92950   0.60400   0.68180   0.01267  Uiso   1.00
O29    O     0.89440   0.57160   0.58370   0.01267  Uiso   1.00
O30    O     0.96580   0.37220   0.51790   0.01267  Uiso   1.00
O31    O     0.09520   0.64620   0.58110   0.01267  Uiso   1.00
O32    O     0.17950   0.73940   0.57030   0.01267  Uiso   1.00
O33    O     0.46530   0.71370   0.43510   0.01267  Uiso   1.00
O34    O     0.55040   0.62680   0.45840   0.01267  Uiso   1.00
O35    O     0.37920   0.43160   0.45430   0.01267  Uiso   1.00
O36    O     0.65470   0.33210   0.90230   0.01267  Uiso   1.00
O37    O     0.56950   0.32660   0.99060   0.01267  Uiso   1.00
O38    O     0.28480   0.18100   0.96590   0.01267  Uiso   1.00
O39    O     0.19850   0.20870   0.88200   0.01267  Uiso   1.00
O40    O     0.37920   0.19560   0.69990   0.01267  Uiso   1.00
O41    O     0.32210   0.06760   0.14550   0.01267  Uiso   1.00
O42    O     0.35270   0.17110   0.17050   0.01267  Uiso   1.00
O43    O     0.42950   0.89600   0.31820   0.01267  Uiso   1.00
O44    O     0.39440   0.92840   0.41630   0.01267  Uiso   1.00
O45    O     0.46580   0.12780   0.48210   0.01267  Uiso   1.00
O46    O     0.40480   0.35380   0.08110   0.01267  Uiso   1.00
O47    O     0.32050   0.26060   0.07030   0.01267  Uiso   1.00
O48    O     0.03470   0.28630   0.93510   0.01267  Uiso   1.00
O49    O     0.94960   0.37320   0.95840   0.01267  Uiso   1.00
O50    O     0.12080   0.56840   0.95430   0.01267  Uiso   1.00
O51    O     0.84530   0.66790   0.40230   0.01267  Uiso   1.00
O52    O     0.93050   0.67340   0.49060   0.01267  Uiso   1.00
O53    O     0.21520   0.81900   0.46590   0.01267  Uiso   1.00
O54    O     0.30150   0.79130   0.38200   0.01267  Uiso   1.00
O55    O     0.12080   0.80440   0.19990   0.01267  Uiso   1.00
O56    O     0.17790   0.93240   0.64550   0.01267  Uiso   1.00
O57    O     0.14730   0.82890   0.67050   0.01267  Uiso   1.00
O58    O     0.07050   0.10400   0.81820   0.01267  Uiso   1.00
O59    O     0.10560   0.07160   0.91630   0.01267  Uiso   1.00
O60    O     0.03420   0.87220   0.98210   0.01267  Uiso   1.00
