data_XICYEP_clean
_audit_creation_date              2015-05-20
_audit_creation_method            'Materials Studio'
_symmetry_space_group_name_H-M    'P1'
_symmetry_Int_Tables_number       1
_symmetry_cell_setting            triclinic
loop_
_symmetry_equiv_pos_as_xyz
  x,y,z
_cell_length_a                    13.5300
_cell_length_b                    19.7100
_cell_length_c                    28.3000
_cell_angle_alpha                 90.0000
_cell_angle_beta                  90.0000
_cell_angle_gamma                 90.0000
loop_
_atom_site_label
_atom_site_type_symbol
_atom_site_fract_x
_atom_site_fract_y
_atom_site_fract_z
_atom_site_U_iso_or_equiv
_atom_site_adp_type
_atom_site_occupancy
Hf1    Hf    0.19339   0.12173   0.12602   0.01267  Uiso   1.00
Hf2    Hf    0.30437   0.88321   0.12423   0.01267  Uiso   1.00
Hf3    Hf    0.14331   0.97835   0.19439   0.01267  Uiso   1.00
Hf4    Hf    0.38744   0.03157   0.17989   0.01267  Uiso   1.00
Hf5    Hf    0.35586   0.02735   0.05516   0.01267  Uiso   1.00
Hf6    Hf    0.11262   0.97423   0.07166   0.01267  Uiso   1.00
H7     H     0.28030   0.32750   0.19300   0.01267  Uiso   1.00
H8     H     0.37300   0.41550   0.23290   0.01267  Uiso   1.00
H9     H     0.28750   0.32830   0.06010   0.01267  Uiso   1.00
H10    H     0.38440   0.41280   0.01630   0.01267  Uiso   1.00
H11    H     0.18920   0.67170   0.07070   0.01267  Uiso   1.00
H12    H     0.08680   0.58850   0.03250   0.01267  Uiso   1.00
H13    H     0.19400   0.68070   0.17920   0.01267  Uiso   1.00
H14    H     0.10270   0.59090   0.22140   0.01267  Uiso   1.00
H15    H     0.45790   0.02810   0.33220   0.01267  Uiso   1.00
H16    H     0.45990   0.03960   0.41740   0.01267  Uiso   1.00
C17    C     0.34010   0.19310   0.19710   0.01267  Uiso   1.00
C18    C     0.37230   0.25620   0.22070   0.01267  Uiso   1.00
C19    C     0.33400   0.31920   0.21270   0.01267  Uiso   1.00
C20    C     0.38400   0.36950   0.23750   0.01267  Uiso   1.00
C21    C     0.45370   0.34460   0.27010   0.01267  Uiso   1.00
C22    C     0.51800   0.38410   0.30230   0.01267  Uiso   1.00
C23    C     0.31900   0.18610   0.04420   0.01267  Uiso   1.00
C24    C     0.35400   0.25210   0.02090   0.01267  Uiso   1.00
C25    C     0.33200   0.31780   0.03630   0.01267  Uiso   1.00
C26    C     0.38900   0.36700   0.01050   0.01267  Uiso   1.00
C27    C     0.44700   0.34160   0.97820   0.01267  Uiso   1.00
C28    C     0.51650   0.37810   0.94720   0.01267  Uiso   1.00
C29    C     0.15120   0.81660   0.05580   0.01267  Uiso   1.00
C30    C     0.11470   0.74850   0.03480   0.01267  Uiso   1.00
C31    C     0.14000   0.68210   0.04880   0.01267  Uiso   1.00
C32    C     0.08300   0.63450   0.02540   0.01267  Uiso   1.00
C33    C     0.02300   0.65770   0.99280   0.01267  Uiso   1.00
C34    C     0.95620   0.61810   0.96130   0.01267  Uiso   1.00
C35    C     0.17140   0.81450   0.20380   0.01267  Uiso   1.00
C36    C     0.12900   0.75050   0.22120   0.01267  Uiso   1.00
C37    C     0.15000   0.68870   0.20370   0.01267  Uiso   1.00
C38    C     0.09500   0.63710   0.22700   0.01267  Uiso   1.00
C39    C     0.03200   0.66390   0.25820   0.01267  Uiso   1.00
C40    C     0.95800   0.62480   0.28680   0.01267  Uiso   1.00
C41    C     0.29230   0.00870   0.27960   0.01267  Uiso   1.00
C42    C     0.31000   0.01010   0.33060   0.01267  Uiso   1.00
C43    C     0.40200   0.02300   0.35060   0.01267  Uiso   1.00
C44    C     0.40500   0.02700   0.39980   0.01267  Uiso   1.00
C45    C     0.31380   0.00840   0.41870   0.01267  Uiso   1.00
C46    C     0.29190   0.00170   0.47040   0.01267  Uiso   1.00
S47    S     0.46030   0.25630   0.26580   0.01267  Uiso   1.00
S48    S     0.44060   0.25330   0.97770   0.01267  Uiso   1.00
S49    S     0.02500   0.74530   0.99250   0.01267  Uiso   1.00
S50    S     0.04110   0.74950   0.26480   0.01267  Uiso   1.00
S51    S     0.22630   0.99400   0.37580   0.01267  Uiso   1.00
O52    O     0.35270   0.09280   0.11980   0.01267  Uiso   1.00
O53    O     0.21540   0.05200   0.07280   0.01267  Uiso   1.00
O54    O     0.08920   0.03400   0.13240   0.01267  Uiso   1.00
O55    O     0.23310   0.06450   0.18480   0.01267  Uiso   1.00
O56    O     0.29310   0.93830   0.18920   0.01267  Uiso   1.00
O57    O     0.39020   0.97320   0.11780   0.01267  Uiso   1.00
O58    O     0.26200   0.94160   0.06240   0.01267  Uiso   1.00
O59    O     0.15630   0.91960   0.13100   0.01267  Uiso   1.00
O60    O     0.25410   0.19510   0.07570   0.01267  Uiso   1.00
O61    O     0.35490   0.13350   0.02730   0.01267  Uiso   1.00
O62    O     0.56660   0.34420   0.91740   0.01267  Uiso   1.00
O63    O     0.51420   0.44120   0.95300   0.01267  Uiso   1.00
O64    O     0.91680   0.65600   0.32120   0.01267  Uiso   1.00
O65    O     0.94570   0.56490   0.27540   0.01267  Uiso   1.00
O66    O     0.27130   0.19730   0.17020   0.01267  Uiso   1.00
O67    O     0.39120   0.13780   0.20820   0.01267  Uiso   1.00
O68    O     0.19700   0.98890   0.26780   0.01267  Uiso   1.00
O69    O     0.36000   0.02400   0.25640   0.01267  Uiso   1.00
O70    O     0.36820   0.01840   0.49480   0.01267  Uiso   1.00
O71    O     0.20770   0.98350   0.48350   0.01267  Uiso   1.00
O72    O     0.51550   0.44640   0.29710   0.01267  Uiso   1.00
O73    O     0.56900   0.35050   0.33240   0.01267  Uiso   1.00
O74    O     0.94480   0.55500   0.97220   0.01267  Uiso   1.00
O75    O     0.91520   0.65170   0.92840   0.01267  Uiso   1.00
O76    O     0.10530   0.86580   0.04330   0.01267  Uiso   1.00
O77    O     0.22350   0.80780   0.08180   0.01267  Uiso   1.00
O78    O     0.13680   0.87080   0.22160   0.01267  Uiso   1.00
O79    O     0.23990   0.80930   0.17380   0.01267  Uiso   1.00
H80    H     0.68479   0.40989   0.28778   0.01267  Uiso   1.00
H81    H     0.72306   0.40709   0.45845   0.01267  Uiso   1.00
H82    H     0.98471   0.53400   0.36760   0.01267  Uiso   1.00
H83    H     0.58100   0.62320   0.38745   0.01267  Uiso   1.00
Hf84   Hf    0.30661   0.87827   0.62602   0.01267  Uiso   1.00
Hf85   Hf    0.19563   0.11679   0.62423   0.01267  Uiso   1.00
Hf86   Hf    0.35669   0.02165   0.69439   0.01267  Uiso   1.00
Hf87   Hf    0.11256   0.96843   0.67989   0.01267  Uiso   1.00
Hf88   Hf    0.14414   0.97265   0.55516   0.01267  Uiso   1.00
Hf89   Hf    0.38738   0.02577   0.57166   0.01267  Uiso   1.00
H90    H     0.21970   0.67250   0.69300   0.01267  Uiso   1.00
H91    H     0.12700   0.58450   0.73290   0.01267  Uiso   1.00
H92    H     0.21250   0.67170   0.56010   0.01267  Uiso   1.00
H93    H     0.11560   0.58720   0.51630   0.01267  Uiso   1.00
H94    H     0.31080   0.32830   0.57070   0.01267  Uiso   1.00
H95    H     0.41320   0.41150   0.53250   0.01267  Uiso   1.00
H96    H     0.30600   0.31930   0.67920   0.01267  Uiso   1.00
H97    H     0.39730   0.40910   0.72140   0.01267  Uiso   1.00
H98    H     0.04210   0.97190   0.83220   0.01267  Uiso   1.00
H99    H     0.04010   0.96040   0.91740   0.01267  Uiso   1.00
C100   C     0.15990   0.80690   0.69710   0.01267  Uiso   1.00
C101   C     0.12770   0.74380   0.72070   0.01267  Uiso   1.00
C102   C     0.16600   0.68080   0.71270   0.01267  Uiso   1.00
C103   C     0.11600   0.63050   0.73750   0.01267  Uiso   1.00
C104   C     0.04630   0.65540   0.77010   0.01267  Uiso   1.00
C105   C     0.98200   0.61590   0.80230   0.01267  Uiso   1.00
C106   C     0.18100   0.81390   0.54420   0.01267  Uiso   1.00
C107   C     0.14600   0.74790   0.52090   0.01267  Uiso   1.00
C108   C     0.16800   0.68220   0.53630   0.01267  Uiso   1.00
C109   C     0.11100   0.63300   0.51050   0.01267  Uiso   1.00
C110   C     0.05300   0.65840   0.47820   0.01267  Uiso   1.00
C111   C     0.98350   0.62190   0.44720   0.01267  Uiso   1.00
C112   C     0.34880   0.18340   0.55580   0.01267  Uiso   1.00
C113   C     0.38530   0.25150   0.53480   0.01267  Uiso   1.00
C114   C     0.36000   0.31790   0.54880   0.01267  Uiso   1.00
C115   C     0.41700   0.36550   0.52540   0.01267  Uiso   1.00
C116   C     0.47700   0.34230   0.49280   0.01267  Uiso   1.00
C117   C     0.54380   0.38190   0.46130   0.01267  Uiso   1.00
C118   C     0.32860   0.18550   0.70380   0.01267  Uiso   1.00
C119   C     0.37100   0.24950   0.72120   0.01267  Uiso   1.00
C120   C     0.35000   0.31130   0.70370   0.01267  Uiso   1.00
C121   C     0.40500   0.36290   0.72700   0.01267  Uiso   1.00
C122   C     0.46800   0.33610   0.75820   0.01267  Uiso   1.00
C123   C     0.54200   0.37520   0.78680   0.01267  Uiso   1.00
C124   C     0.20770   0.99130   0.77960   0.01267  Uiso   1.00
C125   C     0.19000   0.98990   0.83060   0.01267  Uiso   1.00
C126   C     0.09800   0.97700   0.85060   0.01267  Uiso   1.00
C127   C     0.09500   0.97300   0.89980   0.01267  Uiso   1.00
C128   C     0.18620   0.99160   0.91870   0.01267  Uiso   1.00
C129   C     0.20810   0.99830   0.97040   0.01267  Uiso   1.00
S130   S     0.03970   0.74370   0.76580   0.01267  Uiso   1.00
S131   S     0.05940   0.74670   0.47770   0.01267  Uiso   1.00
S132   S     0.47500   0.25470   0.49250   0.01267  Uiso   1.00
S133   S     0.45890   0.25050   0.76480   0.01267  Uiso   1.00
S134   S     0.27370   0.00600   0.87580   0.01267  Uiso   1.00
O135   O     0.14730   0.90720   0.61980   0.01267  Uiso   1.00
O136   O     0.28460   0.94800   0.57280   0.01267  Uiso   1.00
O137   O     0.41080   0.96600   0.63240   0.01267  Uiso   1.00
O138   O     0.26690   0.93550   0.68480   0.01267  Uiso   1.00
O139   O     0.20690   0.06170   0.68920   0.01267  Uiso   1.00
O140   O     0.10980   0.02680   0.61780   0.01267  Uiso   1.00
O141   O     0.23800   0.05840   0.56240   0.01267  Uiso   1.00
O142   O     0.34370   0.08040   0.63100   0.01267  Uiso   1.00
O143   O     0.24590   0.80490   0.57570   0.01267  Uiso   1.00
O144   O     0.14510   0.86650   0.52730   0.01267  Uiso   1.00
O145   O     0.93340   0.65580   0.41740   0.01267  Uiso   1.00
O146   O     0.98580   0.55880   0.45300   0.01267  Uiso   1.00
O147   O     0.58320   0.34400   0.82120   0.01267  Uiso   1.00
O148   O     0.55430   0.43510   0.77540   0.01267  Uiso   1.00
O149   O     0.22870   0.80270   0.67020   0.01267  Uiso   1.00
O150   O     0.10880   0.86220   0.70820   0.01267  Uiso   1.00
O151   O     0.30300   0.01110   0.76780   0.01267  Uiso   1.00
O152   O     0.14000   0.97600   0.75640   0.01267  Uiso   1.00
O153   O     0.13180   0.98160   0.99480   0.01267  Uiso   1.00
O154   O     0.29230   0.01650   0.98350   0.01267  Uiso   1.00
O155   O     0.98450   0.55360   0.79710   0.01267  Uiso   1.00
O156   O     0.93100   0.64950   0.83240   0.01267  Uiso   1.00
O157   O     0.55520   0.44500   0.47220   0.01267  Uiso   1.00
O158   O     0.58480   0.34830   0.42840   0.01267  Uiso   1.00
O159   O     0.39470   0.13420   0.54330   0.01267  Uiso   1.00
O160   O     0.27650   0.19220   0.58180   0.01267  Uiso   1.00
O161   O     0.36320   0.12920   0.72160   0.01267  Uiso   1.00
O162   O     0.26010   0.19070   0.67380   0.01267  Uiso   1.00
H163   H     0.81521   0.59011   0.78778   0.01267  Uiso   1.00
H164   H     0.77694   0.59291   0.95845   0.01267  Uiso   1.00
H165   H     0.51529   0.46600   0.86760   0.01267  Uiso   1.00
H166   H     0.91900   0.37680   0.88745   0.01267  Uiso   1.00
Hf167  Hf    0.80661   0.62173   0.37398   0.01267  Uiso   1.00
Hf168  Hf    0.69563   0.38321   0.37577   0.01267  Uiso   1.00
Hf169  Hf    0.85669   0.47835   0.30561   0.01267  Uiso   1.00
Hf170  Hf    0.61256   0.53157   0.32011   0.01267  Uiso   1.00
Hf171  Hf    0.64414   0.52735   0.44484   0.01267  Uiso   1.00
Hf172  Hf    0.88738   0.47423   0.42834   0.01267  Uiso   1.00
H173   H     0.71970   0.82750   0.30700   0.01267  Uiso   1.00
H174   H     0.62700   0.91550   0.26710   0.01267  Uiso   1.00
H175   H     0.71250   0.82830   0.43990   0.01267  Uiso   1.00
H176   H     0.61560   0.91280   0.48370   0.01267  Uiso   1.00
H177   H     0.81080   0.17170   0.42930   0.01267  Uiso   1.00
H178   H     0.91320   0.08850   0.46750   0.01267  Uiso   1.00
H179   H     0.80600   0.18070   0.32080   0.01267  Uiso   1.00
H180   H     0.89730   0.09090   0.27860   0.01267  Uiso   1.00
H181   H     0.54210   0.52810   0.16780   0.01267  Uiso   1.00
H182   H     0.54010   0.53960   0.08260   0.01267  Uiso   1.00
C183   C     0.65990   0.69310   0.30290   0.01267  Uiso   1.00
C184   C     0.62770   0.75620   0.27930   0.01267  Uiso   1.00
C185   C     0.66600   0.81920   0.28730   0.01267  Uiso   1.00
C186   C     0.61600   0.86950   0.26250   0.01267  Uiso   1.00
C187   C     0.54630   0.84460   0.22990   0.01267  Uiso   1.00
C188   C     0.48200   0.88410   0.19770   0.01267  Uiso   1.00
C189   C     0.68100   0.68610   0.45580   0.01267  Uiso   1.00
C190   C     0.64600   0.75210   0.47910   0.01267  Uiso   1.00
C191   C     0.66800   0.81780   0.46370   0.01267  Uiso   1.00
C192   C     0.61100   0.86700   0.48950   0.01267  Uiso   1.00
C193   C     0.55300   0.84160   0.52180   0.01267  Uiso   1.00
C194   C     0.48350   0.87810   0.55280   0.01267  Uiso   1.00
C195   C     0.84880   0.31660   0.44420   0.01267  Uiso   1.00
C196   C     0.88530   0.24850   0.46520   0.01267  Uiso   1.00
C197   C     0.86000   0.18210   0.45120   0.01267  Uiso   1.00
C198   C     0.91700   0.13450   0.47460   0.01267  Uiso   1.00
C199   C     0.97700   0.15770   0.50720   0.01267  Uiso   1.00
C200   C     0.04380   0.11810   0.53870   0.01267  Uiso   1.00
C201   C     0.82860   0.31450   0.29620   0.01267  Uiso   1.00
C202   C     0.87100   0.25050   0.27880   0.01267  Uiso   1.00
C203   C     0.85000   0.18870   0.29630   0.01267  Uiso   1.00
C204   C     0.90500   0.13710   0.27300   0.01267  Uiso   1.00
C205   C     0.96800   0.16390   0.24180   0.01267  Uiso   1.00
C206   C     0.04200   0.12480   0.21320   0.01267  Uiso   1.00
C207   C     0.70770   0.50870   0.22040   0.01267  Uiso   1.00
C208   C     0.69000   0.51010   0.16940   0.01267  Uiso   1.00
C209   C     0.59800   0.52300   0.14940   0.01267  Uiso   1.00
C210   C     0.59500   0.52700   0.10020   0.01267  Uiso   1.00
C211   C     0.68620   0.50840   0.08130   0.01267  Uiso   1.00
C212   C     0.70810   0.50170   0.02960   0.01267  Uiso   1.00
S213   S     0.53970   0.75630   0.23420   0.01267  Uiso   1.00
S214   S     0.55940   0.75330   0.52230   0.01267  Uiso   1.00
S215   S     0.97500   0.24530   0.50750   0.01267  Uiso   1.00
S216   S     0.95890   0.24950   0.23520   0.01267  Uiso   1.00
S217   S     0.77370   0.49400   0.12420   0.01267  Uiso   1.00
O218   O     0.64730   0.59280   0.38020   0.01267  Uiso   1.00
O219   O     0.78460   0.55200   0.42720   0.01267  Uiso   1.00
O220   O     0.91080   0.53400   0.36760   0.01267  Uiso   1.00
O221   O     0.76690   0.56450   0.31520   0.01267  Uiso   1.00
O222   O     0.70690   0.43830   0.31080   0.01267  Uiso   1.00
O223   O     0.60980   0.47320   0.38220   0.01267  Uiso   1.00
O224   O     0.73800   0.44160   0.43760   0.01267  Uiso   1.00
O225   O     0.84370   0.41960   0.36900   0.01267  Uiso   1.00
O226   O     0.74590   0.69510   0.42430   0.01267  Uiso   1.00
O227   O     0.64510   0.63350   0.47270   0.01267  Uiso   1.00
O228   O     0.43340   0.84420   0.58260   0.01267  Uiso   1.00
O229   O     0.48580   0.94120   0.54700   0.01267  Uiso   1.00
O230   O     0.08320   0.15600   0.17880   0.01267  Uiso   1.00
O231   O     0.05430   0.06490   0.22460   0.01267  Uiso   1.00
O232   O     0.72870   0.69730   0.32980   0.01267  Uiso   1.00
O233   O     0.60880   0.63780   0.29180   0.01267  Uiso   1.00
O234   O     0.80300   0.48890   0.23220   0.01267  Uiso   1.00
O235   O     0.64000   0.52400   0.24360   0.01267  Uiso   1.00
O236   O     0.63180   0.51840   0.00520   0.01267  Uiso   1.00
O237   O     0.79230   0.48350   0.01650   0.01267  Uiso   1.00
O238   O     0.48450   0.94640   0.20290   0.01267  Uiso   1.00
O239   O     0.43100   0.85050   0.16760   0.01267  Uiso   1.00
O240   O     0.05520   0.05500   0.52780   0.01267  Uiso   1.00
O241   O     0.08480   0.15170   0.57160   0.01267  Uiso   1.00
O242   O     0.89470   0.36580   0.45670   0.01267  Uiso   1.00
O243   O     0.77650   0.30780   0.41820   0.01267  Uiso   1.00
O244   O     0.86320   0.37080   0.27840   0.01267  Uiso   1.00
O245   O     0.76010   0.30930   0.32620   0.01267  Uiso   1.00
H246   H     0.31521   0.90989   0.21222   0.01267  Uiso   1.00
H247   H     0.27694   0.90709   0.04155   0.01267  Uiso   1.00
H248   H     0.01529   0.03400   0.13240   0.01267  Uiso   1.00
H249   H     0.41900   0.12320   0.11255   0.01267  Uiso   1.00
Hf250  Hf    0.69339   0.37827   0.87398   0.01267  Uiso   1.00
Hf251  Hf    0.80437   0.61679   0.87577   0.01267  Uiso   1.00
Hf252  Hf    0.64331   0.52165   0.80561   0.01267  Uiso   1.00
Hf253  Hf    0.88744   0.46843   0.82011   0.01267  Uiso   1.00
Hf254  Hf    0.85586   0.47265   0.94484   0.01267  Uiso   1.00
Hf255  Hf    0.61262   0.52577   0.92834   0.01267  Uiso   1.00
H256   H     0.78030   0.17250   0.80700   0.01267  Uiso   1.00
H257   H     0.87300   0.08450   0.76710   0.01267  Uiso   1.00
H258   H     0.78750   0.17170   0.93990   0.01267  Uiso   1.00
H259   H     0.88440   0.08720   0.98370   0.01267  Uiso   1.00
H260   H     0.68920   0.82830   0.92930   0.01267  Uiso   1.00
H261   H     0.58680   0.91150   0.96750   0.01267  Uiso   1.00
H262   H     0.69400   0.81930   0.82080   0.01267  Uiso   1.00
H263   H     0.60270   0.90910   0.77860   0.01267  Uiso   1.00
H264   H     0.95790   0.47190   0.66780   0.01267  Uiso   1.00
H265   H     0.95990   0.46040   0.58260   0.01267  Uiso   1.00
C266   C     0.84010   0.30690   0.80290   0.01267  Uiso   1.00
C267   C     0.87230   0.24380   0.77930   0.01267  Uiso   1.00
C268   C     0.83400   0.18080   0.78730   0.01267  Uiso   1.00
C269   C     0.88400   0.13050   0.76250   0.01267  Uiso   1.00
C270   C     0.95370   0.15540   0.72990   0.01267  Uiso   1.00
C271   C     0.01800   0.11590   0.69770   0.01267  Uiso   1.00
C272   C     0.81900   0.31390   0.95580   0.01267  Uiso   1.00
C273   C     0.85400   0.24790   0.97910   0.01267  Uiso   1.00
C274   C     0.83200   0.18220   0.96370   0.01267  Uiso   1.00
C275   C     0.88900   0.13300   0.98950   0.01267  Uiso   1.00
C276   C     0.94700   0.15840   0.02180   0.01267  Uiso   1.00
C277   C     0.01650   0.12190   0.05280   0.01267  Uiso   1.00
C278   C     0.65120   0.68340   0.94420   0.01267  Uiso   1.00
C279   C     0.61470   0.75150   0.96520   0.01267  Uiso   1.00
C280   C     0.64000   0.81790   0.95120   0.01267  Uiso   1.00
C281   C     0.58300   0.86550   0.97460   0.01267  Uiso   1.00
C282   C     0.52300   0.84230   0.00720   0.01267  Uiso   1.00
C283   C     0.45620   0.88190   0.03870   0.01267  Uiso   1.00
C284   C     0.67140   0.68550   0.79620   0.01267  Uiso   1.00
C285   C     0.62900   0.74950   0.77880   0.01267  Uiso   1.00
C286   C     0.65000   0.81130   0.79630   0.01267  Uiso   1.00
C287   C     0.59500   0.86290   0.77300   0.01267  Uiso   1.00
C288   C     0.53200   0.83610   0.74180   0.01267  Uiso   1.00
C289   C     0.45800   0.87520   0.71320   0.01267  Uiso   1.00
C290   C     0.79230   0.49130   0.72040   0.01267  Uiso   1.00
C291   C     0.81000   0.48990   0.66940   0.01267  Uiso   1.00
C292   C     0.90200   0.47700   0.64940   0.01267  Uiso   1.00
C293   C     0.90500   0.47300   0.60020   0.01267  Uiso   1.00
C294   C     0.81380   0.49160   0.58130   0.01267  Uiso   1.00
C295   C     0.79190   0.49830   0.52960   0.01267  Uiso   1.00
S296   S     0.96030   0.24370   0.73420   0.01267  Uiso   1.00
S297   S     0.94060   0.24670   0.02230   0.01267  Uiso   1.00
S298   S     0.52500   0.75470   0.00750   0.01267  Uiso   1.00
S299   S     0.54110   0.75050   0.73520   0.01267  Uiso   1.00
S300   S     0.72630   0.50600   0.62420   0.01267  Uiso   1.00
O301   O     0.85270   0.40720   0.88020   0.01267  Uiso   1.00
O302   O     0.71540   0.44800   0.92720   0.01267  Uiso   1.00
O303   O     0.58920   0.46600   0.86760   0.01267  Uiso   1.00
O304   O     0.73310   0.43550   0.81520   0.01267  Uiso   1.00
O305   O     0.79310   0.56170   0.81080   0.01267  Uiso   1.00
O306   O     0.89020   0.52680   0.88220   0.01267  Uiso   1.00
O307   O     0.76200   0.55840   0.93760   0.01267  Uiso   1.00
O308   O     0.65630   0.58040   0.86900   0.01267  Uiso   1.00
O309   O     0.75410   0.30490   0.92430   0.01267  Uiso   1.00
O310   O     0.85490   0.36650   0.97270   0.01267  Uiso   1.00
O311   O     0.06660   0.15580   0.08260   0.01267  Uiso   1.00
O312   O     0.01420   0.05880   0.04700   0.01267  Uiso   1.00
O313   O     0.41680   0.84400   0.67880   0.01267  Uiso   1.00
O314   O     0.44570   0.93510   0.72460   0.01267  Uiso   1.00
O315   O     0.77130   0.30270   0.82980   0.01267  Uiso   1.00
O316   O     0.89120   0.36220   0.79180   0.01267  Uiso   1.00
O317   O     0.69700   0.51110   0.73220   0.01267  Uiso   1.00
O318   O     0.86000   0.47600   0.74360   0.01267  Uiso   1.00
O319   O     0.86820   0.48160   0.50520   0.01267  Uiso   1.00
O320   O     0.70770   0.51650   0.51650   0.01267  Uiso   1.00
O321   O     0.01550   0.05360   0.70290   0.01267  Uiso   1.00
O322   O     0.06900   0.14950   0.66760   0.01267  Uiso   1.00
O323   O     0.44480   0.94500   0.02780   0.01267  Uiso   1.00
O324   O     0.41520   0.84830   0.07160   0.01267  Uiso   1.00
O325   O     0.60530   0.63420   0.95670   0.01267  Uiso   1.00
O326   O     0.72350   0.69220   0.91820   0.01267  Uiso   1.00
O327   O     0.63680   0.62920   0.77840   0.01267  Uiso   1.00
O328   O     0.73990   0.69070   0.82620   0.01267  Uiso   1.00
H329   H     0.18479   0.09011   0.71222   0.01267  Uiso   1.00
H330   H     0.22306   0.09291   0.54155   0.01267  Uiso   1.00
H331   H     0.48471   0.96600   0.63240   0.01267  Uiso   1.00
H332   H     0.08100   0.87680   0.61255   0.01267  Uiso   1.00
