data_XICZAM_clean
_audit_creation_date              2014-07-02
_audit_creation_method            'Materials Studio'
_symmetry_space_group_name_H-M    'P1'
_symmetry_Int_Tables_number       1
_symmetry_cell_setting            triclinic
loop_
_symmetry_equiv_pos_as_xyz
  x,y,z
_cell_length_a                    27.5842
_cell_length_b                    27.5842
_cell_length_c                    27.5842
_cell_angle_alpha                 60.0000
_cell_angle_beta                  60.0000
_cell_angle_gamma                 60.0000
loop_
_atom_site_label
_atom_site_type_symbol
_atom_site_fract_x
_atom_site_fract_y
_atom_site_fract_z
_atom_site_U_iso_or_equiv
_atom_site_adp_type
_atom_site_occupancy
Hf1    Hf    0.51836   0.04512   0.04512   0.01267  Uiso   1.00
Hf2    Hf    0.04513   0.51835   0.39140   0.01267  Uiso   1.00
Hf3    Hf    0.04513   0.39140   0.51835   0.01267  Uiso   1.00
Hf4    Hf    0.39141   0.04512   0.04512   0.01267  Uiso   1.00
Hf5    Hf    0.51836   0.04512   0.39140   0.01267  Uiso   1.00
Hf6    Hf    0.04513   0.39140   0.04512   0.01267  Uiso   1.00
Hf7    Hf    0.04513   0.51835   0.04512   0.01267  Uiso   1.00
Hf8    Hf    0.39141   0.04512   0.51835   0.01267  Uiso   1.00
Hf9    Hf    0.51836   0.39140   0.04512   0.01267  Uiso   1.00
Hf10   Hf    0.04513   0.04512   0.51835   0.01267  Uiso   1.00
Hf11   Hf    0.04513   0.04512   0.39140   0.01267  Uiso   1.00
Hf12   Hf    0.39141   0.51835   0.04512   0.01267  Uiso   1.00
Hf13   Hf    0.95487   0.48165   0.95488   0.01267  Uiso   1.00
Hf14   Hf    0.48164   0.95488   0.60860   0.01267  Uiso   1.00
Hf15   Hf    0.60859   0.95488   0.48165   0.01267  Uiso   1.00
Hf16   Hf    0.95487   0.60860   0.95488   0.01267  Uiso   1.00
Hf17   Hf    0.95487   0.48165   0.60860   0.01267  Uiso   1.00
Hf18   Hf    0.60859   0.95488   0.95488   0.01267  Uiso   1.00
Hf19   Hf    0.48164   0.95488   0.95488   0.01267  Uiso   1.00
Hf20   Hf    0.95487   0.60860   0.48165   0.01267  Uiso   1.00
Hf21   Hf    0.60859   0.48165   0.95488   0.01267  Uiso   1.00
Hf22   Hf    0.95487   0.95488   0.48165   0.01267  Uiso   1.00
Hf23   Hf    0.95487   0.95488   0.60860   0.01267  Uiso   1.00
Hf24   Hf    0.48164   0.60860   0.95488   0.01267  Uiso   1.00
Hf25   Hf    0.50000   0.91091   0.08909   0.01267  Uiso   1.00
Hf26   Hf    0.91091   0.50000   0.50000   0.01267  Uiso   1.00
Hf27   Hf    0.08909   0.50000   0.50000   0.01267  Uiso   1.00
Hf28   Hf    0.50000   0.08909   0.91091   0.01267  Uiso   1.00
Hf29   Hf    0.50000   0.08909   0.50000   0.01267  Uiso   1.00
Hf30   Hf    0.91091   0.50000   0.08909   0.01267  Uiso   1.00
Hf31   Hf    0.08909   0.50000   0.91091   0.01267  Uiso   1.00
Hf32   Hf    0.50000   0.91091   0.50000   0.01267  Uiso   1.00
Hf33   Hf    0.50000   0.50000   0.91091   0.01267  Uiso   1.00
Hf34   Hf    0.91091   0.08909   0.50000   0.01267  Uiso   1.00
Hf35   Hf    0.08909   0.91091   0.50000   0.01267  Uiso   1.00
Hf36   Hf    0.50000   0.50000   0.08909   0.01267  Uiso   1.00
H1     H     0.63220   0.72060   0.15720   0.01267  Uiso   1.00
H2     H     0.72060   0.63220   0.49000   0.01267  Uiso   1.00
H3     H     0.15720   0.49000   0.63220   0.01267  Uiso   1.00
H4     H     0.49000   0.15720   0.72060   0.01267  Uiso   1.00
H5     H     0.63220   0.15720   0.49000   0.01267  Uiso   1.00
H6     H     0.72060   0.49000   0.15720   0.01267  Uiso   1.00
H7     H     0.15720   0.63220   0.72060   0.01267  Uiso   1.00
H8     H     0.49000   0.72060   0.63220   0.01267  Uiso   1.00
H9     H     0.63220   0.49000   0.72060   0.01267  Uiso   1.00
H10    H     0.72060   0.15720   0.63220   0.01267  Uiso   1.00
H11    H     0.15720   0.72060   0.49000   0.01267  Uiso   1.00
H12    H     0.49000   0.63220   0.15720   0.01267  Uiso   1.00
H13    H     0.27940   0.36780   0.84280   0.01267  Uiso   1.00
H14    H     0.36780   0.27940   0.51000   0.01267  Uiso   1.00
H15    H     0.51000   0.84280   0.36780   0.01267  Uiso   1.00
H16    H     0.84280   0.51000   0.27940   0.01267  Uiso   1.00
H17    H     0.84280   0.36780   0.51000   0.01267  Uiso   1.00
H18    H     0.51000   0.27940   0.84280   0.01267  Uiso   1.00
H19    H     0.36780   0.84280   0.27940   0.01267  Uiso   1.00
H20    H     0.27940   0.51000   0.36780   0.01267  Uiso   1.00
H21    H     0.51000   0.36780   0.27940   0.01267  Uiso   1.00
H22    H     0.84280   0.27940   0.36780   0.01267  Uiso   1.00
H23    H     0.27940   0.84280   0.51000   0.01267  Uiso   1.00
H24    H     0.36780   0.51000   0.84280   0.01267  Uiso   1.00
H25    H     0.36780   0.27940   0.84280   0.01267  Uiso   1.00
H26    H     0.27940   0.36780   0.51000   0.01267  Uiso   1.00
H27    H     0.84280   0.51000   0.36780   0.01267  Uiso   1.00
H28    H     0.51000   0.84280   0.27940   0.01267  Uiso   1.00
H29    H     0.36780   0.84280   0.51000   0.01267  Uiso   1.00
H30    H     0.27940   0.51000   0.84280   0.01267  Uiso   1.00
H31    H     0.84280   0.36780   0.27940   0.01267  Uiso   1.00
H32    H     0.51000   0.27940   0.36780   0.01267  Uiso   1.00
H33    H     0.36780   0.51000   0.27940   0.01267  Uiso   1.00
H34    H     0.27940   0.84280   0.36780   0.01267  Uiso   1.00
H35    H     0.84280   0.27940   0.51000   0.01267  Uiso   1.00
H36    H     0.51000   0.36780   0.84280   0.01267  Uiso   1.00
H37    H     0.72060   0.63220   0.15720   0.01267  Uiso   1.00
H38    H     0.63220   0.72060   0.49000   0.01267  Uiso   1.00
H39    H     0.49000   0.15720   0.63220   0.01267  Uiso   1.00
H40    H     0.15720   0.49000   0.72060   0.01267  Uiso   1.00
H41    H     0.15720   0.63220   0.49000   0.01267  Uiso   1.00
H42    H     0.49000   0.72060   0.15720   0.01267  Uiso   1.00
H43    H     0.63220   0.15720   0.72060   0.01267  Uiso   1.00
H44    H     0.72060   0.49000   0.63220   0.01267  Uiso   1.00
H45    H     0.49000   0.63220   0.72060   0.01267  Uiso   1.00
H46    H     0.15720   0.72060   0.63220   0.01267  Uiso   1.00
H47    H     0.72060   0.15720   0.49000   0.01267  Uiso   1.00
H48    H     0.63220   0.49000   0.15720   0.01267  Uiso   1.00
C1     C     0.63419   0.82653   0.05893   0.01267  Uiso   1.00
C2     C     0.67760   0.76600   0.07620   0.01267  Uiso   1.00
C3     C     0.66840   0.71920   0.12620   0.01267  Uiso   1.00
C4     C     0.82653   0.63419   0.48035   0.01267  Uiso   1.00
C5     C     0.76600   0.67760   0.48020   0.01267  Uiso   1.00
C6     C     0.71920   0.66840   0.48620   0.01267  Uiso   1.00
C7     C     0.05893   0.48035   0.63419   0.01267  Uiso   1.00
C8     C     0.07620   0.48020   0.67760   0.01267  Uiso   1.00
C9     C     0.12620   0.48620   0.66840   0.01267  Uiso   1.00
C10    C     0.48035   0.05893   0.82653   0.01267  Uiso   1.00
C11    C     0.48020   0.07620   0.76600   0.01267  Uiso   1.00
C12    C     0.48620   0.12620   0.71920   0.01267  Uiso   1.00
C13    C     0.63419   0.05893   0.48035   0.01267  Uiso   1.00
C14    C     0.67760   0.07620   0.48020   0.01267  Uiso   1.00
C15    C     0.66840   0.12620   0.48620   0.01267  Uiso   1.00
C16    C     0.82653   0.48035   0.05893   0.01267  Uiso   1.00
C17    C     0.76600   0.48020   0.07620   0.01267  Uiso   1.00
C18    C     0.71920   0.48620   0.12620   0.01267  Uiso   1.00
C19    C     0.05893   0.63419   0.82653   0.01267  Uiso   1.00
C20    C     0.07620   0.67760   0.76600   0.01267  Uiso   1.00
C21    C     0.12620   0.66840   0.71920   0.01267  Uiso   1.00
C22    C     0.48035   0.82653   0.63419   0.01267  Uiso   1.00
C23    C     0.48020   0.76600   0.67760   0.01267  Uiso   1.00
C24    C     0.48620   0.71920   0.66840   0.01267  Uiso   1.00
C25    C     0.63419   0.48035   0.82653   0.01267  Uiso   1.00
C26    C     0.67760   0.48020   0.76600   0.01267  Uiso   1.00
C27    C     0.66840   0.48620   0.71920   0.01267  Uiso   1.00
C28    C     0.82653   0.05893   0.63419   0.01267  Uiso   1.00
C29    C     0.76600   0.07620   0.67760   0.01267  Uiso   1.00
C30    C     0.71920   0.12620   0.66840   0.01267  Uiso   1.00
C31    C     0.05893   0.82653   0.48035   0.01267  Uiso   1.00
C32    C     0.07620   0.76600   0.48020   0.01267  Uiso   1.00
C33    C     0.12620   0.71920   0.48620   0.01267  Uiso   1.00
C34    C     0.48035   0.63419   0.05893   0.01267  Uiso   1.00
C35    C     0.48020   0.67760   0.07620   0.01267  Uiso   1.00
C36    C     0.48620   0.66840   0.12620   0.01267  Uiso   1.00
C37    C     0.17347   0.36581   0.94107   0.01267  Uiso   1.00
C38    C     0.23400   0.32240   0.92380   0.01267  Uiso   1.00
C39    C     0.28080   0.33160   0.87380   0.01267  Uiso   1.00
C40    C     0.36581   0.17347   0.51965   0.01267  Uiso   1.00
C41    C     0.32240   0.23400   0.51980   0.01267  Uiso   1.00
C42    C     0.33160   0.28080   0.51380   0.01267  Uiso   1.00
C43    C     0.51965   0.94107   0.36581   0.01267  Uiso   1.00
C44    C     0.51980   0.92380   0.32240   0.01267  Uiso   1.00
C45    C     0.51380   0.87380   0.33160   0.01267  Uiso   1.00
C46    C     0.94107   0.51965   0.17347   0.01267  Uiso   1.00
C47    C     0.92380   0.51980   0.23400   0.01267  Uiso   1.00
C48    C     0.87380   0.51380   0.28080   0.01267  Uiso   1.00
C49    C     0.94107   0.36581   0.51965   0.01267  Uiso   1.00
C50    C     0.92380   0.32240   0.51980   0.01267  Uiso   1.00
C51    C     0.87380   0.33160   0.51380   0.01267  Uiso   1.00
C52    C     0.51965   0.17347   0.94107   0.01267  Uiso   1.00
C53    C     0.51980   0.23400   0.92380   0.01267  Uiso   1.00
C54    C     0.51380   0.28080   0.87380   0.01267  Uiso   1.00
C55    C     0.36581   0.94107   0.17347   0.01267  Uiso   1.00
C56    C     0.32240   0.92380   0.23400   0.01267  Uiso   1.00
C57    C     0.33160   0.87380   0.28080   0.01267  Uiso   1.00
C58    C     0.17347   0.51965   0.36581   0.01267  Uiso   1.00
C59    C     0.23400   0.51980   0.32240   0.01267  Uiso   1.00
C60    C     0.28080   0.51380   0.33160   0.01267  Uiso   1.00
C61    C     0.51965   0.36581   0.17347   0.01267  Uiso   1.00
C62    C     0.51980   0.32240   0.23400   0.01267  Uiso   1.00
C63    C     0.51380   0.33160   0.28080   0.01267  Uiso   1.00
C64    C     0.94107   0.17347   0.36581   0.01267  Uiso   1.00
C65    C     0.92380   0.23400   0.32240   0.01267  Uiso   1.00
C66    C     0.87380   0.28080   0.33160   0.01267  Uiso   1.00
C67    C     0.17347   0.94107   0.51965   0.01267  Uiso   1.00
C68    C     0.23400   0.92380   0.51980   0.01267  Uiso   1.00
C69    C     0.28080   0.87380   0.51380   0.01267  Uiso   1.00
C70    C     0.36581   0.51965   0.94107   0.01267  Uiso   1.00
C71    C     0.32240   0.51980   0.92380   0.01267  Uiso   1.00
C72    C     0.33160   0.51380   0.87380   0.01267  Uiso   1.00
C73    C     0.36581   0.17347   0.94107   0.01267  Uiso   1.00
C74    C     0.32240   0.23400   0.92380   0.01267  Uiso   1.00
C75    C     0.33160   0.28080   0.87380   0.01267  Uiso   1.00
C76    C     0.17347   0.36581   0.51965   0.01267  Uiso   1.00
C77    C     0.23400   0.32240   0.51980   0.01267  Uiso   1.00
C78    C     0.28080   0.33160   0.51380   0.01267  Uiso   1.00
C79    C     0.94107   0.51965   0.36581   0.01267  Uiso   1.00
C80    C     0.92380   0.51980   0.32240   0.01267  Uiso   1.00
C81    C     0.87380   0.51380   0.33160   0.01267  Uiso   1.00
C82    C     0.51965   0.94107   0.17347   0.01267  Uiso   1.00
C83    C     0.51980   0.92380   0.23400   0.01267  Uiso   1.00
C84    C     0.51380   0.87380   0.28080   0.01267  Uiso   1.00
C85    C     0.36581   0.94107   0.51965   0.01267  Uiso   1.00
C86    C     0.32240   0.92380   0.51980   0.01267  Uiso   1.00
C87    C     0.33160   0.87380   0.51380   0.01267  Uiso   1.00
C88    C     0.17347   0.51965   0.94107   0.01267  Uiso   1.00
C89    C     0.23400   0.51980   0.92380   0.01267  Uiso   1.00
C90    C     0.28080   0.51380   0.87380   0.01267  Uiso   1.00
C91    C     0.94107   0.36581   0.17347   0.01267  Uiso   1.00
C92    C     0.92380   0.32240   0.23400   0.01267  Uiso   1.00
C93    C     0.87380   0.33160   0.28080   0.01267  Uiso   1.00
C94    C     0.51965   0.17347   0.36581   0.01267  Uiso   1.00
C95    C     0.51980   0.23400   0.32240   0.01267  Uiso   1.00
C96    C     0.51380   0.28080   0.33160   0.01267  Uiso   1.00
C97    C     0.36581   0.51965   0.17347   0.01267  Uiso   1.00
C98    C     0.32240   0.51980   0.23400   0.01267  Uiso   1.00
C99    C     0.33160   0.51380   0.28080   0.01267  Uiso   1.00
C100   C     0.17347   0.94107   0.36581   0.01267  Uiso   1.00
C101   C     0.23400   0.92380   0.32240   0.01267  Uiso   1.00
C102   C     0.28080   0.87380   0.33160   0.01267  Uiso   1.00
C103   C     0.94107   0.17347   0.51965   0.01267  Uiso   1.00
C104   C     0.92380   0.23400   0.51980   0.01267  Uiso   1.00
C105   C     0.87380   0.28080   0.51380   0.01267  Uiso   1.00
C106   C     0.51965   0.36581   0.94107   0.01267  Uiso   1.00
C107   C     0.51980   0.32240   0.92380   0.01267  Uiso   1.00
C108   C     0.51380   0.33160   0.87380   0.01267  Uiso   1.00
C109   C     0.82653   0.63419   0.05893   0.01267  Uiso   1.00
C110   C     0.76600   0.67760   0.07620   0.01267  Uiso   1.00
C111   C     0.71920   0.66840   0.12620   0.01267  Uiso   1.00
C112   C     0.63419   0.82653   0.48035   0.01267  Uiso   1.00
C113   C     0.67760   0.76600   0.48020   0.01267  Uiso   1.00
C114   C     0.66840   0.71920   0.48620   0.01267  Uiso   1.00
C115   C     0.48035   0.05893   0.63419   0.01267  Uiso   1.00
C116   C     0.48020   0.07620   0.67760   0.01267  Uiso   1.00
C117   C     0.48620   0.12620   0.66840   0.01267  Uiso   1.00
C118   C     0.05893   0.48035   0.82653   0.01267  Uiso   1.00
C119   C     0.07620   0.48020   0.76600   0.01267  Uiso   1.00
C120   C     0.12620   0.48620   0.71920   0.01267  Uiso   1.00
C121   C     0.05893   0.63419   0.48035   0.01267  Uiso   1.00
C122   C     0.07620   0.67760   0.48020   0.01267  Uiso   1.00
C123   C     0.12620   0.66840   0.48620   0.01267  Uiso   1.00
C124   C     0.48035   0.82653   0.05893   0.01267  Uiso   1.00
C125   C     0.48020   0.76600   0.07620   0.01267  Uiso   1.00
C126   C     0.48620   0.71920   0.12620   0.01267  Uiso   1.00
C127   C     0.63419   0.05893   0.82653   0.01267  Uiso   1.00
C128   C     0.67760   0.07620   0.76600   0.01267  Uiso   1.00
C129   C     0.66840   0.12620   0.71920   0.01267  Uiso   1.00
C130   C     0.82653   0.48035   0.63419   0.01267  Uiso   1.00
C131   C     0.76600   0.48020   0.67760   0.01267  Uiso   1.00
C132   C     0.71920   0.48620   0.66840   0.01267  Uiso   1.00
C133   C     0.48035   0.63419   0.82653   0.01267  Uiso   1.00
C134   C     0.48020   0.67760   0.76600   0.01267  Uiso   1.00
C135   C     0.48620   0.66840   0.71920   0.01267  Uiso   1.00
C136   C     0.05893   0.82653   0.63419   0.01267  Uiso   1.00
C137   C     0.07620   0.76600   0.67760   0.01267  Uiso   1.00
C138   C     0.12620   0.71920   0.66840   0.01267  Uiso   1.00
C139   C     0.82653   0.05893   0.48035   0.01267  Uiso   1.00
C140   C     0.76600   0.07620   0.48020   0.01267  Uiso   1.00
C141   C     0.71920   0.12620   0.48620   0.01267  Uiso   1.00
C142   C     0.63419   0.48035   0.05893   0.01267  Uiso   1.00
C143   C     0.67760   0.48020   0.07620   0.01267  Uiso   1.00
C144   C     0.66840   0.48620   0.12620   0.01267  Uiso   1.00
S1     S     0.74888   0.74888   0.02838   0.01267  Uiso   1.00
S2     S     0.74888   0.74888   0.47386   0.01267  Uiso   1.00
S3     S     0.02838   0.47386   0.74888   0.01267  Uiso   1.00
S4     S     0.47386   0.02838   0.74888   0.01267  Uiso   1.00
S5     S     0.74888   0.02838   0.47386   0.01267  Uiso   1.00
S6     S     0.74888   0.47386   0.02838   0.01267  Uiso   1.00
S7     S     0.02838   0.74888   0.74888   0.01267  Uiso   1.00
S8     S     0.47386   0.74888   0.74888   0.01267  Uiso   1.00
S9     S     0.74888   0.47386   0.74888   0.01267  Uiso   1.00
S10    S     0.74888   0.02838   0.74888   0.01267  Uiso   1.00
S11    S     0.02838   0.74888   0.47386   0.01267  Uiso   1.00
S12    S     0.47386   0.74888   0.02838   0.01267  Uiso   1.00
S13    S     0.25112   0.25112   0.97162   0.01267  Uiso   1.00
S14    S     0.25112   0.25112   0.52614   0.01267  Uiso   1.00
S15    S     0.52614   0.97162   0.25112   0.01267  Uiso   1.00
S16    S     0.97162   0.52614   0.25112   0.01267  Uiso   1.00
S17    S     0.97162   0.25112   0.52614   0.01267  Uiso   1.00
S18    S     0.52614   0.25112   0.97162   0.01267  Uiso   1.00
S19    S     0.25112   0.97162   0.25112   0.01267  Uiso   1.00
S20    S     0.25112   0.52614   0.25112   0.01267  Uiso   1.00
S21    S     0.52614   0.25112   0.25112   0.01267  Uiso   1.00
S22    S     0.97162   0.25112   0.25112   0.01267  Uiso   1.00
S23    S     0.25112   0.97162   0.52614   0.01267  Uiso   1.00
S24    S     0.25112   0.52614   0.97162   0.01267  Uiso   1.00
O1     O     0.65261   0.86267   0.00891   0.01267  Uiso   1.00
O2     O     0.58225   0.83541   0.09649   0.01267  Uiso   1.00
O3     O     0.86267   0.65261   0.47581   0.01267  Uiso   1.00
O4     O     0.83541   0.58225   0.48585   0.01267  Uiso   1.00
O5     O     0.00891   0.47581   0.65261   0.01267  Uiso   1.00
O6     O     0.09649   0.48585   0.58225   0.01267  Uiso   1.00
O7     O     0.47581   0.00891   0.86267   0.01267  Uiso   1.00
O8     O     0.48585   0.09649   0.83541   0.01267  Uiso   1.00
O9     O     0.65261   0.00891   0.47581   0.01267  Uiso   1.00
O10    O     0.58225   0.09649   0.48585   0.01267  Uiso   1.00
O11    O     0.86267   0.47581   0.00891   0.01267  Uiso   1.00
O12    O     0.83541   0.48585   0.09649   0.01267  Uiso   1.00
O13    O     0.00891   0.65261   0.86267   0.01267  Uiso   1.00
O14    O     0.09649   0.58225   0.83541   0.01267  Uiso   1.00
O15    O     0.47581   0.86267   0.65261   0.01267  Uiso   1.00
O16    O     0.48585   0.83541   0.58225   0.01267  Uiso   1.00
O17    O     0.65261   0.47581   0.86267   0.01267  Uiso   1.00
O18    O     0.58225   0.48585   0.83541   0.01267  Uiso   1.00
O19    O     0.86267   0.00891   0.65261   0.01267  Uiso   1.00
O20    O     0.83541   0.09649   0.58225   0.01267  Uiso   1.00
O21    O     0.00891   0.86267   0.47581   0.01267  Uiso   1.00
O22    O     0.09649   0.83541   0.48585   0.01267  Uiso   1.00
O23    O     0.47581   0.65261   0.00891   0.01267  Uiso   1.00
O24    O     0.48585   0.58225   0.09649   0.01267  Uiso   1.00
O25    O     0.13733   0.34739   0.99109   0.01267  Uiso   1.00
O26    O     0.16459   0.41775   0.90351   0.01267  Uiso   1.00
O27    O     0.34739   0.13733   0.52419   0.01267  Uiso   1.00
O28    O     0.41775   0.16459   0.51415   0.01267  Uiso   1.00
O29    O     0.52419   0.99109   0.34739   0.01267  Uiso   1.00
O30    O     0.51415   0.90351   0.41775   0.01267  Uiso   1.00
O31    O     0.99109   0.52419   0.13733   0.01267  Uiso   1.00
O32    O     0.90351   0.51415   0.16459   0.01267  Uiso   1.00
O33    O     0.99109   0.34739   0.52419   0.01267  Uiso   1.00
O34    O     0.90351   0.41775   0.51415   0.01267  Uiso   1.00
O35    O     0.52419   0.13733   0.99109   0.01267  Uiso   1.00
O36    O     0.51415   0.16459   0.90351   0.01267  Uiso   1.00
O37    O     0.34739   0.99109   0.13733   0.01267  Uiso   1.00
O38    O     0.41775   0.90351   0.16459   0.01267  Uiso   1.00
O39    O     0.13733   0.52419   0.34739   0.01267  Uiso   1.00
O40    O     0.16459   0.51415   0.41775   0.01267  Uiso   1.00
O41    O     0.52419   0.34739   0.13733   0.01267  Uiso   1.00
O42    O     0.51415   0.41775   0.16459   0.01267  Uiso   1.00
O43    O     0.99109   0.13733   0.34739   0.01267  Uiso   1.00
O44    O     0.90351   0.16459   0.41775   0.01267  Uiso   1.00
O45    O     0.13733   0.99109   0.52419   0.01267  Uiso   1.00
O46    O     0.16459   0.90351   0.51415   0.01267  Uiso   1.00
O47    O     0.34739   0.52419   0.99109   0.01267  Uiso   1.00
O48    O     0.41775   0.51415   0.90351   0.01267  Uiso   1.00
O49    O     0.34739   0.13733   0.99109   0.01267  Uiso   1.00
O50    O     0.41775   0.16459   0.90351   0.01267  Uiso   1.00
O51    O     0.13733   0.34739   0.52419   0.01267  Uiso   1.00
O52    O     0.16459   0.41775   0.51415   0.01267  Uiso   1.00
O53    O     0.99109   0.52419   0.34739   0.01267  Uiso   1.00
O54    O     0.90351   0.51415   0.41775   0.01267  Uiso   1.00
O55    O     0.52419   0.99109   0.13733   0.01267  Uiso   1.00
O56    O     0.51415   0.90351   0.16459   0.01267  Uiso   1.00
O57    O     0.34739   0.99109   0.52419   0.01267  Uiso   1.00
O58    O     0.41775   0.90351   0.51415   0.01267  Uiso   1.00
O59    O     0.13733   0.52419   0.99109   0.01267  Uiso   1.00
O60    O     0.16459   0.51415   0.90351   0.01267  Uiso   1.00
O61    O     0.99109   0.34739   0.13733   0.01267  Uiso   1.00
O62    O     0.90351   0.41775   0.16459   0.01267  Uiso   1.00
O63    O     0.52419   0.13733   0.34739   0.01267  Uiso   1.00
O64    O     0.51415   0.16459   0.41775   0.01267  Uiso   1.00
O65    O     0.34739   0.52419   0.13733   0.01267  Uiso   1.00
O66    O     0.41775   0.51415   0.16459   0.01267  Uiso   1.00
O67    O     0.13733   0.99109   0.34739   0.01267  Uiso   1.00
O68    O     0.16459   0.90351   0.41775   0.01267  Uiso   1.00
O69    O     0.99109   0.13733   0.52419   0.01267  Uiso   1.00
O70    O     0.90351   0.16459   0.51415   0.01267  Uiso   1.00
O71    O     0.52419   0.34739   0.99109   0.01267  Uiso   1.00
O72    O     0.51415   0.41775   0.90351   0.01267  Uiso   1.00
O73    O     0.86267   0.65261   0.00891   0.01267  Uiso   1.00
O74    O     0.83541   0.58225   0.09649   0.01267  Uiso   1.00
O75    O     0.65261   0.86267   0.47581   0.01267  Uiso   1.00
O76    O     0.58225   0.83541   0.48585   0.01267  Uiso   1.00
O77    O     0.47581   0.00891   0.65261   0.01267  Uiso   1.00
O78    O     0.48585   0.09649   0.58225   0.01267  Uiso   1.00
O79    O     0.00891   0.47581   0.86267   0.01267  Uiso   1.00
O80    O     0.09649   0.48585   0.83541   0.01267  Uiso   1.00
O81    O     0.00891   0.65261   0.47581   0.01267  Uiso   1.00
O82    O     0.09649   0.58225   0.48585   0.01267  Uiso   1.00
O83    O     0.47581   0.86267   0.00891   0.01267  Uiso   1.00
O84    O     0.48585   0.83541   0.09649   0.01267  Uiso   1.00
O85    O     0.65261   0.00891   0.86267   0.01267  Uiso   1.00
O86    O     0.58225   0.09649   0.83541   0.01267  Uiso   1.00
O87    O     0.86267   0.47581   0.65261   0.01267  Uiso   1.00
O88    O     0.83541   0.48585   0.58225   0.01267  Uiso   1.00
O89    O     0.47581   0.65261   0.86267   0.01267  Uiso   1.00
O90    O     0.48585   0.58225   0.83541   0.01267  Uiso   1.00
O91    O     0.00891   0.86267   0.65261   0.01267  Uiso   1.00
O92    O     0.09649   0.83541   0.58225   0.01267  Uiso   1.00
O93    O     0.86267   0.00891   0.47581   0.01267  Uiso   1.00
O94    O     0.83541   0.09649   0.48585   0.01267  Uiso   1.00
O95    O     0.65261   0.47581   0.00891   0.01267  Uiso   1.00
O96    O     0.58225   0.48585   0.09649   0.01267  Uiso   1.00
O97    O     0.56407   0.95687   0.04313   0.01267  Uiso   1.00
O98    O     0.95687   0.56407   0.43593   0.01267  Uiso   1.00
O99    O     0.04313   0.43593   0.56407   0.01267  Uiso   1.00
O100   O     0.43593   0.04313   0.95687   0.01267  Uiso   1.00
O101   O     0.56407   0.04313   0.43593   0.01267  Uiso   1.00
O102   O     0.95687   0.43593   0.04313   0.01267  Uiso   1.00
O103   O     0.04313   0.56407   0.95687   0.01267  Uiso   1.00
O104   O     0.43593   0.95687   0.56407   0.01267  Uiso   1.00
O105   O     0.56407   0.43593   0.95687   0.01267  Uiso   1.00
O106   O     0.95687   0.04313   0.56407   0.01267  Uiso   1.00
O107   O     0.04313   0.95687   0.43593   0.01267  Uiso   1.00
O108   O     0.43593   0.56407   0.04313   0.01267  Uiso   1.00
O109   O     0.04313   0.43593   0.95687   0.01267  Uiso   1.00
O110   O     0.43593   0.04313   0.56407   0.01267  Uiso   1.00
O111   O     0.56407   0.95687   0.43593   0.01267  Uiso   1.00
O112   O     0.95687   0.56407   0.04313   0.01267  Uiso   1.00
O113   O     0.95687   0.43593   0.56407   0.01267  Uiso   1.00
O114   O     0.56407   0.04313   0.95687   0.01267  Uiso   1.00
O115   O     0.43593   0.95687   0.04313   0.01267  Uiso   1.00
O116   O     0.04313   0.56407   0.43593   0.01267  Uiso   1.00
O117   O     0.56407   0.43593   0.04313   0.01267  Uiso   1.00
O118   O     0.95687   0.04313   0.43593   0.01267  Uiso   1.00
O119   O     0.04313   0.95687   0.56407   0.01267  Uiso   1.00
O120   O     0.43593   0.56407   0.95687   0.01267  Uiso   1.00
O121   O     0.45580   0.00064   0.08776   0.01267  Uiso   1.00
O122   O     0.00064   0.45580   0.45580   0.01267  Uiso   1.00
O123   O     0.08776   0.45580   0.45580   0.01267  Uiso   1.00
O124   O     0.45580   0.08776   0.00064   0.01267  Uiso   1.00
O125   O     0.45580   0.08776   0.45580   0.01267  Uiso   1.00
O126   O     0.00064   0.45580   0.08776   0.01267  Uiso   1.00
O127   O     0.08776   0.45580   0.00064   0.01267  Uiso   1.00
O128   O     0.45580   0.00064   0.45580   0.01267  Uiso   1.00
O129   O     0.45580   0.45580   0.00064   0.01267  Uiso   1.00
O130   O     0.00064   0.08776   0.45580   0.01267  Uiso   1.00
O131   O     0.08776   0.00064   0.45580   0.01267  Uiso   1.00
O132   O     0.45580   0.45580   0.08776   0.01267  Uiso   1.00
O133   O     0.99936   0.54420   0.91224   0.01267  Uiso   1.00
O134   O     0.54420   0.99936   0.54420   0.01267  Uiso   1.00
O135   O     0.54420   0.91224   0.54420   0.01267  Uiso   1.00
O136   O     0.91224   0.54420   0.99936   0.01267  Uiso   1.00
O137   O     0.91224   0.54420   0.54420   0.01267  Uiso   1.00
O138   O     0.54420   0.99936   0.91224   0.01267  Uiso   1.00
O139   O     0.54420   0.91224   0.99936   0.01267  Uiso   1.00
O140   O     0.99936   0.54420   0.54420   0.01267  Uiso   1.00
O141   O     0.54420   0.54420   0.99936   0.01267  Uiso   1.00
O142   O     0.91224   0.99936   0.54420   0.01267  Uiso   1.00
O143   O     0.99936   0.91224   0.54420   0.01267  Uiso   1.00
O144   O     0.54420   0.54420   0.91224   0.01267  Uiso   1.00
