data_XIDBUJ_clean
_audit_creation_date              2014-07-02
_audit_creation_method            'Materials Studio'
_symmetry_space_group_name_H-M    'P1'
_symmetry_Int_Tables_number       1
_symmetry_cell_setting            triclinic
loop_
_symmetry_equiv_pos_as_xyz
  x,y,z
_cell_length_a                    11.7210
_cell_length_b                    14.9546
_cell_length_c                    14.9546
_cell_angle_alpha                 96.4485
_cell_angle_beta                  107.0600
_cell_angle_gamma                 107.0600
loop_
_atom_site_label
_atom_site_type_symbol
_atom_site_fract_x
_atom_site_fract_y
_atom_site_fract_z
_atom_site_U_iso_or_equiv
_atom_site_adp_type
_atom_site_occupancy
Zn1    Zn    0.88190   0.80543   0.56081   0.01267  Uiso   1.00
Zn2    Zn    0.88190   0.56081   0.80543   0.01267  Uiso   1.00
H1     H     0.08050   0.74040   0.50980   0.01267  Uiso   1.00
H2     H     0.29300   0.79570   0.53070   0.01267  Uiso   1.00
H3     H     0.31480   0.05030   0.66150   0.01267  Uiso   1.00
H4     H     0.10490   0.98870   0.63950   0.01267  Uiso   1.00
H5     H     0.49550   0.84690   0.56850   0.01267  Uiso   1.00
H6     H     0.80740   0.08260   0.65760   0.01267  Uiso   1.00
H7     H     0.95160   0.37980   0.84800   0.01267  Uiso   1.00
H8     H     0.87160   0.21650   0.79510   0.01267  Uiso   1.00
H9     H     0.55490   0.24390   0.62450   0.01267  Uiso   1.00
H10    H     0.64460   0.40490   0.67810   0.01267  Uiso   1.00
H11    H     0.08050   0.50980   0.74040   0.01267  Uiso   1.00
H12    H     0.29300   0.53070   0.79570   0.01267  Uiso   1.00
H13    H     0.31480   0.66150   0.05030   0.01267  Uiso   1.00
H14    H     0.10490   0.63950   0.98870   0.01267  Uiso   1.00
H15    H     0.49550   0.56850   0.84690   0.01267  Uiso   1.00
H16    H     0.80740   0.65760   0.08260   0.01267  Uiso   1.00
H17    H     0.95160   0.84800   0.37980   0.01267  Uiso   1.00
H18    H     0.87160   0.79510   0.21650   0.01267  Uiso   1.00
H19    H     0.55490   0.62450   0.24390   0.01267  Uiso   1.00
H20    H     0.64460   0.67810   0.40490   0.01267  Uiso   1.00
C1     C     0.12860   0.80370   0.54130   0.01267  Uiso   1.00
C2     C     0.25660   0.83660   0.55340   0.01267  Uiso   1.00
C3     C     0.33030   0.93040   0.59960   0.01267  Uiso   1.00
C4     C     0.26950   0.98650   0.63070   0.01267  Uiso   1.00
C5     C     0.14310   0.94910   0.61690   0.01267  Uiso   1.00
C6     C     0.46840   0.97110   0.61350   0.01267  Uiso   1.00
C7     C     0.53590   0.91260   0.59220   0.01267  Uiso   1.00
C8     C     0.66380   0.95550   0.60710   0.01267  Uiso   1.00
C9     C     0.72100   0.05270   0.64530   0.01267  Uiso   1.00
C10    C     0.64790   0.10550   0.66490   0.01267  Uiso   1.00
C11    C     0.87120   0.35180   0.80140   0.01267  Uiso   1.00
C12    C     0.82360   0.25350   0.77050   0.01267  Uiso   1.00
C13    C     0.70290   0.21030   0.70190   0.01267  Uiso   1.00
C14    C     0.63670   0.27000   0.66920   0.01267  Uiso   1.00
C15    C     0.69060   0.36650   0.70230   0.01267  Uiso   1.00
C16    C     0.74040   0.89620   0.58340   0.01267  Uiso   1.00
C17    C     0.12860   0.54130   0.80370   0.01267  Uiso   1.00
C18    C     0.25660   0.55340   0.83660   0.01267  Uiso   1.00
C19    C     0.33030   0.59960   0.93040   0.01267  Uiso   1.00
C20    C     0.26950   0.63070   0.98650   0.01267  Uiso   1.00
C21    C     0.14310   0.61690   0.94910   0.01267  Uiso   1.00
C22    C     0.46840   0.61350   0.97110   0.01267  Uiso   1.00
C23    C     0.53590   0.59220   0.91260   0.01267  Uiso   1.00
C24    C     0.66380   0.60710   0.95550   0.01267  Uiso   1.00
C25    C     0.72100   0.64530   0.05270   0.01267  Uiso   1.00
C26    C     0.64790   0.66490   0.10550   0.01267  Uiso   1.00
C27    C     0.87120   0.80140   0.35180   0.01267  Uiso   1.00
C28    C     0.82360   0.77050   0.25350   0.01267  Uiso   1.00
C29    C     0.70290   0.70190   0.21030   0.01267  Uiso   1.00
C30    C     0.63670   0.66920   0.27000   0.01267  Uiso   1.00
C31    C     0.69060   0.70230   0.36650   0.01267  Uiso   1.00
C32    C     0.74040   0.58340   0.89620   0.01267  Uiso   1.00
C33    C     0.91240   0.72740   0.72740   0.01267  Uiso   1.00
C34    C     0.86670   0.64180   0.64180   0.01267  Uiso   1.00
N1     N     0.07160   0.85878   0.57278   0.01267  Uiso   1.00
N2     N     0.52300   0.06523   0.64837   0.01267  Uiso   1.00
N3     N     0.80740   0.40898   0.76808   0.01267  Uiso   1.00
N4     N     0.07160   0.57278   0.85878   0.01267  Uiso   1.00
N5     N     0.52300   0.64837   0.06523   0.01267  Uiso   1.00
N6     N     0.80740   0.76808   0.40898   0.01267  Uiso   1.00
O1     O     0.68980   0.80780   0.55960   0.01267  Uiso   1.00
O2     O     0.85200   0.93956   0.58828   0.01267  Uiso   1.00
O3     O     0.92930   0.80817   0.70865   0.01267  Uiso   1.00
O4     O     0.85000   0.65988   0.55982   0.01267  Uiso   1.00
O5     O     0.68980   0.55960   0.80780   0.01267  Uiso   1.00
O6     O     0.85200   0.58828   0.93956   0.01267  Uiso   1.00
O7     O     0.92930   0.70865   0.80817   0.01267  Uiso   1.00
O8     O     0.85000   0.55982   0.65988   0.01267  Uiso   1.00
Zn3    Zn    0.11810   0.43919   0.19457   0.01267  Uiso   1.00
Zn4    Zn    0.11810   0.19457   0.43919   0.01267  Uiso   1.00
H21    H     0.91950   0.49020   0.25960   0.01267  Uiso   1.00
H22    H     0.70700   0.46930   0.20430   0.01267  Uiso   1.00
H23    H     0.68520   0.33850   0.94970   0.01267  Uiso   1.00
H24    H     0.89510   0.36050   0.01130   0.01267  Uiso   1.00
H25    H     0.50450   0.43150   0.15310   0.01267  Uiso   1.00
H26    H     0.19260   0.34240   0.91740   0.01267  Uiso   1.00
H27    H     0.04840   0.15200   0.62020   0.01267  Uiso   1.00
H28    H     0.12840   0.20490   0.78350   0.01267  Uiso   1.00
H29    H     0.44510   0.37550   0.75610   0.01267  Uiso   1.00
H30    H     0.35540   0.32190   0.59510   0.01267  Uiso   1.00
H31    H     0.91950   0.25960   0.49020   0.01267  Uiso   1.00
H32    H     0.70700   0.20430   0.46930   0.01267  Uiso   1.00
H33    H     0.68520   0.94970   0.33850   0.01267  Uiso   1.00
H34    H     0.89510   0.01130   0.36050   0.01267  Uiso   1.00
H35    H     0.50450   0.15310   0.43150   0.01267  Uiso   1.00
H36    H     0.19260   0.91740   0.34240   0.01267  Uiso   1.00
H37    H     0.04840   0.62020   0.15200   0.01267  Uiso   1.00
H38    H     0.12840   0.78350   0.20490   0.01267  Uiso   1.00
H39    H     0.44510   0.75610   0.37550   0.01267  Uiso   1.00
H40    H     0.35540   0.59510   0.32190   0.01267  Uiso   1.00
C35    C     0.87140   0.45870   0.19630   0.01267  Uiso   1.00
C36    C     0.74340   0.44660   0.16340   0.01267  Uiso   1.00
C37    C     0.66970   0.40040   0.06960   0.01267  Uiso   1.00
C38    C     0.73050   0.36930   0.01350   0.01267  Uiso   1.00
C39    C     0.85690   0.38310   0.05090   0.01267  Uiso   1.00
C40    C     0.53160   0.38650   0.02890   0.01267  Uiso   1.00
C41    C     0.46410   0.40780   0.08740   0.01267  Uiso   1.00
C42    C     0.33620   0.39290   0.04450   0.01267  Uiso   1.00
C43    C     0.27900   0.35470   0.94730   0.01267  Uiso   1.00
C44    C     0.35210   0.33510   0.89450   0.01267  Uiso   1.00
C45    C     0.12880   0.19860   0.64820   0.01267  Uiso   1.00
C46    C     0.17640   0.22950   0.74650   0.01267  Uiso   1.00
C47    C     0.29710   0.29810   0.78970   0.01267  Uiso   1.00
C48    C     0.36330   0.33080   0.73000   0.01267  Uiso   1.00
C49    C     0.30940   0.29770   0.63350   0.01267  Uiso   1.00
C50    C     0.25960   0.41660   0.10380   0.01267  Uiso   1.00
C51    C     0.87140   0.19630   0.45870   0.01267  Uiso   1.00
C52    C     0.74340   0.16340   0.44660   0.01267  Uiso   1.00
C53    C     0.66970   0.06960   0.40040   0.01267  Uiso   1.00
C54    C     0.73050   0.01350   0.36930   0.01267  Uiso   1.00
C55    C     0.85690   0.05090   0.38310   0.01267  Uiso   1.00
C56    C     0.53160   0.02890   0.38650   0.01267  Uiso   1.00
C57    C     0.46410   0.08740   0.40780   0.01267  Uiso   1.00
C58    C     0.33620   0.04450   0.39290   0.01267  Uiso   1.00
C59    C     0.27900   0.94730   0.35470   0.01267  Uiso   1.00
C60    C     0.35210   0.89450   0.33510   0.01267  Uiso   1.00
C61    C     0.12880   0.64820   0.19860   0.01267  Uiso   1.00
C62    C     0.17640   0.74650   0.22950   0.01267  Uiso   1.00
C63    C     0.29710   0.78970   0.29810   0.01267  Uiso   1.00
C64    C     0.36330   0.73000   0.33080   0.01267  Uiso   1.00
C65    C     0.30940   0.63350   0.29770   0.01267  Uiso   1.00
C66    C     0.25960   0.10380   0.41660   0.01267  Uiso   1.00
C67    C     0.08760   0.27260   0.27260   0.01267  Uiso   1.00
C68    C     0.13330   0.35820   0.35820   0.01267  Uiso   1.00
N7     N     0.92840   0.42722   0.14122   0.01267  Uiso   1.00
N8     N     0.47700   0.35163   0.93477   0.01267  Uiso   1.00
N9     N     0.19260   0.23192   0.59102   0.01267  Uiso   1.00
N10    N     0.92840   0.14122   0.42722   0.01267  Uiso   1.00
N11    N     0.47700   0.93477   0.35163   0.01267  Uiso   1.00
N12    N     0.19260   0.59102   0.23192   0.01267  Uiso   1.00
O9     O     0.31020   0.44040   0.19220   0.01267  Uiso   1.00
O10    O     0.14800   0.41172   0.06044   0.01267  Uiso   1.00
O11    O     0.07070   0.29135   0.19183   0.01267  Uiso   1.00
O12    O     0.15000   0.44018   0.34012   0.01267  Uiso   1.00
O13    O     0.31020   0.19220   0.44040   0.01267  Uiso   1.00
O14    O     0.14800   0.06044   0.41172   0.01267  Uiso   1.00
O15    O     0.07070   0.19183   0.29135   0.01267  Uiso   1.00
O16    O     0.15000   0.34012   0.44018   0.01267  Uiso   1.00
