data_image0
_cell_length_a       16.178
_cell_length_b       16.178
_cell_length_c       6.8377
_cell_angle_alpha    90
_cell_angle_beta     90
_cell_angle_gamma    90

_symmetry_space_group_name_H-M    "P 1"
_symmetry_int_tables_number       1

loop_
  _symmetry_equiv_pos_as_xyz
  'x, y, z'

loop_
  _atom_site_label
  _atom_site_occupancy
  _atom_site_fract_x
  _atom_site_fract_y
  _atom_site_fract_z
  _atom_site_thermal_displace_type
  _atom_site_B_iso_or_equiv
  _atom_site_type_symbol
  N1       1.0000 0.31870  0.52770  0.21640  Biso   1.000  N
  O1       1.0000 0.32940  0.41970  0.75530  Biso   1.000  O
  O2       1.0000 0.42690  0.48140  0.93120  Biso   1.000  O
  C1       1.0000 0.35340  0.46150  0.90370  Biso   1.000  C
  C2       1.0000 0.29300  0.48930  0.04880  Biso   1.000  C
  C3       1.0000 0.17910  0.61910  0.60000  Biso   1.000  C
  N2       1.0000 0.18130  0.97230  0.21640  Biso   1.000  N
  O3       1.0000 0.17060  0.08030  0.75530  Biso   1.000  O
  O4       1.0000 0.07310  0.01860  0.93120  Biso   1.000  O
  C4       1.0000 0.14660  0.03850  0.90370  Biso   1.000  C
  C5       1.0000 0.20700  0.01070  0.04880  Biso   1.000  C
  C6       1.0000 0.32090  0.88090  0.60000  Biso   1.000  C
  N3       1.0000 0.97230  0.31870  0.71640  Biso   1.000  N
  O5       1.0000 0.08030  0.32940  0.25530  Biso   1.000  O
  O6       1.0000 0.01860  0.42690  0.43120  Biso   1.000  O
  C7       1.0000 0.03850  0.35340  0.40370  Biso   1.000  C
  C8       1.0000 0.01070  0.29300  0.54880  Biso   1.000  C
  C9       1.0000 0.88090  0.17910  0.10000  Biso   1.000  C
  N4       1.0000 0.52770  0.18130  0.71640  Biso   1.000  N
  O7       1.0000 0.41970  0.17060  0.25530  Biso   1.000  O
  O8       1.0000 0.48140  0.07310  0.43120  Biso   1.000  O
  C10      1.0000 0.46150  0.14660  0.40370  Biso   1.000  C
  C11      1.0000 0.48930  0.20700  0.54880  Biso   1.000  C
  C12      1.0000 0.61910  0.32090  0.10000  Biso   1.000  C
  N5       1.0000 0.68130  0.02770  0.78360  Biso   1.000  N
  O9       1.0000 0.67060  0.91970  0.24470  Biso   1.000  O
  O10      1.0000 0.57310  0.98140  0.06880  Biso   1.000  O
  C13      1.0000 0.64660  0.96150  0.09630  Biso   1.000  C
  C14      1.0000 0.70700  0.98930  0.95120  Biso   1.000  C
  C15      1.0000 0.82090  0.11910  0.40000  Biso   1.000  C
  N6       1.0000 0.81870  0.47230  0.78360  Biso   1.000  N
  O11      1.0000 0.82940  0.58030  0.24470  Biso   1.000  O
  O12      1.0000 0.92690  0.51860  0.06880  Biso   1.000  O
  C16      1.0000 0.85340  0.53850  0.09630  Biso   1.000  C
  C17      1.0000 0.79300  0.51070  0.95120  Biso   1.000  C
  C18      1.0000 0.67910  0.38090  0.40000  Biso   1.000  C
  N7       1.0000 0.02770  0.81870  0.28360  Biso   1.000  N
  O13      1.0000 0.91970  0.82940  0.74470  Biso   1.000  O
  O14      1.0000 0.98140  0.92690  0.56880  Biso   1.000  O
  C19      1.0000 0.96150  0.85340  0.59630  Biso   1.000  C
  C20      1.0000 0.98930  0.79300  0.45120  Biso   1.000  C
  C21      1.0000 0.11910  0.67910  0.90000  Biso   1.000  C
  N8       1.0000 0.47230  0.68130  0.28360  Biso   1.000  N
  O15      1.0000 0.58030  0.67060  0.74470  Biso   1.000  O
  O16      1.0000 0.51860  0.57310  0.56880  Biso   1.000  O
  C22      1.0000 0.53850  0.64660  0.59630  Biso   1.000  C
  C23      1.0000 0.51070  0.70700  0.45120  Biso   1.000  C
  C24      1.0000 0.38090  0.82090  0.90000  Biso   1.000  C
  N9       1.0000 0.68130  0.47230  0.78360  Biso   1.000  N
  O17      1.0000 0.67060  0.58030  0.24470  Biso   1.000  O
  O18      1.0000 0.57310  0.51860  0.06880  Biso   1.000  O
  C25      1.0000 0.64660  0.53850  0.09630  Biso   1.000  C
  C26      1.0000 0.70700  0.51070  0.95120  Biso   1.000  C
  C27      1.0000 0.82090  0.38090  0.40000  Biso   1.000  C
  N10      1.0000 0.81870  0.02770  0.78360  Biso   1.000  N
  O19      1.0000 0.82940  0.91970  0.24470  Biso   1.000  O
  O20      1.0000 0.92690  0.98140  0.06880  Biso   1.000  O
  C28      1.0000 0.85340  0.96150  0.09630  Biso   1.000  C
  C29      1.0000 0.79300  0.98930  0.95120  Biso   1.000  C
  C30      1.0000 0.67910  0.11910  0.40000  Biso   1.000  C
  N11      1.0000 0.02770  0.68130  0.28360  Biso   1.000  N
  O21      1.0000 0.91970  0.67060  0.74470  Biso   1.000  O
  O22      1.0000 0.98140  0.57310  0.56880  Biso   1.000  O
  C31      1.0000 0.96150  0.64660  0.59630  Biso   1.000  C
  C32      1.0000 0.98930  0.70700  0.45120  Biso   1.000  C
  C33      1.0000 0.11910  0.82090  0.90000  Biso   1.000  C
  N12      1.0000 0.47230  0.81870  0.28360  Biso   1.000  N
  O23      1.0000 0.58030  0.82940  0.74470  Biso   1.000  O
  O24      1.0000 0.51860  0.92690  0.56880  Biso   1.000  O
  C34      1.0000 0.53850  0.85340  0.59630  Biso   1.000  C
  C35      1.0000 0.51070  0.79300  0.45120  Biso   1.000  C
  C36      1.0000 0.38090  0.67910  0.90000  Biso   1.000  C
  N13      1.0000 0.31870  0.97230  0.21640  Biso   1.000  N
  O25      1.0000 0.32940  0.08030  0.75530  Biso   1.000  O
  O26      1.0000 0.42690  0.01860  0.93120  Biso   1.000  O
  C37      1.0000 0.35340  0.03850  0.90370  Biso   1.000  C
  C38      1.0000 0.29300  0.01070  0.04880  Biso   1.000  C
  C39      1.0000 0.17910  0.88090  0.60000  Biso   1.000  C
  N14      1.0000 0.18130  0.52770  0.21640  Biso   1.000  N
  O27      1.0000 0.17060  0.41970  0.75530  Biso   1.000  O
  O28      1.0000 0.07310  0.48140  0.93120  Biso   1.000  O
  C40      1.0000 0.14660  0.46150  0.90370  Biso   1.000  C
  C41      1.0000 0.20700  0.48930  0.04880  Biso   1.000  C
  C42      1.0000 0.32090  0.61910  0.60000  Biso   1.000  C
  N15      1.0000 0.97230  0.18130  0.71640  Biso   1.000  N
  O29      1.0000 0.08030  0.17060  0.25530  Biso   1.000  O
  O30      1.0000 0.01860  0.07310  0.43120  Biso   1.000  O
  C43      1.0000 0.03850  0.14660  0.40370  Biso   1.000  C
  C44      1.0000 0.01070  0.20700  0.54880  Biso   1.000  C
  C45      1.0000 0.88090  0.32090  0.10000  Biso   1.000  C
  N16      1.0000 0.52770  0.31870  0.71640  Biso   1.000  N
  O31      1.0000 0.41970  0.32940  0.25530  Biso   1.000  O
  O32      1.0000 0.48140  0.42690  0.43120  Biso   1.000  O
  C46      1.0000 0.46150  0.35340  0.40370  Biso   1.000  C
  C47      1.0000 0.48930  0.29300  0.54880  Biso   1.000  C
  C48      1.0000 0.61910  0.17910  0.10000  Biso   1.000  C
  Cd1      1.0000 0.45721  0.54279  0.25000  Biso   1.000  Cd
  Cd2      1.0000 0.04279  0.95721  0.25000  Biso   1.000  Cd
  Cd3      1.0000 0.95721  0.45721  0.75000  Biso   1.000  Cd
  Cd4      1.0000 0.54279  0.04279  0.75000  Biso   1.000  Cd
  Cd5      1.0000 0.54279  0.45721  0.75000  Biso   1.000  Cd
  Cd6      1.0000 0.95721  0.04279  0.75000  Biso   1.000  Cd
  Cd7      1.0000 0.04279  0.54279  0.25000  Biso   1.000  Cd
  Cd8      1.0000 0.45721  0.95721  0.25000  Biso   1.000  Cd
  C49      1.0000 0.25000  0.59080  0.50400  Biso   1.000  C
  C50      1.0000 0.25000  0.54920  0.31270  Biso   1.000  C
  C51      1.0000 0.25000  0.90920  0.50400  Biso   1.000  C
  C52      1.0000 0.25000  0.95080  0.31270  Biso   1.000  C
  C53      1.0000 0.90920  0.25000  0.00400  Biso   1.000  C
  C54      1.0000 0.95080  0.25000  0.81270  Biso   1.000  C
  C55      1.0000 0.59080  0.25000  0.00400  Biso   1.000  C
  C56      1.0000 0.54920  0.25000  0.81270  Biso   1.000  C
  C57      1.0000 0.75000  0.09080  0.49600  Biso   1.000  C
  C58      1.0000 0.75000  0.04920  0.68730  Biso   1.000  C
  C59      1.0000 0.75000  0.40920  0.49600  Biso   1.000  C
  C60      1.0000 0.75000  0.45080  0.68730  Biso   1.000  C
  C61      1.0000 0.09080  0.75000  0.99600  Biso   1.000  C
  C62      1.0000 0.04920  0.75000  0.18730  Biso   1.000  C
  C63      1.0000 0.40920  0.75000  0.99600  Biso   1.000  C
  C64      1.0000 0.45080  0.75000  0.18730  Biso   1.000  C
