data_XIHRIQ_clean
_audit_creation_date              2014-07-02
_audit_creation_method            'Materials Studio'
_symmetry_space_group_name_H-M    'P1'
_symmetry_Int_Tables_number       1
_symmetry_cell_setting            triclinic
loop_
_symmetry_equiv_pos_as_xyz
  x,y,z
_cell_length_a                    10.7250
_cell_length_b                    13.3310
_cell_length_c                    15.2614
_cell_angle_alpha                 65.6410
_cell_angle_beta                  86.0040
_cell_angle_gamma                 74.0070
loop_
_atom_site_label
_atom_site_type_symbol
_atom_site_fract_x
_atom_site_fract_y
_atom_site_fract_z
_atom_site_U_iso_or_equiv
_atom_site_adp_type
_atom_site_occupancy
Co1    Co    0.12862   0.01340   0.58857   0.01267  Uiso   1.00
Co2    Co    0.87138   0.98660   0.41143   0.01267  Uiso   1.00
H1     H     0.21170   0.75210   0.69780   0.01267  Uiso   1.00
H2     H     0.14150   0.59980   0.80200   0.01267  Uiso   1.00
H3     H     0.80210   0.81610   0.80180   0.01267  Uiso   1.00
H4     H     0.87790   0.96640   0.69600   0.01267  Uiso   1.00
H5     H     0.97040   0.51770   0.90330   0.01267  Uiso   1.00
H6     H     0.84940   0.39640   0.92580   0.01267  Uiso   1.00
H7     H     0.75450   0.25070   0.03130   0.01267  Uiso   1.00
H8     H     0.61350   0.28380   0.14130   0.01267  Uiso   1.00
H9     H     0.43650   0.58770   0.22300   0.01267  Uiso   1.00
H10    H     0.51280   0.73550   0.11100   0.01267  Uiso   1.00
H11    H     0.65810   0.70400   0.00460   0.01267  Uiso   1.00
H12    H     0.30730   0.47030   0.23110   0.01267  Uiso   1.00
H13    H     0.46050   0.16900   0.35370   0.01267  Uiso   1.00
H14    H     0.37370   0.03860   0.47550   0.01267  Uiso   1.00
H15    H     0.06200   0.27690   0.46530   0.01267  Uiso   1.00
H16    H     0.14070   0.41350   0.34750   0.01267  Uiso   1.00
H17    H     0.50960   0.92350   0.78160   0.01267  Uiso   1.00
H18    H     0.61880   0.92330   0.90600   0.01267  Uiso   1.00
H19    H     0.28650   0.08190   0.98220   0.01267  Uiso   1.00
H20    H     0.17810   0.08030   0.85410   0.01267  Uiso   1.00
H21    H     0.44780   0.39600   0.43330   0.01267  Uiso   1.00
H22    H     0.60040   0.23500   0.44120   0.01267  Uiso   1.00
H23    H     0.84470   0.29400   0.58550   0.01267  Uiso   1.00
H24    H     0.68940   0.45730   0.57810   0.01267  Uiso   1.00
H25    H     0.78830   0.24790   0.30220   0.01267  Uiso   1.00
H26    H     0.85850   0.40020   0.19800   0.01267  Uiso   1.00
H27    H     0.19790   0.18390   0.19820   0.01267  Uiso   1.00
H28    H     0.12210   0.03360   0.30400   0.01267  Uiso   1.00
H29    H     0.02960   0.48230   0.09670   0.01267  Uiso   1.00
H30    H     0.15060   0.60360   0.07420   0.01267  Uiso   1.00
H31    H     0.24550   0.74930   0.96870   0.01267  Uiso   1.00
H32    H     0.38650   0.71620   0.85870   0.01267  Uiso   1.00
H33    H     0.56350   0.41230   0.77700   0.01267  Uiso   1.00
H34    H     0.48720   0.26450   0.88900   0.01267  Uiso   1.00
H35    H     0.34190   0.29600   0.99540   0.01267  Uiso   1.00
H36    H     0.69270   0.52970   0.76890   0.01267  Uiso   1.00
H37    H     0.53950   0.83100   0.64630   0.01267  Uiso   1.00
H38    H     0.62630   0.96140   0.52450   0.01267  Uiso   1.00
H39    H     0.93800   0.72310   0.53470   0.01267  Uiso   1.00
H40    H     0.85930   0.58650   0.65250   0.01267  Uiso   1.00
H41    H     0.49040   0.07650   0.21840   0.01267  Uiso   1.00
H42    H     0.38120   0.07670   0.09400   0.01267  Uiso   1.00
H43    H     0.71350   0.91810   0.01780   0.01267  Uiso   1.00
H44    H     0.82190   0.91970   0.14590   0.01267  Uiso   1.00
H45    H     0.55220   0.60400   0.56670   0.01267  Uiso   1.00
H46    H     0.39960   0.76500   0.55880   0.01267  Uiso   1.00
H47    H     0.15530   0.70600   0.41450   0.01267  Uiso   1.00
H48    H     0.31060   0.54270   0.42190   0.01267  Uiso   1.00
C1     C     0.12780   0.76560   0.71900   0.01267  Uiso   1.00
C2     C     0.08620   0.67340   0.78160   0.01267  Uiso   1.00
C3     C     0.96210   0.69070   0.81380   0.01267  Uiso   1.00
C4     C     0.88610   0.80130   0.78110   0.01267  Uiso   1.00
C5     C     0.93190   0.89210   0.71760   0.01267  Uiso   1.00
C6     C     0.91570   0.59160   0.88190   0.01267  Uiso   1.00
C7     C     0.75500   0.51670   0.97360   0.01267  Uiso   1.00
C8     C     0.79000   0.41040   0.96950   0.01267  Uiso   1.00
C9     C     0.73280   0.32170   0.03420   0.01267  Uiso   1.00
C10    C     0.64780   0.34200   0.09890   0.01267  Uiso   1.00
C11    C     0.61110   0.44790   0.10300   0.01267  Uiso   1.00
C12    C     0.52180   0.47200   0.17070   0.01267  Uiso   1.00
C13    C     0.49040   0.57550   0.17580   0.01267  Uiso   1.00
C14    C     0.53930   0.66330   0.11010   0.01267  Uiso   1.00
C15    C     0.62390   0.64510   0.04580   0.01267  Uiso   1.00
C16    C     0.66230   0.53750   0.03950   0.01267  Uiso   1.00
C17    C     0.36190   0.39680   0.26170   0.01267  Uiso   1.00
C18    C     0.31020   0.30730   0.33760   0.01267  Uiso   1.00
C19    C     0.37970   0.19300   0.37590   0.01267  Uiso   1.00
C20    C     0.32560   0.11490   0.44830   0.01267  Uiso   1.00
C21    C     0.14320   0.25490   0.44270   0.01267  Uiso   1.00
C22    C     0.18990   0.33750   0.37200   0.01267  Uiso   1.00
C23    C     0.33440   0.99690   0.80530   0.01267  Uiso   1.00
C24    C     0.46220   0.95470   0.82210   0.01267  Uiso   1.00
C25    C     0.52930   0.95480   0.89760   0.01267  Uiso   1.00
C26    C     0.46560   0.00040   0.95910   0.01267  Uiso   1.00
C27    C     0.33300   0.04860   0.94270   0.01267  Uiso   1.00
C28    C     0.26720   0.04710   0.86500   0.01267  Uiso   1.00
C29    C     0.54960   0.44860   0.50240   0.01267  Uiso   1.00
C30    C     0.52810   0.37710   0.46400   0.01267  Uiso   1.00
C31    C     0.61940   0.27990   0.46890   0.01267  Uiso   1.00
C32    C     0.73820   0.24850   0.51440   0.01267  Uiso   1.00
C33    C     0.76420   0.31450   0.55440   0.01267  Uiso   1.00
C34    C     0.67040   0.41360   0.54930   0.01267  Uiso   1.00
C35    C     0.26460   0.99970   0.72340   0.01267  Uiso   1.00
C36    C     0.83930   0.14300   0.51780   0.01267  Uiso   1.00
C37    C     0.87220   0.23440   0.28100   0.01267  Uiso   1.00
C38    C     0.91380   0.32660   0.21840   0.01267  Uiso   1.00
C39    C     0.03790   0.30930   0.18620   0.01267  Uiso   1.00
C40    C     0.11390   0.19870   0.21890   0.01267  Uiso   1.00
C41    C     0.06810   0.10790   0.28240   0.01267  Uiso   1.00
C42    C     0.08430   0.40840   0.11810   0.01267  Uiso   1.00
C43    C     0.24500   0.48330   0.02640   0.01267  Uiso   1.00
C44    C     0.21000   0.58960   0.03050   0.01267  Uiso   1.00
C45    C     0.26720   0.67830   0.96580   0.01267  Uiso   1.00
C46    C     0.35220   0.65800   0.90110   0.01267  Uiso   1.00
C47    C     0.38890   0.55210   0.89700   0.01267  Uiso   1.00
C48    C     0.47820   0.52800   0.82930   0.01267  Uiso   1.00
C49    C     0.50960   0.42450   0.82420   0.01267  Uiso   1.00
C50    C     0.46070   0.33670   0.88990   0.01267  Uiso   1.00
C51    C     0.37610   0.35490   0.95420   0.01267  Uiso   1.00
C52    C     0.33770   0.46250   0.96050   0.01267  Uiso   1.00
C53    C     0.63810   0.60320   0.73830   0.01267  Uiso   1.00
C54    C     0.68980   0.69270   0.66240   0.01267  Uiso   1.00
C55    C     0.62030   0.80700   0.62410   0.01267  Uiso   1.00
C56    C     0.67440   0.88510   0.55170   0.01267  Uiso   1.00
C57    C     0.85680   0.74510   0.55730   0.01267  Uiso   1.00
C58    C     0.81010   0.66250   0.62800   0.01267  Uiso   1.00
C59    C     0.66560   0.00310   0.19470   0.01267  Uiso   1.00
C60    C     0.53780   0.04530   0.17790   0.01267  Uiso   1.00
C61    C     0.47070   0.04520   0.10240   0.01267  Uiso   1.00
C62    C     0.53440   0.99960   0.04090   0.01267  Uiso   1.00
C63    C     0.66700   0.95140   0.05730   0.01267  Uiso   1.00
C64    C     0.73280   0.95290   0.13500   0.01267  Uiso   1.00
C65    C     0.45040   0.55140   0.49760   0.01267  Uiso   1.00
C66    C     0.47190   0.62290   0.53600   0.01267  Uiso   1.00
C67    C     0.38060   0.72010   0.53110   0.01267  Uiso   1.00
C68    C     0.26180   0.75150   0.48560   0.01267  Uiso   1.00
C69    C     0.23580   0.68550   0.44560   0.01267  Uiso   1.00
C70    C     0.32960   0.58640   0.45070   0.01267  Uiso   1.00
C71    C     0.73540   0.00030   0.27660   0.01267  Uiso   1.00
C72    C     0.16070   0.85700   0.48220   0.01267  Uiso   1.00
N1     N     0.05360   0.87360   0.68710   0.01267  Uiso   1.00
N2     N     0.79940   0.60960   0.91040   0.01267  Uiso   1.00
N3     N     0.47810   0.37550   0.23780   0.01267  Uiso   1.00
N4     N     0.20880   0.14370   0.48080   0.01267  Uiso   1.00
N5     N     0.94640   0.12640   0.31290   0.01267  Uiso   1.00
N6     N     0.20060   0.39040   0.08960   0.01267  Uiso   1.00
N7     N     0.52190   0.62450   0.76220   0.01267  Uiso   1.00
N8     N     0.79120   0.85630   0.51920   0.01267  Uiso   1.00
O1     O     0.31540   0.94610   0.67680   0.01267  Uiso   1.00
O2     O     0.14650   0.05960   0.70410   0.01267  Uiso   1.00
O3     O     0.95140   0.12740   0.54910   0.01267  Uiso   1.00
O4     O     0.80490   0.07940   0.48820   0.01267  Uiso   1.00
O5     O     0.68460   0.05390   0.32320   0.01267  Uiso   1.00
O6     O     0.85350   0.94040   0.29590   0.01267  Uiso   1.00
O7     O     0.04860   0.87260   0.45090   0.01267  Uiso   1.00
O8     O     0.19510   0.92060   0.51180   0.01267  Uiso   1.00
