data_image0
_cell_length_a       14.1239
_cell_length_b       18.3243
_cell_length_c       20.6657
_cell_angle_alpha    90
_cell_angle_beta     99.1218
_cell_angle_gamma    90

_symmetry_space_group_name_H-M    "P 1"
_symmetry_int_tables_number       1

loop_
  _symmetry_equiv_pos_as_xyz
  'x, y, z'

loop_
  _atom_site_label
  _atom_site_occupancy
  _atom_site_fract_x
  _atom_site_fract_y
  _atom_site_fract_z
  _atom_site_thermal_displace_type
  _atom_site_B_iso_or_equiv
  _atom_site_type_symbol
  Co1      1.0000 0.72019  0.24478  0.18762  Biso   1.000  Co
  O1       1.0000 0.64482  0.15394  0.15693  Biso   1.000  O
  O2       1.0000 0.49567  0.17310  0.17739  Biso   1.000  O
  O3       1.0000 0.63255  0.31251  0.12935  Biso   1.000  O
  O4       1.0000 0.50864  0.33448  0.18260  Biso   1.000  O
  O5       1.0000 0.78847  0.19329  0.27725  Biso   1.000  O
  O6       1.0000 0.65484  0.25612  0.27448  Biso   1.000  O
  C1       1.0000 0.55600  0.14399  0.14751  Biso   1.000  C
  C2       1.0000 0.51880  0.09102  0.09291  Biso   1.000  C
  C3       1.0000 0.42060  0.08816  0.06775  Biso   1.000  C
  H1       1.0000 0.37690  0.11720  0.08710  Biso   1.000  H
  C4       1.0000 0.38710  0.04427  0.01599  Biso   1.000  C
  H2       1.0000 0.32050  0.04380  0.99910  Biso   1.000  H
  C5       1.0000 0.58170  0.04842  0.06618  Biso   1.000  C
  H3       1.0000 0.64810  0.05060  0.08340  Biso   1.000  H
  C6       1.0000 0.54930  0.00089  0.01297  Biso   1.000  C
  C7       1.0000 0.55850  0.34703  0.13939  Biso   1.000  C
  C8       1.0000 0.52770  0.40950  0.09323  Biso   1.000  C
  C9       1.0000 0.45720  0.45909  0.10799  Biso   1.000  C
  H4       1.0000 0.43120  0.45340  0.14740  Biso   1.000  H
  C10      1.0000 0.42620  0.51492  0.06641  Biso   1.000  C
  H5       1.0000 0.37890  0.54770  0.07710  Biso   1.000  H
  C11      1.0000 0.56600  0.41820  0.03688  Biso   1.000  C
  H6       1.0000 0.61370  0.38510  0.02730  Biso   1.000  H
  C12      1.0000 0.53580  0.47537  0.99284  Biso   1.000  C
  C13      1.0000 0.72590  0.22204  0.30657  Biso   1.000  C
  C14      1.0000 0.74050  0.22078  0.37983  Biso   1.000  C
  C15      1.0000 0.80300  0.16902  0.41418  Biso   1.000  C
  H7       1.0000 0.83260  0.13350  0.39060  Biso   1.000  H
  C16      1.0000 0.82130  0.16943  0.48117  Biso   1.000  C
  H8       1.0000 0.86180  0.13310  0.50370  Biso   1.000  H
  C17      1.0000 0.69860  0.27235  0.41336  Biso   1.000  C
  H9       1.0000 0.65480  0.30600  0.38990  Biso   1.000  H
  C18      1.0000 0.71910  0.27681  0.48287  Biso   1.000  C
  Co2      1.0000 0.22019  0.74478  0.18762  Biso   1.000  Co
  O7       1.0000 0.14482  0.65394  0.15693  Biso   1.000  O
  O8       1.0000 0.99567  0.67310  0.17739  Biso   1.000  O
  O9       1.0000 0.13255  0.81251  0.12935  Biso   1.000  O
  O10      1.0000 0.00864  0.83448  0.18260  Biso   1.000  O
  O11      1.0000 0.28847  0.69329  0.27725  Biso   1.000  O
  O12      1.0000 0.15484  0.75612  0.27448  Biso   1.000  O
  C19      1.0000 0.05600  0.64399  0.14751  Biso   1.000  C
  C20      1.0000 0.01880  0.59102  0.09291  Biso   1.000  C
  C21      1.0000 0.92060  0.58816  0.06775  Biso   1.000  C
  H10      1.0000 0.87690  0.61720  0.08710  Biso   1.000  H
  C22      1.0000 0.88710  0.54427  0.01599  Biso   1.000  C
  H11      1.0000 0.82050  0.54380  0.99910  Biso   1.000  H
  C23      1.0000 0.08170  0.54842  0.06618  Biso   1.000  C
  H12      1.0000 0.14810  0.55060  0.08340  Biso   1.000  H
  C24      1.0000 0.04930  0.50089  0.01297  Biso   1.000  C
  C25      1.0000 0.05850  0.84703  0.13939  Biso   1.000  C
  C26      1.0000 0.02770  0.90950  0.09323  Biso   1.000  C
  C27      1.0000 0.95720  0.95909  0.10799  Biso   1.000  C
  H13      1.0000 0.93120  0.95340  0.14740  Biso   1.000  H
  C28      1.0000 0.92620  0.01492  0.06641  Biso   1.000  C
  H14      1.0000 0.87890  0.04770  0.07710  Biso   1.000  H
  C29      1.0000 0.06600  0.91820  0.03688  Biso   1.000  C
  H15      1.0000 0.11370  0.88510  0.02730  Biso   1.000  H
  C30      1.0000 0.03580  0.97537  0.99284  Biso   1.000  C
  C31      1.0000 0.22590  0.72204  0.30657  Biso   1.000  C
  C32      1.0000 0.24050  0.72078  0.37983  Biso   1.000  C
  C33      1.0000 0.30300  0.66902  0.41418  Biso   1.000  C
  H16      1.0000 0.33260  0.63350  0.39060  Biso   1.000  H
  C34      1.0000 0.32130  0.66943  0.48117  Biso   1.000  C
  H17      1.0000 0.36180  0.63310  0.50370  Biso   1.000  H
  C35      1.0000 0.19860  0.77235  0.41336  Biso   1.000  C
  H18      1.0000 0.15480  0.80600  0.38990  Biso   1.000  H
  C36      1.0000 0.21910  0.77681  0.48287  Biso   1.000  C
  Co3      1.0000 0.27981  0.24478  0.31238  Biso   1.000  Co
  O13      1.0000 0.35518  0.15394  0.34307  Biso   1.000  O
  O14      1.0000 0.50433  0.17310  0.32261  Biso   1.000  O
  O15      1.0000 0.36745  0.31251  0.37065  Biso   1.000  O
  O16      1.0000 0.49136  0.33448  0.31740  Biso   1.000  O
  O17      1.0000 0.21153  0.19329  0.22275  Biso   1.000  O
  O18      1.0000 0.34516  0.25612  0.22552  Biso   1.000  O
  C37      1.0000 0.44400  0.14399  0.35249  Biso   1.000  C
  C38      1.0000 0.48120  0.09102  0.40709  Biso   1.000  C
  C39      1.0000 0.57940  0.08816  0.43225  Biso   1.000  C
  H19      1.0000 0.62310  0.11720  0.41290  Biso   1.000  H
  C40      1.0000 0.61290  0.04427  0.48401  Biso   1.000  C
  H20      1.0000 0.67950  0.04380  0.50090  Biso   1.000  H
  C41      1.0000 0.41830  0.04842  0.43382  Biso   1.000  C
  H21      1.0000 0.35190  0.05060  0.41660  Biso   1.000  H
  C42      1.0000 0.45070  0.00089  0.48703  Biso   1.000  C
  C43      1.0000 0.44150  0.34703  0.36061  Biso   1.000  C
  C44      1.0000 0.47230  0.40950  0.40677  Biso   1.000  C
  C45      1.0000 0.54280  0.45909  0.39201  Biso   1.000  C
  H22      1.0000 0.56880  0.45340  0.35260  Biso   1.000  H
  C46      1.0000 0.57380  0.51492  0.43359  Biso   1.000  C
  H23      1.0000 0.62110  0.54770  0.42290  Biso   1.000  H
  C47      1.0000 0.43400  0.41820  0.46312  Biso   1.000  C
  H24      1.0000 0.38630  0.38510  0.47270  Biso   1.000  H
  C48      1.0000 0.46420  0.47537  0.50716  Biso   1.000  C
  C49      1.0000 0.27410  0.22204  0.19343  Biso   1.000  C
  C50      1.0000 0.25950  0.22078  0.12017  Biso   1.000  C
  C51      1.0000 0.19700  0.16902  0.08582  Biso   1.000  C
  H25      1.0000 0.16740  0.13350  0.10940  Biso   1.000  H
  C52      1.0000 0.17870  0.16943  0.01883  Biso   1.000  C
  H26      1.0000 0.13820  0.13310  0.99630  Biso   1.000  H
  C53      1.0000 0.30140  0.27235  0.08664  Biso   1.000  C
  H27      1.0000 0.34520  0.30600  0.11010  Biso   1.000  H
  C54      1.0000 0.28090  0.27681  0.01713  Biso   1.000  C
  Co4      1.0000 0.77981  0.74478  0.31238  Biso   1.000  Co
  O19      1.0000 0.85518  0.65394  0.34307  Biso   1.000  O
  O20      1.0000 0.00433  0.67310  0.32261  Biso   1.000  O
  O21      1.0000 0.86745  0.81251  0.37065  Biso   1.000  O
  O22      1.0000 0.99136  0.83448  0.31740  Biso   1.000  O
  O23      1.0000 0.71153  0.69329  0.22275  Biso   1.000  O
  O24      1.0000 0.84516  0.75612  0.22552  Biso   1.000  O
  C55      1.0000 0.94400  0.64399  0.35249  Biso   1.000  C
  C56      1.0000 0.98120  0.59102  0.40709  Biso   1.000  C
  C57      1.0000 0.07940  0.58816  0.43225  Biso   1.000  C
  H28      1.0000 0.12310  0.61720  0.41290  Biso   1.000  H
  C58      1.0000 0.11290  0.54427  0.48401  Biso   1.000  C
  H29      1.0000 0.17950  0.54380  0.50090  Biso   1.000  H
  C59      1.0000 0.91830  0.54842  0.43382  Biso   1.000  C
  H30      1.0000 0.85190  0.55060  0.41660  Biso   1.000  H
  C60      1.0000 0.95070  0.50089  0.48703  Biso   1.000  C
  C61      1.0000 0.94150  0.84703  0.36061  Biso   1.000  C
  C62      1.0000 0.97230  0.90950  0.40677  Biso   1.000  C
  C63      1.0000 0.04280  0.95909  0.39201  Biso   1.000  C
  H31      1.0000 0.06880  0.95340  0.35260  Biso   1.000  H
  C64      1.0000 0.07380  0.01492  0.43359  Biso   1.000  C
  H32      1.0000 0.12110  0.04770  0.42290  Biso   1.000  H
  C65      1.0000 0.93400  0.91820  0.46312  Biso   1.000  C
  H33      1.0000 0.88630  0.88510  0.47270  Biso   1.000  H
  C66      1.0000 0.96420  0.97537  0.50716  Biso   1.000  C
  C67      1.0000 0.77410  0.72204  0.19343  Biso   1.000  C
  C68      1.0000 0.75950  0.72078  0.12017  Biso   1.000  C
  C69      1.0000 0.69700  0.66902  0.08582  Biso   1.000  C
  H34      1.0000 0.66740  0.63350  0.10940  Biso   1.000  H
  C70      1.0000 0.67870  0.66943  0.01883  Biso   1.000  C
  H35      1.0000 0.63820  0.63310  0.99630  Biso   1.000  H
  C71      1.0000 0.80140  0.77235  0.08664  Biso   1.000  C
  H36      1.0000 0.84520  0.80600  0.11010  Biso   1.000  H
  C72      1.0000 0.78090  0.77681  0.01713  Biso   1.000  C
  Co5      1.0000 0.27981  0.75522  0.81238  Biso   1.000  Co
  O25      1.0000 0.35518  0.84606  0.84307  Biso   1.000  O
  O26      1.0000 0.50433  0.82690  0.82261  Biso   1.000  O
  O27      1.0000 0.36745  0.68749  0.87065  Biso   1.000  O
  O28      1.0000 0.49136  0.66552  0.81740  Biso   1.000  O
  O29      1.0000 0.21153  0.80671  0.72275  Biso   1.000  O
  O30      1.0000 0.34516  0.74388  0.72552  Biso   1.000  O
  C73      1.0000 0.44400  0.85601  0.85249  Biso   1.000  C
  C74      1.0000 0.48120  0.90898  0.90709  Biso   1.000  C
  C75      1.0000 0.57940  0.91184  0.93225  Biso   1.000  C
  H37      1.0000 0.62310  0.88280  0.91290  Biso   1.000  H
  C76      1.0000 0.61290  0.95573  0.98401  Biso   1.000  C
  H38      1.0000 0.67950  0.95620  0.00090  Biso   1.000  H
  C77      1.0000 0.41830  0.95158  0.93382  Biso   1.000  C
  H39      1.0000 0.35190  0.94940  0.91660  Biso   1.000  H
  C78      1.0000 0.45070  0.99911  0.98703  Biso   1.000  C
  C79      1.0000 0.44150  0.65297  0.86061  Biso   1.000  C
  C80      1.0000 0.47230  0.59050  0.90677  Biso   1.000  C
  C81      1.0000 0.54280  0.54091  0.89201  Biso   1.000  C
  H40      1.0000 0.56880  0.54660  0.85260  Biso   1.000  H
  C82      1.0000 0.57380  0.48508  0.93359  Biso   1.000  C
  H41      1.0000 0.62110  0.45230  0.92290  Biso   1.000  H
  C83      1.0000 0.43400  0.58180  0.96312  Biso   1.000  C
  H42      1.0000 0.38630  0.61490  0.97270  Biso   1.000  H
  C84      1.0000 0.46420  0.52463  0.00716  Biso   1.000  C
  C85      1.0000 0.27410  0.77796  0.69343  Biso   1.000  C
  C86      1.0000 0.25950  0.77922  0.62017  Biso   1.000  C
  C87      1.0000 0.19700  0.83098  0.58582  Biso   1.000  C
  H43      1.0000 0.16740  0.86650  0.60940  Biso   1.000  H
  C88      1.0000 0.17870  0.83057  0.51883  Biso   1.000  C
  H44      1.0000 0.13820  0.86690  0.49630  Biso   1.000  H
  C89      1.0000 0.30140  0.72765  0.58664  Biso   1.000  C
  H45      1.0000 0.34520  0.69400  0.61010  Biso   1.000  H
  C90      1.0000 0.28090  0.72319  0.51713  Biso   1.000  C
  Co6      1.0000 0.77981  0.25522  0.81238  Biso   1.000  Co
  O31      1.0000 0.85518  0.34606  0.84307  Biso   1.000  O
  O32      1.0000 0.00433  0.32690  0.82261  Biso   1.000  O
  O33      1.0000 0.86745  0.18749  0.87065  Biso   1.000  O
  O34      1.0000 0.99136  0.16552  0.81740  Biso   1.000  O
  O35      1.0000 0.71153  0.30671  0.72275  Biso   1.000  O
  O36      1.0000 0.84516  0.24388  0.72552  Biso   1.000  O
  C91      1.0000 0.94400  0.35601  0.85249  Biso   1.000  C
  C92      1.0000 0.98120  0.40898  0.90709  Biso   1.000  C
  C93      1.0000 0.07940  0.41184  0.93225  Biso   1.000  C
  H46      1.0000 0.12310  0.38280  0.91290  Biso   1.000  H
  C94      1.0000 0.11290  0.45573  0.98401  Biso   1.000  C
  H47      1.0000 0.17950  0.45620  0.00090  Biso   1.000  H
  C95      1.0000 0.91830  0.45158  0.93382  Biso   1.000  C
  H48      1.0000 0.85190  0.44940  0.91660  Biso   1.000  H
  C96      1.0000 0.95070  0.49911  0.98703  Biso   1.000  C
  C97      1.0000 0.94150  0.15297  0.86061  Biso   1.000  C
  C98      1.0000 0.97230  0.09050  0.90677  Biso   1.000  C
  C99      1.0000 0.04280  0.04091  0.89201  Biso   1.000  C
  H49      1.0000 0.06880  0.04660  0.85260  Biso   1.000  H
  C100     1.0000 0.07380  0.98508  0.93359  Biso   1.000  C
  H50      1.0000 0.12110  0.95230  0.92290  Biso   1.000  H
  C101     1.0000 0.93400  0.08180  0.96312  Biso   1.000  C
  H51      1.0000 0.88630  0.11490  0.97270  Biso   1.000  H
  C102     1.0000 0.96420  0.02463  0.00716  Biso   1.000  C
  C103     1.0000 0.77410  0.27796  0.69343  Biso   1.000  C
  C104     1.0000 0.75950  0.27922  0.62017  Biso   1.000  C
  C105     1.0000 0.69700  0.33098  0.58582  Biso   1.000  C
  H52      1.0000 0.66740  0.36650  0.60940  Biso   1.000  H
  C106     1.0000 0.67870  0.33057  0.51883  Biso   1.000  C
  H53      1.0000 0.63820  0.36690  0.49630  Biso   1.000  H
  C107     1.0000 0.80140  0.22765  0.58664  Biso   1.000  C
  H54      1.0000 0.84520  0.19400  0.61010  Biso   1.000  H
  C108     1.0000 0.78090  0.22319  0.51713  Biso   1.000  C
  Co7      1.0000 0.72019  0.75522  0.68762  Biso   1.000  Co
  O37      1.0000 0.64482  0.84606  0.65693  Biso   1.000  O
  O38      1.0000 0.49567  0.82690  0.67739  Biso   1.000  O
  O39      1.0000 0.63255  0.68749  0.62935  Biso   1.000  O
  O40      1.0000 0.50864  0.66552  0.68260  Biso   1.000  O
  O41      1.0000 0.78847  0.80671  0.77725  Biso   1.000  O
  O42      1.0000 0.65484  0.74388  0.77448  Biso   1.000  O
  C109     1.0000 0.55600  0.85601  0.64751  Biso   1.000  C
  C110     1.0000 0.51880  0.90898  0.59291  Biso   1.000  C
  C111     1.0000 0.42060  0.91184  0.56775  Biso   1.000  C
  H55      1.0000 0.37690  0.88280  0.58710  Biso   1.000  H
  C112     1.0000 0.38710  0.95573  0.51599  Biso   1.000  C
  H56      1.0000 0.32050  0.95620  0.49910  Biso   1.000  H
  C113     1.0000 0.58170  0.95158  0.56618  Biso   1.000  C
  H57      1.0000 0.64810  0.94940  0.58340  Biso   1.000  H
  C114     1.0000 0.54930  0.99911  0.51297  Biso   1.000  C
  C115     1.0000 0.55850  0.65297  0.63939  Biso   1.000  C
  C116     1.0000 0.52770  0.59050  0.59323  Biso   1.000  C
  C117     1.0000 0.45720  0.54091  0.60799  Biso   1.000  C
  H58      1.0000 0.43120  0.54660  0.64740  Biso   1.000  H
  C118     1.0000 0.42620  0.48508  0.56641  Biso   1.000  C
  H59      1.0000 0.37890  0.45230  0.57710  Biso   1.000  H
  C119     1.0000 0.56600  0.58180  0.53688  Biso   1.000  C
  H60      1.0000 0.61370  0.61490  0.52730  Biso   1.000  H
  C120     1.0000 0.53580  0.52463  0.49284  Biso   1.000  C
  C121     1.0000 0.72590  0.77796  0.80657  Biso   1.000  C
  C122     1.0000 0.74050  0.77922  0.87983  Biso   1.000  C
  C123     1.0000 0.80300  0.83098  0.91418  Biso   1.000  C
  H61      1.0000 0.83260  0.86650  0.89060  Biso   1.000  H
  C124     1.0000 0.82130  0.83057  0.98117  Biso   1.000  C
  H62      1.0000 0.86180  0.86690  0.00370  Biso   1.000  H
  C125     1.0000 0.69860  0.72765  0.91336  Biso   1.000  C
  H63      1.0000 0.65480  0.69400  0.88990  Biso   1.000  H
  C126     1.0000 0.71910  0.72319  0.98287  Biso   1.000  C
  Co8      1.0000 0.22019  0.25522  0.68762  Biso   1.000  Co
  O43      1.0000 0.14482  0.34606  0.65693  Biso   1.000  O
  O44      1.0000 0.99567  0.32690  0.67739  Biso   1.000  O
  O45      1.0000 0.13255  0.18749  0.62935  Biso   1.000  O
  O46      1.0000 0.00864  0.16552  0.68260  Biso   1.000  O
  O47      1.0000 0.28847  0.30671  0.77725  Biso   1.000  O
  O48      1.0000 0.15484  0.24388  0.77448  Biso   1.000  O
  C127     1.0000 0.05600  0.35601  0.64751  Biso   1.000  C
  C128     1.0000 0.01880  0.40898  0.59291  Biso   1.000  C
  C129     1.0000 0.92060  0.41184  0.56775  Biso   1.000  C
  H64      1.0000 0.87690  0.38280  0.58710  Biso   1.000  H
  C130     1.0000 0.88710  0.45573  0.51599  Biso   1.000  C
  H65      1.0000 0.82050  0.45620  0.49910  Biso   1.000  H
  C131     1.0000 0.08170  0.45158  0.56618  Biso   1.000  C
  H66      1.0000 0.14810  0.44940  0.58340  Biso   1.000  H
  C132     1.0000 0.04930  0.49911  0.51297  Biso   1.000  C
  C133     1.0000 0.05850  0.15297  0.63939  Biso   1.000  C
  C134     1.0000 0.02770  0.09050  0.59323  Biso   1.000  C
  C135     1.0000 0.95720  0.04091  0.60799  Biso   1.000  C
  H67      1.0000 0.93120  0.04660  0.64740  Biso   1.000  H
  C136     1.0000 0.92620  0.98508  0.56641  Biso   1.000  C
  H68      1.0000 0.87890  0.95230  0.57710  Biso   1.000  H
  C137     1.0000 0.06600  0.08180  0.53688  Biso   1.000  C
  H69      1.0000 0.11370  0.11490  0.52730  Biso   1.000  H
  C138     1.0000 0.03580  0.02463  0.49284  Biso   1.000  C
  C139     1.0000 0.22590  0.27796  0.80657  Biso   1.000  C
  C140     1.0000 0.24050  0.27922  0.87983  Biso   1.000  C
  C141     1.0000 0.30300  0.33098  0.91418  Biso   1.000  C
  H70      1.0000 0.33260  0.36650  0.89060  Biso   1.000  H
  C142     1.0000 0.32130  0.33057  0.98117  Biso   1.000  C
  H71      1.0000 0.36180  0.36690  0.00370  Biso   1.000  H
  C143     1.0000 0.19860  0.22765  0.91336  Biso   1.000  C
  H72      1.0000 0.15480  0.19400  0.88990  Biso   1.000  H
  C144     1.0000 0.21910  0.22319  0.98287  Biso   1.000  C
  Co9      1.0000 0.50000  0.25167  0.25000  Biso   1.000  Co
  Co10     1.0000 0.00000  0.75167  0.25000  Biso   1.000  Co
  Co11     1.0000 0.50000  0.74833  0.75000  Biso   1.000  Co
  Co12     1.0000 0.00000  0.24833  0.75000  Biso   1.000  Co
