data_XIHSEN01_clean
_audit_creation_date              2014-07-02
_audit_creation_method            'Materials Studio'
_symmetry_space_group_name_H-M    'P1'
_symmetry_Int_Tables_number       1
_symmetry_cell_setting            triclinic
loop_
_symmetry_equiv_pos_as_xyz
  x,y,z
_cell_length_a                    11.2200
_cell_length_b                    11.2200
_cell_length_c                    21.1490
_cell_angle_alpha                 95.7329
_cell_angle_beta                  95.7329
_cell_angle_gamma                 107.1070
loop_
_atom_site_label
_atom_site_type_symbol
_atom_site_fract_x
_atom_site_fract_y
_atom_site_fract_z
_atom_site_U_iso_or_equiv
_atom_site_adp_type
_atom_site_occupancy
Co1    Co    0.01988   0.50526   0.80707   0.01267  Uiso   1.00
Co2    Co    0.49474   0.98012   0.69293   0.01267  Uiso   1.00
Co3    Co    0.98012   0.49474   0.19293   0.01267  Uiso   1.00
Co4    Co    0.50526   0.01988   0.30707   0.01267  Uiso   1.00
Co5    Co    0.24716   0.75284   0.75000   0.01267  Uiso   1.00
Co6    Co    0.75284   0.24716   0.25000   0.01267  Uiso   1.00
H1     H     0.04840   0.65200   0.60910   0.01267  Uiso   1.00
H2     H     0.03060   0.74320   0.50640   0.01267  Uiso   1.00
H3     H     0.00620   0.71920   0.39690   0.01267  Uiso   1.00
H4     H     0.23830   0.01010   0.52950   0.01267  Uiso   1.00
H5     H     0.17020   0.06480   0.42280   0.01267  Uiso   1.00
H6     H     0.51870   0.73350   0.90540   0.01267  Uiso   1.00
H7     H     0.28570   0.39510   0.92300   0.01267  Uiso   1.00
H8     H     0.34300   0.27780   0.00970   0.01267  Uiso   1.00
H9     H     0.98200   0.90060   0.64700   0.01267  Uiso   1.00
H10    H     0.34800   0.95160   0.89090   0.01267  Uiso   1.00
H11    H     0.25680   0.96940   0.99360   0.01267  Uiso   1.00
H12    H     0.28080   0.99380   0.10310   0.01267  Uiso   1.00
H13    H     0.98990   0.76170   0.97050   0.01267  Uiso   1.00
H14    H     0.93520   0.82980   0.07720   0.01267  Uiso   1.00
H15    H     0.26650   0.48130   0.59460   0.01267  Uiso   1.00
H16    H     0.60490   0.71430   0.57700   0.01267  Uiso   1.00
H17    H     0.72220   0.65700   0.49030   0.01267  Uiso   1.00
H18    H     0.09940   0.01800   0.85300   0.01267  Uiso   1.00
H19    H     0.95160   0.34800   0.39090   0.01267  Uiso   1.00
H20    H     0.96940   0.25680   0.49360   0.01267  Uiso   1.00
H21    H     0.99380   0.28080   0.60310   0.01267  Uiso   1.00
H22    H     0.76170   0.98990   0.47050   0.01267  Uiso   1.00
H23    H     0.82980   0.93520   0.57720   0.01267  Uiso   1.00
H24    H     0.48130   0.26650   0.09460   0.01267  Uiso   1.00
H25    H     0.71430   0.60490   0.07700   0.01267  Uiso   1.00
H26    H     0.65700   0.72220   0.99030   0.01267  Uiso   1.00
H27    H     0.01800   0.09940   0.35300   0.01267  Uiso   1.00
H28    H     0.65200   0.04840   0.10910   0.01267  Uiso   1.00
H29    H     0.74320   0.03060   0.00640   0.01267  Uiso   1.00
H30    H     0.71920   0.00620   0.89690   0.01267  Uiso   1.00
H31    H     0.01010   0.23830   0.02950   0.01267  Uiso   1.00
H32    H     0.06480   0.17020   0.92280   0.01267  Uiso   1.00
H33    H     0.73350   0.51870   0.40540   0.01267  Uiso   1.00
H34    H     0.39510   0.28570   0.42300   0.01267  Uiso   1.00
H35    H     0.27780   0.34300   0.50970   0.01267  Uiso   1.00
H36    H     0.90060   0.98200   0.14700   0.01267  Uiso   1.00
C1     C     0.01140   0.56040   0.51773   0.01267  Uiso   1.00
C2     C     0.03070   0.57290   0.58549   0.01267  Uiso   1.00
C3     C     0.03390   0.48350   0.68820   0.01267  Uiso   1.00
C4     C     0.01630   0.66390   0.48370   0.01267  Uiso   1.00
C5     C     0.02370   0.47130   0.61675   0.01267  Uiso   1.00
C6     C     0.00080   0.64980   0.41835   0.01267  Uiso   1.00
C7     C     0.06170   0.01250   0.49200   0.01267  Uiso   1.00
C8     C     0.22260   0.92080   0.64003   0.01267  Uiso   1.00
C9     C     0.15590   0.99310   0.53830   0.01267  Uiso   1.00
C10    C     0.12640   0.95100   0.59390   0.01267  Uiso   1.00
C11    C     0.08950   0.05170   0.43350   0.01267  Uiso   1.00
C12    C     0.44410   0.45070   0.98987   0.01267  Uiso   1.00
C13    C     0.50020   0.66300   0.92670   0.01267  Uiso   1.00
C14    C     0.38750   0.56490   0.90634   0.01267  Uiso   1.00
C15    C     0.35980   0.46040   0.93689   0.01267  Uiso   1.00
C16    C     0.29440   0.57680   0.85160   0.01267  Uiso   1.00
C17    C     0.41720   0.34360   0.02270   0.01267  Uiso   1.00
C18    C     0.00200   0.92880   0.60840   0.01267  Uiso   1.00
C19    C     0.43960   0.98860   0.98227   0.01267  Uiso   1.00
C20    C     0.42710   0.96930   0.91451   0.01267  Uiso   1.00
C21    C     0.51650   0.96610   0.81180   0.01267  Uiso   1.00
C22    C     0.33610   0.98370   0.01630   0.01267  Uiso   1.00
C23    C     0.52870   0.97630   0.88325   0.01267  Uiso   1.00
C24    C     0.35020   0.99920   0.08165   0.01267  Uiso   1.00
C25    C     0.98750   0.93830   0.00800   0.01267  Uiso   1.00
C26    C     0.07920   0.77740   0.85997   0.01267  Uiso   1.00
C27    C     0.00690   0.84410   0.96170   0.01267  Uiso   1.00
C28    C     0.04900   0.87360   0.90610   0.01267  Uiso   1.00
C29    C     0.94830   0.91050   0.06650   0.01267  Uiso   1.00
C30    C     0.54930   0.55590   0.51013   0.01267  Uiso   1.00
C31    C     0.33700   0.49980   0.57330   0.01267  Uiso   1.00
C32    C     0.43510   0.61250   0.59366   0.01267  Uiso   1.00
C33    C     0.53960   0.64020   0.56311   0.01267  Uiso   1.00
C34    C     0.42320   0.70560   0.64840   0.01267  Uiso   1.00
C35    C     0.65640   0.58280   0.47730   0.01267  Uiso   1.00
C36    C     0.07120   0.99800   0.89160   0.01267  Uiso   1.00
C37    C     0.98860   0.43960   0.48227   0.01267  Uiso   1.00
C38    C     0.96930   0.42710   0.41451   0.01267  Uiso   1.00
C39    C     0.96610   0.51650   0.31180   0.01267  Uiso   1.00
C40    C     0.98370   0.33610   0.51630   0.01267  Uiso   1.00
C41    C     0.97630   0.52870   0.38325   0.01267  Uiso   1.00
C42    C     0.99920   0.35020   0.58165   0.01267  Uiso   1.00
C43    C     0.93830   0.98750   0.50800   0.01267  Uiso   1.00
C44    C     0.77740   0.07920   0.35997   0.01267  Uiso   1.00
C45    C     0.84410   0.00690   0.46170   0.01267  Uiso   1.00
C46    C     0.87360   0.04900   0.40610   0.01267  Uiso   1.00
C47    C     0.91050   0.94830   0.56650   0.01267  Uiso   1.00
C48    C     0.55590   0.54930   0.01013   0.01267  Uiso   1.00
C49    C     0.49980   0.33700   0.07330   0.01267  Uiso   1.00
C50    C     0.61250   0.43510   0.09366   0.01267  Uiso   1.00
C51    C     0.64020   0.53960   0.06311   0.01267  Uiso   1.00
C52    C     0.70560   0.42320   0.14840   0.01267  Uiso   1.00
C53    C     0.58280   0.65640   0.97730   0.01267  Uiso   1.00
C54    C     0.99800   0.07120   0.39160   0.01267  Uiso   1.00
C55    C     0.56040   0.01140   0.01773   0.01267  Uiso   1.00
C56    C     0.57290   0.03070   0.08549   0.01267  Uiso   1.00
C57    C     0.48350   0.03390   0.18820   0.01267  Uiso   1.00
C58    C     0.66390   0.01630   0.98370   0.01267  Uiso   1.00
C59    C     0.47130   0.02370   0.11675   0.01267  Uiso   1.00
C60    C     0.64980   0.00080   0.91835   0.01267  Uiso   1.00
C61    C     0.01250   0.06170   0.99200   0.01267  Uiso   1.00
C62    C     0.92080   0.22260   0.14003   0.01267  Uiso   1.00
C63    C     0.99310   0.15590   0.03830   0.01267  Uiso   1.00
C64    C     0.95100   0.12640   0.09390   0.01267  Uiso   1.00
C65    C     0.05170   0.08950   0.93350   0.01267  Uiso   1.00
C66    C     0.45070   0.44410   0.48987   0.01267  Uiso   1.00
C67    C     0.66300   0.50020   0.42670   0.01267  Uiso   1.00
C68    C     0.56490   0.38750   0.40634   0.01267  Uiso   1.00
C69    C     0.46040   0.35980   0.43689   0.01267  Uiso   1.00
C70    C     0.57680   0.29440   0.35160   0.01267  Uiso   1.00
C71    C     0.34360   0.41720   0.52270   0.01267  Uiso   1.00
C72    C     0.92880   0.00200   0.10840   0.01267  Uiso   1.00
O1     O     0.07760   0.59220   0.72111   0.01267  Uiso   1.00
O2     O     0.18157   0.86063   0.68366   0.01267  Uiso   1.00
O3     O     0.99421   0.38819   0.71490   0.01267  Uiso   1.00
O4     O     0.19065   0.49115   0.84102   0.01267  Uiso   1.00
O5     O     0.32825   0.66855   0.82247   0.01267  Uiso   1.00
O6     O     0.33700   0.95960   0.63034   0.01267  Uiso   1.00
O7     O     0.40780   0.92240   0.77889   0.01267  Uiso   1.00
O8     O     0.13937   0.81843   0.81634   0.01267  Uiso   1.00
O9     O     0.61181   0.00579   0.78510   0.01267  Uiso   1.00
O10    O     0.50885   0.80935   0.65898   0.01267  Uiso   1.00
O11    O     0.33145   0.67175   0.67753   0.01267  Uiso   1.00
O12    O     0.04040   0.66300   0.86966   0.01267  Uiso   1.00
O13    O     0.92240   0.40780   0.27889   0.01267  Uiso   1.00
O14    O     0.81843   0.13937   0.31634   0.01267  Uiso   1.00
O15    O     0.00579   0.61181   0.28510   0.01267  Uiso   1.00
O16    O     0.80935   0.50885   0.15898   0.01267  Uiso   1.00
O17    O     0.67175   0.33145   0.17753   0.01267  Uiso   1.00
O18    O     0.66300   0.04040   0.36966   0.01267  Uiso   1.00
O19    O     0.59220   0.07760   0.22111   0.01267  Uiso   1.00
O20    O     0.86063   0.18157   0.18366   0.01267  Uiso   1.00
O21    O     0.38819   0.99421   0.21490   0.01267  Uiso   1.00
O22    O     0.49115   0.19065   0.34102   0.01267  Uiso   1.00
O23    O     0.66855   0.32825   0.32247   0.01267  Uiso   1.00
O24    O     0.95960   0.33700   0.13034   0.01267  Uiso   1.00
