data_XIHSEN_clean
_audit_creation_date              2014-07-02
_audit_creation_method            'Materials Studio'
_symmetry_space_group_name_H-M    'P1'
_symmetry_Int_Tables_number       1
_symmetry_cell_setting            triclinic
loop_
_symmetry_equiv_pos_as_xyz
  x,y,z
_cell_length_a                    11.2363
_cell_length_b                    11.2363
_cell_length_c                    20.9320
_cell_angle_alpha                 95.5265
_cell_angle_beta                  95.5265
_cell_angle_gamma                 106.9770
loop_
_atom_site_label
_atom_site_type_symbol
_atom_site_fract_x
_atom_site_fract_y
_atom_site_fract_z
_atom_site_U_iso_or_equiv
_atom_site_adp_type
_atom_site_occupancy
Co1    Co    0.51029   0.02373   0.80839   0.01267  Uiso   1.00
Co2    Co    0.97627   0.48971   0.69161   0.01267  Uiso   1.00
Co3    Co    0.48971   0.97627   0.19161   0.01267  Uiso   1.00
Co4    Co    0.02373   0.51029   0.30839   0.01267  Uiso   1.00
Co5    Co    0.75194   0.24806   0.75000   0.01267  Uiso   1.00
Co6    Co    0.24806   0.75194   0.25000   0.01267  Uiso   1.00
H1     H     0.73360   0.51940   0.90410   0.01267  Uiso   1.00
H2     H     0.72300   0.65560   0.99050   0.01267  Uiso   1.00
H3     H     0.39780   0.28780   0.92240   0.01267  Uiso   1.00
H4     H     0.65360   0.04800   0.60920   0.01267  Uiso   1.00
H5     H     0.74210   0.02730   0.50550   0.01267  Uiso   1.00
H6     H     0.28420   0.99660   0.60570   0.01267  Uiso   1.00
H7     H     0.01230   0.23770   0.53040   0.01267  Uiso   1.00
H8     H     0.07220   0.17240   0.42340   0.01267  Uiso   1.00
H9     H     0.89200   0.97880   0.64680   0.01267  Uiso   1.00
H10    H     0.48060   0.26640   0.59590   0.01267  Uiso   1.00
H11    H     0.34440   0.27700   0.50950   0.01267  Uiso   1.00
H12    H     0.71220   0.60220   0.57760   0.01267  Uiso   1.00
H13    H     0.95200   0.34640   0.89080   0.01267  Uiso   1.00
H14    H     0.97270   0.25790   0.99450   0.01267  Uiso   1.00
H15    H     0.00340   0.71580   0.89430   0.01267  Uiso   1.00
H16    H     0.76230   0.98770   0.96960   0.01267  Uiso   1.00
H17    H     0.82760   0.92780   0.07660   0.01267  Uiso   1.00
H18    H     0.02120   0.10800   0.85320   0.01267  Uiso   1.00
H19    H     0.26640   0.48060   0.09590   0.01267  Uiso   1.00
H20    H     0.27700   0.34440   0.00950   0.01267  Uiso   1.00
H21    H     0.60220   0.71220   0.07760   0.01267  Uiso   1.00
H22    H     0.34640   0.95200   0.39080   0.01267  Uiso   1.00
H23    H     0.25790   0.97270   0.49450   0.01267  Uiso   1.00
H24    H     0.71580   0.00340   0.39430   0.01267  Uiso   1.00
H25    H     0.98770   0.76230   0.46960   0.01267  Uiso   1.00
H26    H     0.92780   0.82760   0.57660   0.01267  Uiso   1.00
H27    H     0.10800   0.02120   0.35320   0.01267  Uiso   1.00
H28    H     0.51940   0.73360   0.40410   0.01267  Uiso   1.00
H29    H     0.65560   0.72300   0.49050   0.01267  Uiso   1.00
H30    H     0.28780   0.39780   0.42240   0.01267  Uiso   1.00
H31    H     0.04800   0.65360   0.10920   0.01267  Uiso   1.00
H32    H     0.02730   0.74210   0.00550   0.01267  Uiso   1.00
H33    H     0.99660   0.28420   0.10570   0.01267  Uiso   1.00
H34    H     0.23770   0.01230   0.03040   0.01267  Uiso   1.00
H35    H     0.17240   0.07220   0.92340   0.01267  Uiso   1.00
H36    H     0.97880   0.89200   0.14680   0.01267  Uiso   1.00
C1     C     0.57850   0.29610   0.85070   0.01267  Uiso   1.00
C2     C     0.56640   0.38960   0.90510   0.01267  Uiso   1.00
C3     C     0.66330   0.50050   0.92580   0.01267  Uiso   1.00
C4     C     0.65690   0.58230   0.97730   0.01267  Uiso   1.00
C5     C     0.54950   0.55550   0.01070   0.01267  Uiso   1.00
C6     C     0.46220   0.36200   0.93620   0.01267  Uiso   1.00
C7     C     0.48720   0.03620   0.69010   0.01267  Uiso   1.00
C8     C     0.47350   0.02650   0.61820   0.01267  Uiso   1.00
C9     C     0.57440   0.03140   0.58590   0.01267  Uiso   1.00
C10    C     0.56000   0.01140   0.51750   0.01267  Uiso   1.00
C11    C     0.66290   0.01430   0.48290   0.01267  Uiso   1.00
C12    C     0.35300   0.00180   0.58350   0.01267  Uiso   1.00
C13    C     0.91480   0.22120   0.64010   0.01267  Uiso   1.00
C14    C     0.94600   0.12320   0.59440   0.01267  Uiso   1.00
C15    C     0.99260   0.15480   0.53870   0.01267  Uiso   1.00
C16    C     0.01170   0.06190   0.49260   0.01267  Uiso   1.00
C17    C     0.05660   0.09100   0.43370   0.01267  Uiso   1.00
C18    C     0.92250   0.99970   0.60830   0.01267  Uiso   1.00
C19    C     0.70390   0.42150   0.64930   0.01267  Uiso   1.00
C20    C     0.61040   0.43360   0.59490   0.01267  Uiso   1.00
C21    C     0.49950   0.33670   0.57420   0.01267  Uiso   1.00
C22    C     0.41770   0.34310   0.52270   0.01267  Uiso   1.00
C23    C     0.44450   0.45050   0.48930   0.01267  Uiso   1.00
C24    C     0.63800   0.53780   0.56380   0.01267  Uiso   1.00
C25    C     0.96380   0.51280   0.80990   0.01267  Uiso   1.00
C26    C     0.97350   0.52650   0.88180   0.01267  Uiso   1.00
C27    C     0.96860   0.42560   0.91410   0.01267  Uiso   1.00
C28    C     0.98860   0.44000   0.98250   0.01267  Uiso   1.00
C29    C     0.98570   0.33710   0.01710   0.01267  Uiso   1.00
C30    C     0.99820   0.64700   0.91650   0.01267  Uiso   1.00
C31    C     0.77880   0.08520   0.85990   0.01267  Uiso   1.00
C32    C     0.87680   0.05400   0.90560   0.01267  Uiso   1.00
C33    C     0.84520   0.00740   0.96130   0.01267  Uiso   1.00
C34    C     0.93810   0.98830   0.00740   0.01267  Uiso   1.00
C35    C     0.90900   0.94340   0.06630   0.01267  Uiso   1.00
C36    C     0.00030   0.07750   0.89170   0.01267  Uiso   1.00
C37    C     0.42150   0.70390   0.14930   0.01267  Uiso   1.00
C38    C     0.43360   0.61040   0.09490   0.01267  Uiso   1.00
C39    C     0.33670   0.49950   0.07420   0.01267  Uiso   1.00
C40    C     0.34310   0.41770   0.02270   0.01267  Uiso   1.00
C41    C     0.45050   0.44450   0.98930   0.01267  Uiso   1.00
C42    C     0.53780   0.63800   0.06380   0.01267  Uiso   1.00
C43    C     0.51280   0.96380   0.30990   0.01267  Uiso   1.00
C44    C     0.52650   0.97350   0.38180   0.01267  Uiso   1.00
C45    C     0.42560   0.96860   0.41410   0.01267  Uiso   1.00
C46    C     0.44000   0.98860   0.48250   0.01267  Uiso   1.00
C47    C     0.33710   0.98570   0.51710   0.01267  Uiso   1.00
C48    C     0.64700   0.99820   0.41650   0.01267  Uiso   1.00
C49    C     0.08520   0.77880   0.35990   0.01267  Uiso   1.00
C50    C     0.05400   0.87680   0.40560   0.01267  Uiso   1.00
C51    C     0.00740   0.84520   0.46130   0.01267  Uiso   1.00
C52    C     0.98830   0.93810   0.50740   0.01267  Uiso   1.00
C53    C     0.94340   0.90900   0.56630   0.01267  Uiso   1.00
C54    C     0.07750   0.00030   0.39170   0.01267  Uiso   1.00
C55    C     0.29610   0.57850   0.35070   0.01267  Uiso   1.00
C56    C     0.38960   0.56640   0.40510   0.01267  Uiso   1.00
C57    C     0.50050   0.66330   0.42580   0.01267  Uiso   1.00
C58    C     0.58230   0.65690   0.47730   0.01267  Uiso   1.00
C59    C     0.55550   0.54950   0.51070   0.01267  Uiso   1.00
C60    C     0.36200   0.46220   0.43620   0.01267  Uiso   1.00
C61    C     0.03620   0.48720   0.19010   0.01267  Uiso   1.00
C62    C     0.02650   0.47350   0.11820   0.01267  Uiso   1.00
C63    C     0.03140   0.57440   0.08590   0.01267  Uiso   1.00
C64    C     0.01140   0.56000   0.01750   0.01267  Uiso   1.00
C65    C     0.01430   0.66290   0.98290   0.01267  Uiso   1.00
C66    C     0.00180   0.35300   0.08350   0.01267  Uiso   1.00
C67    C     0.22120   0.91480   0.14010   0.01267  Uiso   1.00
C68    C     0.12320   0.94600   0.09440   0.01267  Uiso   1.00
C69    C     0.15480   0.99260   0.03870   0.01267  Uiso   1.00
C70    C     0.06190   0.01170   0.99260   0.01267  Uiso   1.00
C71    C     0.09100   0.05660   0.93370   0.01267  Uiso   1.00
C72    C     0.99970   0.92250   0.10830   0.01267  Uiso   1.00
O1     O     0.49420   0.19320   0.84056   0.01267  Uiso   1.00
O2     O     0.67254   0.32986   0.82152   0.01267  Uiso   1.00
O3     O     0.59562   0.08178   0.72338   0.01267  Uiso   1.00
O4     O     0.39207   0.99513   0.71767   0.01267  Uiso   1.00
O5     O     0.85205   0.17735   0.68424   0.01267  Uiso   1.00
O6     O     0.95270   0.33230   0.62986   0.01267  Uiso   1.00
O7     O     0.80680   0.50580   0.65944   0.01267  Uiso   1.00
O8     O     0.67014   0.32746   0.67848   0.01267  Uiso   1.00
O9     O     0.91822   0.40438   0.77662   0.01267  Uiso   1.00
O10    O     0.00487   0.60793   0.78233   0.01267  Uiso   1.00
O11    O     0.82265   0.14795   0.81576   0.01267  Uiso   1.00
O12    O     0.66770   0.04730   0.87014   0.01267  Uiso   1.00
O13    O     0.50580   0.80680   0.15944   0.01267  Uiso   1.00
O14    O     0.32746   0.67014   0.17848   0.01267  Uiso   1.00
O15    O     0.40438   0.91822   0.27662   0.01267  Uiso   1.00
O16    O     0.60793   0.00487   0.28233   0.01267  Uiso   1.00
O17    O     0.14795   0.82265   0.31576   0.01267  Uiso   1.00
O18    O     0.04730   0.66770   0.37014   0.01267  Uiso   1.00
O19    O     0.19320   0.49420   0.34056   0.01267  Uiso   1.00
O20    O     0.32986   0.67254   0.32152   0.01267  Uiso   1.00
O21    O     0.08178   0.59562   0.22338   0.01267  Uiso   1.00
O22    O     0.99513   0.39207   0.21767   0.01267  Uiso   1.00
O23    O     0.17735   0.85205   0.18424   0.01267  Uiso   1.00
O24    O     0.33230   0.95270   0.12986   0.01267  Uiso   1.00
