data_XIHSAJ_clean
_audit_creation_date              2014-07-02
_audit_creation_method            'Materials Studio'
_symmetry_space_group_name_H-M    'P1'
_symmetry_Int_Tables_number       1
_symmetry_cell_setting            triclinic
loop_
_symmetry_equiv_pos_as_xyz
  x,y,z
_cell_length_a                    11.6636
_cell_length_b                    11.6636
_cell_length_c                    20.6300
_cell_angle_alpha                 95.4501
_cell_angle_beta                  95.4501
_cell_angle_gamma                 104.5990
loop_
_atom_site_label
_atom_site_type_symbol
_atom_site_fract_x
_atom_site_fract_y
_atom_site_fract_z
_atom_site_U_iso_or_equiv
_atom_site_adp_type
_atom_site_occupancy
Co1    Co    0.02763   0.53615   0.31331   0.01267  Uiso   1.00
Co2    Co    0.46385   0.97237   0.18669   0.01267  Uiso   1.00
Co3    Co    0.97237   0.46385   0.68669   0.01267  Uiso   1.00
Co4    Co    0.53615   0.02763   0.81331   0.01267  Uiso   1.00
Co5    Co    0.25153   0.74847   0.25000   0.01267  Uiso   1.00
Co6    Co    0.74847   0.25153   0.75000   0.01267  Uiso   1.00
H1     H     0.90340   0.80420   0.41730   0.01267  Uiso   1.00
H2     H     0.22030   0.13350   0.50060   0.01267  Uiso   1.00
H3     H     0.23840   0.00320   0.41440   0.01267  Uiso   1.00
H4     H     0.52180   0.61580   0.35360   0.01267  Uiso   1.00
H5     H     0.66470   0.57030   0.42180   0.01267  Uiso   1.00
H6     H     0.27440   0.49980   0.47210   0.01267  Uiso   1.00
H7     H     0.46200   0.19440   0.39020   0.01267  Uiso   1.00
H8     H     0.49460   0.22420   0.50260   0.01267  Uiso   1.00
H9     H     0.46280   0.85100   0.39060   0.01267  Uiso   1.00
H10    H     0.19580   0.09660   0.08270   0.01267  Uiso   1.00
H11    H     0.86650   0.77970   0.99940   0.01267  Uiso   1.00
H12    H     0.99680   0.76160   0.08560   0.01267  Uiso   1.00
H13    H     0.38420   0.47820   0.14640   0.01267  Uiso   1.00
H14    H     0.42970   0.33530   0.07820   0.01267  Uiso   1.00
H15    H     0.50020   0.72560   0.02790   0.01267  Uiso   1.00
H16    H     0.80560   0.53800   0.10980   0.01267  Uiso   1.00
H17    H     0.77580   0.50540   0.99740   0.01267  Uiso   1.00
H18    H     0.14900   0.53720   0.10940   0.01267  Uiso   1.00
H19    H     0.09660   0.19580   0.58270   0.01267  Uiso   1.00
H20    H     0.77970   0.86650   0.49940   0.01267  Uiso   1.00
H21    H     0.76160   0.99680   0.58560   0.01267  Uiso   1.00
H22    H     0.47820   0.38420   0.64640   0.01267  Uiso   1.00
H23    H     0.33530   0.42970   0.57820   0.01267  Uiso   1.00
H24    H     0.72560   0.50020   0.52790   0.01267  Uiso   1.00
H25    H     0.53800   0.80560   0.60980   0.01267  Uiso   1.00
H26    H     0.50540   0.77580   0.49740   0.01267  Uiso   1.00
H27    H     0.53720   0.14900   0.60940   0.01267  Uiso   1.00
H28    H     0.80420   0.90340   0.91730   0.01267  Uiso   1.00
H29    H     0.13350   0.22030   0.00060   0.01267  Uiso   1.00
H30    H     0.00320   0.23840   0.91440   0.01267  Uiso   1.00
H31    H     0.61580   0.52180   0.85360   0.01267  Uiso   1.00
H32    H     0.57030   0.66470   0.92180   0.01267  Uiso   1.00
H33    H     0.49980   0.27440   0.97210   0.01267  Uiso   1.00
H34    H     0.19440   0.46200   0.89020   0.01267  Uiso   1.00
H35    H     0.22420   0.49460   0.00260   0.01267  Uiso   1.00
H36    H     0.85100   0.46280   0.89060   0.01267  Uiso   1.00
C1     C     0.08830   0.79950   0.35370   0.01267  Uiso   1.00
C2     C     0.07160   0.88920   0.40730   0.01267  Uiso   1.00
C3     C     0.96610   0.87010   0.43410   0.01267  Uiso   1.00
C4     C     0.15640   0.06820   0.48430   0.01267  Uiso   1.00
C5     C     0.16720   0.99000   0.43290   0.01267  Uiso   1.00
C6     C     0.95130   0.94950   0.48700   0.01267  Uiso   1.00
C7     C     0.28830   0.59410   0.36040   0.01267  Uiso   1.00
C8     C     0.38200   0.56360   0.40660   0.01267  Uiso   1.00
C9     C     0.50170   0.58390   0.39190   0.01267  Uiso   1.00
C10    C     0.58740   0.55740   0.43270   0.01267  Uiso   1.00
C11    C     0.55910   0.50990   0.49230   0.01267  Uiso   1.00
C12    C     0.35300   0.51580   0.46290   0.01267  Uiso   1.00
C13    C     0.44590   0.00170   0.30650   0.01267  Uiso   1.00
C14    C     0.45980   0.01760   0.37960   0.01267  Uiso   1.00
C15    C     0.46960   0.13160   0.41350   0.01267  Uiso   1.00
C16    C     0.49010   0.14950   0.48060   0.01267  Uiso   1.00
C17    C     0.47110   0.92590   0.41330   0.01267  Uiso   1.00
C18    C     0.50450   0.05730   0.51650   0.01267  Uiso   1.00
C19    C     0.20050   0.91170   0.14630   0.01267  Uiso   1.00
C20    C     0.11080   0.92840   0.09270   0.01267  Uiso   1.00
C21    C     0.12990   0.03390   0.06590   0.01267  Uiso   1.00
C22    C     0.93180   0.84360   0.01570   0.01267  Uiso   1.00
C23    C     0.01000   0.83280   0.06710   0.01267  Uiso   1.00
C24    C     0.05050   0.04870   0.01300   0.01267  Uiso   1.00
C25    C     0.40590   0.71170   0.13960   0.01267  Uiso   1.00
C26    C     0.43640   0.61800   0.09340   0.01267  Uiso   1.00
C27    C     0.41610   0.49830   0.10810   0.01267  Uiso   1.00
C28    C     0.44260   0.41260   0.06730   0.01267  Uiso   1.00
C29    C     0.49010   0.44090   0.00770   0.01267  Uiso   1.00
C30    C     0.48420   0.64700   0.03710   0.01267  Uiso   1.00
C31    C     0.99830   0.55410   0.19350   0.01267  Uiso   1.00
C32    C     0.98240   0.54020   0.12040   0.01267  Uiso   1.00
C33    C     0.86840   0.53040   0.08650   0.01267  Uiso   1.00
C34    C     0.85050   0.50990   0.01940   0.01267  Uiso   1.00
C35    C     0.07410   0.52890   0.08670   0.01267  Uiso   1.00
C36    C     0.94270   0.49550   0.98350   0.01267  Uiso   1.00
C37    C     0.91170   0.20050   0.64630   0.01267  Uiso   1.00
C38    C     0.92840   0.11080   0.59270   0.01267  Uiso   1.00
C39    C     0.03390   0.12990   0.56590   0.01267  Uiso   1.00
C40    C     0.84360   0.93180   0.51570   0.01267  Uiso   1.00
C41    C     0.83280   0.01000   0.56710   0.01267  Uiso   1.00
C42    C     0.04870   0.05050   0.51300   0.01267  Uiso   1.00
C43    C     0.71170   0.40590   0.63960   0.01267  Uiso   1.00
C44    C     0.61800   0.43640   0.59340   0.01267  Uiso   1.00
C45    C     0.49830   0.41610   0.60810   0.01267  Uiso   1.00
C46    C     0.41260   0.44260   0.56730   0.01267  Uiso   1.00
C47    C     0.44090   0.49010   0.50770   0.01267  Uiso   1.00
C48    C     0.64700   0.48420   0.53710   0.01267  Uiso   1.00
C49    C     0.55410   0.99830   0.69350   0.01267  Uiso   1.00
C50    C     0.54020   0.98240   0.62040   0.01267  Uiso   1.00
C51    C     0.53040   0.86840   0.58650   0.01267  Uiso   1.00
C52    C     0.50990   0.85050   0.51940   0.01267  Uiso   1.00
C53    C     0.52890   0.07410   0.58670   0.01267  Uiso   1.00
C54    C     0.49550   0.94270   0.48350   0.01267  Uiso   1.00
C55    C     0.79950   0.08830   0.85370   0.01267  Uiso   1.00
C56    C     0.88920   0.07160   0.90730   0.01267  Uiso   1.00
C57    C     0.87010   0.96610   0.93410   0.01267  Uiso   1.00
C58    C     0.06820   0.15640   0.98430   0.01267  Uiso   1.00
C59    C     0.99000   0.16720   0.93290   0.01267  Uiso   1.00
C60    C     0.94950   0.95130   0.98700   0.01267  Uiso   1.00
C61    C     0.59410   0.28830   0.86040   0.01267  Uiso   1.00
C62    C     0.56360   0.38200   0.90660   0.01267  Uiso   1.00
C63    C     0.58390   0.50170   0.89190   0.01267  Uiso   1.00
C64    C     0.55740   0.58740   0.93270   0.01267  Uiso   1.00
C65    C     0.50990   0.55910   0.99230   0.01267  Uiso   1.00
C66    C     0.51580   0.35300   0.96290   0.01267  Uiso   1.00
C67    C     0.00170   0.44590   0.80650   0.01267  Uiso   1.00
C68    C     0.01760   0.45980   0.87960   0.01267  Uiso   1.00
C69    C     0.13160   0.46960   0.91350   0.01267  Uiso   1.00
C70    C     0.14950   0.49010   0.98060   0.01267  Uiso   1.00
C71    C     0.92590   0.47110   0.91330   0.01267  Uiso   1.00
C72    C     0.05730   0.50450   0.01650   0.01267  Uiso   1.00
O1     O     0.17720   0.83080   0.32250   0.01267  Uiso   1.00
O2     O     0.01160   0.70060   0.34500   0.01267  Uiso   1.00
O3     O     0.32480   0.65660   0.31740   0.01267  Uiso   1.00
O4     O     0.18210   0.55450   0.37100   0.01267  Uiso   1.00
O5     O     0.41000   0.89700   0.27465   0.01267  Uiso   1.00
O6     O     0.47980   0.09140   0.27670   0.01267  Uiso   1.00
O7     O     0.16920   0.82280   0.17750   0.01267  Uiso   1.00
O8     O     0.29940   0.98840   0.15500   0.01267  Uiso   1.00
O9     O     0.34340   0.67520   0.18260   0.01267  Uiso   1.00
O10    O     0.44550   0.81790   0.12900   0.01267  Uiso   1.00
O11    O     0.10300   0.59000   0.22535   0.01267  Uiso   1.00
O12    O     0.90860   0.52020   0.22330   0.01267  Uiso   1.00
O13    O     0.82280   0.16920   0.67750   0.01267  Uiso   1.00
O14    O     0.98840   0.29940   0.65500   0.01267  Uiso   1.00
O15    O     0.67520   0.34340   0.68260   0.01267  Uiso   1.00
O16    O     0.81790   0.44550   0.62900   0.01267  Uiso   1.00
O17    O     0.59000   0.10300   0.72535   0.01267  Uiso   1.00
O18    O     0.52020   0.90860   0.72330   0.01267  Uiso   1.00
O19    O     0.83080   0.17720   0.82250   0.01267  Uiso   1.00
O20    O     0.70060   0.01160   0.84500   0.01267  Uiso   1.00
O21    O     0.65660   0.32480   0.81740   0.01267  Uiso   1.00
O22    O     0.55450   0.18210   0.87100   0.01267  Uiso   1.00
O23    O     0.89700   0.41000   0.77465   0.01267  Uiso   1.00
O24    O     0.09140   0.47980   0.77670   0.01267  Uiso   1.00
