data_image0
_cell_length_a       21.703
_cell_length_b       20.062
_cell_length_c       22.121
_cell_angle_alpha    90
_cell_angle_beta     108.799
_cell_angle_gamma    90

_symmetry_space_group_name_H-M    "P 1"
_symmetry_int_tables_number       1

loop_
  _symmetry_equiv_pos_as_xyz
  'x, y, z'

loop_
  _atom_site_label
  _atom_site_occupancy
  _atom_site_fract_x
  _atom_site_fract_y
  _atom_site_fract_z
  _atom_site_thermal_displace_type
  _atom_site_B_iso_or_equiv
  _atom_site_type_symbol
  Zn1      1.0000 0.13937  0.66255  0.94414  Biso   1.000  Zn
  Zn2      1.0000 0.60202  0.86219  0.74017  Biso   1.000  Zn
  C1       1.0000 0.27805  0.42294  0.02273  Biso   1.000  C
  C2       1.0000 0.29995  0.40663  0.97331  Biso   1.000  C
  H1       1.0000 0.30070  0.43870  0.94200  Biso   1.000  H
  C3       1.0000 0.32133  0.34090  0.97001  Biso   1.000  C
  C4       1.0000 0.32219  0.29411  0.01674  Biso   1.000  C
  H2       1.0000 0.33820  0.25030  0.01520  Biso   1.000  H
  C5       1.0000 0.29903  0.31318  0.06545  Biso   1.000  C
  C6       1.0000 0.27652  0.37732  0.06981  Biso   1.000  C
  H3       1.0000 0.26070  0.38960  0.10360  Biso   1.000  H
  C7       1.0000 0.21487  0.52510  0.97968  Biso   1.000  C
  H4       1.0000 0.19870  0.51080  0.93650  Biso   1.000  H
  C8       1.0000 0.23513  0.58377  0.06562  Biso   1.000  C
  H5       1.0000 0.23530  0.61960  0.09380  Biso   1.000  H
  C9       1.0000 0.26861  0.52636  0.08293  Biso   1.000  C
  H6       1.0000 0.29550  0.51420  0.12460  Biso   1.000  H
  C10      1.0000 0.36852  0.36260  0.88340  Biso   1.000  C
  H7       1.0000 0.37530  0.40910  0.89070  Biso   1.000  H
  C11      1.0000 0.36491  0.26281  0.84424  Biso   1.000  C
  H8       1.0000 0.36890  0.22690  0.81780  Biso   1.000  H
  C12      1.0000 0.34263  0.25792  0.89432  Biso   1.000  C
  H9       1.0000 0.32840  0.21850  0.90970  Biso   1.000  H
  C13      1.0000 0.34999  0.22636  0.14500  Biso   1.000  C
  H10      1.0000 0.38930  0.22270  0.13510  Biso   1.000  H
  C14      1.0000 0.27518  0.21256  0.18958  Biso   1.000  C
  H11      1.0000 0.25320  0.19650  0.21750  Biso   1.000  H
  C15      1.0000 0.25106  0.25817  0.14274  Biso   1.000  C
  H12      1.0000 0.21000  0.27980  0.13160  Biso   1.000  H
  C16      1.0000 0.04556  0.64368  0.14492  Biso   1.000  C
  C17      1.0000 0.01555  0.58154  0.13485  Biso   1.000  C
  H13      1.0000 0.01020  0.55770  0.09640  Biso   1.000  H
  C18      1.0000 0.99352  0.55491  0.18216  Biso   1.000  C
  C19      1.0000 0.00012  0.58971  0.23823  Biso   1.000  C
  H14      1.0000 0.98380  0.57180  0.26980  Biso   1.000  H
  C20      1.0000 0.03069  0.65049  0.24695  Biso   1.000  C
  C21      1.0000 0.05350  0.67941  0.20056  Biso   1.000  C
  H15      1.0000 0.07370  0.72200  0.20700  Biso   1.000  H
  C22      1.0000 0.09105  0.64176  0.05534  Biso   1.000  C
  H16      1.0000 0.09660  0.59490  0.05400  Biso   1.000  H
  C23      1.0000 0.08913  0.74761  0.03464  Biso   1.000  C
  H17      1.0000 0.09390  0.78880  0.01540  Biso   1.000  H
  C24      1.0000 0.06430  0.74056  0.08272  Biso   1.000  C
  H18      1.0000 0.04860  0.77510  0.10330  Biso   1.000  H
  C25      1.0000 0.93225  0.46092  0.11602  Biso   1.000  C
  H19      1.0000 0.92990  0.47880  0.07560  Biso   1.000  H
  C26      1.0000 0.92089  0.39675  0.19021  Biso   1.000  C
  H20      1.0000 0.90830  0.36000  0.21070  Biso   1.000  H
  C27      1.0000 0.95481  0.44996  0.22019  Biso   1.000  C
  H21      1.0000 0.97050  0.45770  0.26490  Biso   1.000  H
  C28      1.0000 0.08948  0.72379  0.33797  Biso   1.000  C
  H22      1.0000 0.12940  0.72590  0.32890  Biso   1.000  H
  C29      1.0000 0.01552  0.73948  0.38178  Biso   1.000  C
  H23      1.0000 0.99370  0.75480  0.41010  Biso   1.000  H
  C30      1.0000 0.98951  0.69781  0.33165  Biso   1.000  C
  H24      1.0000 0.94690  0.67940  0.31820  Biso   1.000  H
  C31      1.0000 0.32786  0.70216  0.83517  Biso   1.000  C
  C32      1.0000 0.36030  0.75571  0.81905  Biso   1.000  C
  H25      1.0000 0.35910  0.79890  0.83620  Biso   1.000  H
  C33      1.0000 0.39468  0.74337  0.77654  Biso   1.000  C
  C34      1.0000 0.39561  0.68086  0.74971  Biso   1.000  C
  H26      1.0000 0.41820  0.67360  0.71990  Biso   1.000  H
  C35      1.0000 0.36241  0.62918  0.76787  Biso   1.000  C
  C36      1.0000 0.32849  0.63855  0.81035  Biso   1.000  C
  H27      1.0000 0.30630  0.60270  0.82230  Biso   1.000  H
  C37      1.0000 0.23997  0.67827  0.88072  Biso   1.000  C
  H28      1.0000 0.22080  0.64260  0.85280  Biso   1.000  H
  C38      1.0000 0.26062  0.75252  0.95557  Biso   1.000  C
  H29      1.0000 0.25740  0.77820  0.99050  Biso   1.000  H
  C39      1.0000 0.30630  0.76037  0.92763  Biso   1.000  C
  H30      1.0000 0.34060  0.79210  0.93850  Biso   1.000  H
  C40      1.0000 0.49042  0.78810  0.75507  Biso   1.000  C
  H31      1.0000 0.51350  0.74710  0.76050  Biso   1.000  H
  C41      1.0000 0.46376  0.89282  0.73821  Biso   1.000  C
  H32      1.0000 0.46600  0.93900  0.72960  Biso   1.000  H
  C42      1.0000 0.41312  0.86215  0.74898  Biso   1.000  C
  H33      1.0000 0.37350  0.88220  0.74910  Biso   1.000  H
  C43      1.0000 0.37442  0.50765  0.77518  Biso   1.000  C
  H34      1.0000 0.37660  0.50410  0.81870  Biso   1.000  H
  C44      1.0000 0.37537  0.48346  0.67992  Biso   1.000  C
  H35      1.0000 0.37860  0.45920  0.64420  Biso   1.000  H
  C45      1.0000 0.36500  0.55009  0.68138  Biso   1.000  C
  H36      1.0000 0.35900  0.58070  0.64720  Biso   1.000  H
  N1       1.0000 0.20057  0.58302  0.00101  Biso   1.000  N
  N2       1.0000 0.25578  0.48904  0.02799  Biso   1.000  N
  N3       1.0000 0.38121  0.32940  0.83737  Biso   1.000  N
  N4       1.0000 0.34449  0.32168  0.91888  Biso   1.000  N
  N5       1.0000 0.33673  0.19280  0.19065  Biso   1.000  N
  N6       1.0000 0.29961  0.26677  0.11415  Biso   1.000  N
  N7       1.0000 0.10675  0.68539  0.01742  Biso   1.000  N
  N8       1.0000 0.06603  0.67372  0.09628  Biso   1.000  N
  N9       1.0000 0.90701  0.40386  0.12464  Biso   1.000  N
  N10      1.0000 0.96234  0.49108  0.17315  Biso   1.000  N
  N11      1.0000 0.07761  0.75613  0.38561  Biso   1.000  N
  N12      1.0000 0.03734  0.68774  0.30426  Biso   1.000  N
  N13      1.0000 0.21858  0.70127  0.92616  Biso   1.000  N
  N14      1.0000 0.29360  0.71301  0.87951  Biso   1.000  N
  N15      1.0000 0.51243  0.84610  0.74173  Biso   1.000  N
  N16      1.0000 0.43012  0.79605  0.75974  Biso   1.000  N
  N17      1.0000 0.38042  0.45686  0.73863  Biso   1.000  N
  N18      1.0000 0.36483  0.56430  0.74172  Biso   1.000  N
  Zn3      1.0000 0.86063  0.16255  0.55586  Biso   1.000  Zn
  Zn4      1.0000 0.39798  0.36219  0.75982  Biso   1.000  Zn
  C46      1.0000 0.72195  0.92294  0.47727  Biso   1.000  C
  C47      1.0000 0.70005  0.90663  0.52669  Biso   1.000  C
  H37      1.0000 0.69930  0.93870  0.55800  Biso   1.000  H
  C48      1.0000 0.67867  0.84090  0.52999  Biso   1.000  C
  C49      1.0000 0.67781  0.79411  0.48326  Biso   1.000  C
  H38      1.0000 0.66180  0.75030  0.48480  Biso   1.000  H
  C50      1.0000 0.70097  0.81318  0.43455  Biso   1.000  C
  C51      1.0000 0.72348  0.87732  0.43019  Biso   1.000  C
  H39      1.0000 0.73930  0.88960  0.39640  Biso   1.000  H
  C52      1.0000 0.78513  0.02510  0.52032  Biso   1.000  C
  H40      1.0000 0.80130  0.01080  0.56350  Biso   1.000  H
  C53      1.0000 0.76487  0.08377  0.43438  Biso   1.000  C
  H41      1.0000 0.76470  0.11960  0.40620  Biso   1.000  H
  C54      1.0000 0.73139  0.02636  0.41707  Biso   1.000  C
  H42      1.0000 0.70450  0.01420  0.37540  Biso   1.000  H
  C55      1.0000 0.63148  0.86260  0.61660  Biso   1.000  C
  H43      1.0000 0.62470  0.90910  0.60930  Biso   1.000  H
  C56      1.0000 0.63509  0.76281  0.65576  Biso   1.000  C
  H44      1.0000 0.63110  0.72690  0.68220  Biso   1.000  H
  C57      1.0000 0.65737  0.75792  0.60568  Biso   1.000  C
  H45      1.0000 0.67160  0.71850  0.59030  Biso   1.000  H
  C58      1.0000 0.65001  0.72636  0.35500  Biso   1.000  C
  H46      1.0000 0.61070  0.72270  0.36490  Biso   1.000  H
  C59      1.0000 0.72482  0.71256  0.31042  Biso   1.000  C
  H47      1.0000 0.74680  0.69650  0.28250  Biso   1.000  H
  C60      1.0000 0.74894  0.75817  0.35726  Biso   1.000  C
  H48      1.0000 0.79000  0.77980  0.36840  Biso   1.000  H
  C61      1.0000 0.95444  0.14368  0.35508  Biso   1.000  C
  C62      1.0000 0.98445  0.08154  0.36515  Biso   1.000  C
  H49      1.0000 0.98980  0.05770  0.40360  Biso   1.000  H
  C63      1.0000 0.00648  0.05491  0.31784  Biso   1.000  C
  C64      1.0000 0.99988  0.08971  0.26177  Biso   1.000  C
  H50      1.0000 0.01620  0.07180  0.23020  Biso   1.000  H
  C65      1.0000 0.96931  0.15049  0.25305  Biso   1.000  C
  C66      1.0000 0.94650  0.17941  0.29944  Biso   1.000  C
  H51      1.0000 0.92630  0.22200  0.29300  Biso   1.000  H
  C67      1.0000 0.90895  0.14176  0.44466  Biso   1.000  C
  H52      1.0000 0.90340  0.09490  0.44600  Biso   1.000  H
  C68      1.0000 0.91087  0.24761  0.46536  Biso   1.000  C
  H53      1.0000 0.90610  0.28880  0.48460  Biso   1.000  H
  C69      1.0000 0.93570  0.24056  0.41728  Biso   1.000  C
  H54      1.0000 0.95140  0.27510  0.39670  Biso   1.000  H
  C70      1.0000 0.06775  0.96092  0.38398  Biso   1.000  C
  H55      1.0000 0.07010  0.97880  0.42440  Biso   1.000  H
  C71      1.0000 0.07911  0.89675  0.30979  Biso   1.000  C
  H56      1.0000 0.09170  0.86000  0.28930  Biso   1.000  H
  C72      1.0000 0.04519  0.94996  0.27981  Biso   1.000  C
  H57      1.0000 0.02950  0.95770  0.23510  Biso   1.000  H
  C73      1.0000 0.91052  0.22379  0.16203  Biso   1.000  C
  H58      1.0000 0.87060  0.22590  0.17110  Biso   1.000  H
  C74      1.0000 0.98448  0.23948  0.11822  Biso   1.000  C
  H59      1.0000 0.00630  0.25480  0.08990  Biso   1.000  H
  C75      1.0000 0.01049  0.19781  0.16835  Biso   1.000  C
  H60      1.0000 0.05310  0.17940  0.18180  Biso   1.000  H
  C76      1.0000 0.67214  0.20216  0.66483  Biso   1.000  C
  C77      1.0000 0.63970  0.25571  0.68095  Biso   1.000  C
  H61      1.0000 0.64090  0.29890  0.66380  Biso   1.000  H
  C78      1.0000 0.60532  0.24337  0.72346  Biso   1.000  C
  C79      1.0000 0.60439  0.18086  0.75029  Biso   1.000  C
  H62      1.0000 0.58180  0.17360  0.78010  Biso   1.000  H
  C80      1.0000 0.63759  0.12918  0.73213  Biso   1.000  C
  C81      1.0000 0.67151  0.13855  0.68965  Biso   1.000  C
  H63      1.0000 0.69370  0.10270  0.67770  Biso   1.000  H
  C82      1.0000 0.76003  0.17827  0.61928  Biso   1.000  C
  H64      1.0000 0.77920  0.14260  0.64720  Biso   1.000  H
  C83      1.0000 0.73938  0.25252  0.54443  Biso   1.000  C
  H65      1.0000 0.74260  0.27820  0.50950  Biso   1.000  H
  C84      1.0000 0.69370  0.26037  0.57237  Biso   1.000  C
  H66      1.0000 0.65940  0.29210  0.56150  Biso   1.000  H
  C85      1.0000 0.50958  0.28810  0.74493  Biso   1.000  C
  H67      1.0000 0.48650  0.24710  0.73950  Biso   1.000  H
  C86      1.0000 0.53624  0.39282  0.76179  Biso   1.000  C
  H68      1.0000 0.53400  0.43900  0.77040  Biso   1.000  H
  C87      1.0000 0.58688  0.36215  0.75102  Biso   1.000  C
  H69      1.0000 0.62650  0.38220  0.75090  Biso   1.000  H
  C88      1.0000 0.62558  0.00765  0.72482  Biso   1.000  C
  H70      1.0000 0.62340  0.00410  0.68130  Biso   1.000  H
  C89      1.0000 0.62463  0.98346  0.82008  Biso   1.000  C
  H71      1.0000 0.62140  0.95920  0.85580  Biso   1.000  H
  C90      1.0000 0.63500  0.05009  0.81862  Biso   1.000  C
  H72      1.0000 0.64100  0.08070  0.85280  Biso   1.000  H
  N19      1.0000 0.79943  0.08302  0.49899  Biso   1.000  N
  N20      1.0000 0.74422  0.98904  0.47201  Biso   1.000  N
  N21      1.0000 0.61879  0.82940  0.66263  Biso   1.000  N
  N22      1.0000 0.65551  0.82168  0.58112  Biso   1.000  N
  N23      1.0000 0.66327  0.69280  0.30935  Biso   1.000  N
  N24      1.0000 0.70039  0.76677  0.38585  Biso   1.000  N
  N25      1.0000 0.89325  0.18539  0.48258  Biso   1.000  N
  N26      1.0000 0.93397  0.17372  0.40372  Biso   1.000  N
  N27      1.0000 0.09299  0.90386  0.37536  Biso   1.000  N
  N28      1.0000 0.03766  0.99108  0.32685  Biso   1.000  N
  N29      1.0000 0.92239  0.25613  0.11439  Biso   1.000  N
  N30      1.0000 0.96266  0.18774  0.19574  Biso   1.000  N
  N31      1.0000 0.78142  0.20127  0.57384  Biso   1.000  N
  N32      1.0000 0.70640  0.21301  0.62049  Biso   1.000  N
  N33      1.0000 0.48757  0.34610  0.75827  Biso   1.000  N
  N34      1.0000 0.56988  0.29605  0.74026  Biso   1.000  N
  N35      1.0000 0.61958  0.95686  0.76137  Biso   1.000  N
  N36      1.0000 0.63517  0.06430  0.75828  Biso   1.000  N
  Zn5      1.0000 0.86063  0.33745  0.05586  Biso   1.000  Zn
  Zn6      1.0000 0.39798  0.13781  0.25982  Biso   1.000  Zn
  C91      1.0000 0.72195  0.57706  0.97727  Biso   1.000  C
  C92      1.0000 0.70005  0.59337  0.02669  Biso   1.000  C
  H73      1.0000 0.69930  0.56130  0.05800  Biso   1.000  H
  C93      1.0000 0.67867  0.65910  0.02999  Biso   1.000  C
  C94      1.0000 0.67781  0.70589  0.98326  Biso   1.000  C
  H74      1.0000 0.66180  0.74970  0.98480  Biso   1.000  H
  C95      1.0000 0.70097  0.68682  0.93455  Biso   1.000  C
  C96      1.0000 0.72348  0.62268  0.93019  Biso   1.000  C
  H75      1.0000 0.73930  0.61040  0.89640  Biso   1.000  H
  C97      1.0000 0.78513  0.47490  0.02032  Biso   1.000  C
  H76      1.0000 0.80130  0.48920  0.06350  Biso   1.000  H
  C98      1.0000 0.76487  0.41623  0.93438  Biso   1.000  C
  H77      1.0000 0.76470  0.38040  0.90620  Biso   1.000  H
  C99      1.0000 0.73139  0.47364  0.91707  Biso   1.000  C
  H78      1.0000 0.70450  0.48580  0.87540  Biso   1.000  H
  C100     1.0000 0.63148  0.63740  0.11660  Biso   1.000  C
  H79      1.0000 0.62470  0.59090  0.10930  Biso   1.000  H
  C101     1.0000 0.63509  0.73719  0.15576  Biso   1.000  C
  H80      1.0000 0.63110  0.77310  0.18220  Biso   1.000  H
  C102     1.0000 0.65737  0.74208  0.10568  Biso   1.000  C
  H81      1.0000 0.67160  0.78150  0.09030  Biso   1.000  H
  C103     1.0000 0.65001  0.77364  0.85500  Biso   1.000  C
  H82      1.0000 0.61070  0.77730  0.86490  Biso   1.000  H
  C104     1.0000 0.72482  0.78744  0.81042  Biso   1.000  C
  H83      1.0000 0.74680  0.80350  0.78250  Biso   1.000  H
  C105     1.0000 0.74894  0.74183  0.85726  Biso   1.000  C
  H84      1.0000 0.79000  0.72020  0.86840  Biso   1.000  H
  C106     1.0000 0.95444  0.35632  0.85508  Biso   1.000  C
  C107     1.0000 0.98445  0.41846  0.86515  Biso   1.000  C
  H85      1.0000 0.98980  0.44230  0.90360  Biso   1.000  H
  C108     1.0000 0.00648  0.44509  0.81784  Biso   1.000  C
  C109     1.0000 0.99988  0.41029  0.76177  Biso   1.000  C
  H86      1.0000 0.01620  0.42820  0.73020  Biso   1.000  H
  C110     1.0000 0.96931  0.34951  0.75305  Biso   1.000  C
  C111     1.0000 0.94650  0.32059  0.79944  Biso   1.000  C
  H87      1.0000 0.92630  0.27800  0.79300  Biso   1.000  H
  C112     1.0000 0.90895  0.35824  0.94466  Biso   1.000  C
  H88      1.0000 0.90340  0.40510  0.94600  Biso   1.000  H
  C113     1.0000 0.91087  0.25239  0.96536  Biso   1.000  C
  H89      1.0000 0.90610  0.21120  0.98460  Biso   1.000  H
  C114     1.0000 0.93570  0.25944  0.91728  Biso   1.000  C
  H90      1.0000 0.95140  0.22490  0.89670  Biso   1.000  H
  C115     1.0000 0.06775  0.53908  0.88398  Biso   1.000  C
  H91      1.0000 0.07010  0.52120  0.92440  Biso   1.000  H
  C116     1.0000 0.07911  0.60325  0.80979  Biso   1.000  C
  H92      1.0000 0.09170  0.64000  0.78930  Biso   1.000  H
  C117     1.0000 0.04519  0.55004  0.77981  Biso   1.000  C
  H93      1.0000 0.02950  0.54230  0.73510  Biso   1.000  H
  C118     1.0000 0.91052  0.27621  0.66203  Biso   1.000  C
  H94      1.0000 0.87060  0.27410  0.67110  Biso   1.000  H
  C119     1.0000 0.98448  0.26052  0.61822  Biso   1.000  C
  H95      1.0000 0.00630  0.24520  0.58990  Biso   1.000  H
  C120     1.0000 0.01049  0.30219  0.66835  Biso   1.000  C
  H96      1.0000 0.05310  0.32060  0.68180  Biso   1.000  H
  C121     1.0000 0.67214  0.29784  0.16483  Biso   1.000  C
  C122     1.0000 0.63970  0.24429  0.18095  Biso   1.000  C
  H97      1.0000 0.64090  0.20110  0.16380  Biso   1.000  H
  C123     1.0000 0.60532  0.25663  0.22346  Biso   1.000  C
  C124     1.0000 0.60439  0.31914  0.25029  Biso   1.000  C
  H98      1.0000 0.58180  0.32640  0.28010  Biso   1.000  H
  C125     1.0000 0.63759  0.37082  0.23213  Biso   1.000  C
  C126     1.0000 0.67151  0.36145  0.18965  Biso   1.000  C
  H99      1.0000 0.69370  0.39730  0.17770  Biso   1.000  H
  C127     1.0000 0.76003  0.32173  0.11928  Biso   1.000  C
  H100     1.0000 0.77920  0.35740  0.14720  Biso   1.000  H
  C128     1.0000 0.73938  0.24748  0.04443  Biso   1.000  C
  H101     1.0000 0.74260  0.22180  0.00950  Biso   1.000  H
  C129     1.0000 0.69370  0.23963  0.07237  Biso   1.000  C
  H102     1.0000 0.65940  0.20790  0.06150  Biso   1.000  H
  C130     1.0000 0.50958  0.21190  0.24493  Biso   1.000  C
  H103     1.0000 0.48650  0.25290  0.23950  Biso   1.000  H
  C131     1.0000 0.53624  0.10718  0.26179  Biso   1.000  C
  H104     1.0000 0.53400  0.06100  0.27040  Biso   1.000  H
  C132     1.0000 0.58688  0.13785  0.25102  Biso   1.000  C
  H105     1.0000 0.62650  0.11780  0.25090  Biso   1.000  H
  C133     1.0000 0.62558  0.49235  0.22482  Biso   1.000  C
  H106     1.0000 0.62340  0.49590  0.18130  Biso   1.000  H
  C134     1.0000 0.62463  0.51654  0.32008  Biso   1.000  C
  H107     1.0000 0.62140  0.54080  0.35580  Biso   1.000  H
  C135     1.0000 0.63500  0.44991  0.31862  Biso   1.000  C
  H108     1.0000 0.64100  0.41930  0.35280  Biso   1.000  H
  N37      1.0000 0.79943  0.41698  0.99899  Biso   1.000  N
  N38      1.0000 0.74422  0.51096  0.97201  Biso   1.000  N
  N39      1.0000 0.61879  0.67060  0.16263  Biso   1.000  N
  N40      1.0000 0.65551  0.67832  0.08112  Biso   1.000  N
  N41      1.0000 0.66327  0.80720  0.80935  Biso   1.000  N
  N42      1.0000 0.70039  0.73323  0.88585  Biso   1.000  N
  N43      1.0000 0.89325  0.31461  0.98258  Biso   1.000  N
  N44      1.0000 0.93397  0.32628  0.90372  Biso   1.000  N
  N45      1.0000 0.09299  0.59614  0.87536  Biso   1.000  N
  N46      1.0000 0.03766  0.50892  0.82685  Biso   1.000  N
  N47      1.0000 0.92239  0.24387  0.61439  Biso   1.000  N
  N48      1.0000 0.96266  0.31226  0.69574  Biso   1.000  N
  N49      1.0000 0.78142  0.29873  0.07384  Biso   1.000  N
  N50      1.0000 0.70640  0.28699  0.12049  Biso   1.000  N
  N51      1.0000 0.48757  0.15390  0.25827  Biso   1.000  N
  N52      1.0000 0.56988  0.20395  0.24026  Biso   1.000  N
  N53      1.0000 0.61958  0.54314  0.26137  Biso   1.000  N
  N54      1.0000 0.63517  0.43570  0.25828  Biso   1.000  N
  Zn7      1.0000 0.13937  0.83745  0.44414  Biso   1.000  Zn
  Zn8      1.0000 0.60202  0.63781  0.24017  Biso   1.000  Zn
  C136     1.0000 0.27805  0.07706  0.52273  Biso   1.000  C
  C137     1.0000 0.29995  0.09337  0.47331  Biso   1.000  C
  H109     1.0000 0.30070  0.06130  0.44200  Biso   1.000  H
  C138     1.0000 0.32133  0.15910  0.47001  Biso   1.000  C
  C139     1.0000 0.32219  0.20589  0.51674  Biso   1.000  C
  H110     1.0000 0.33820  0.24970  0.51520  Biso   1.000  H
  C140     1.0000 0.29903  0.18682  0.56545  Biso   1.000  C
  C141     1.0000 0.27652  0.12268  0.56981  Biso   1.000  C
  H111     1.0000 0.26070  0.11040  0.60360  Biso   1.000  H
  C142     1.0000 0.21487  0.97490  0.47968  Biso   1.000  C
  H112     1.0000 0.19870  0.98920  0.43650  Biso   1.000  H
  C143     1.0000 0.23513  0.91623  0.56562  Biso   1.000  C
  H113     1.0000 0.23530  0.88040  0.59380  Biso   1.000  H
  C144     1.0000 0.26861  0.97364  0.58293  Biso   1.000  C
  H114     1.0000 0.29550  0.98580  0.62460  Biso   1.000  H
  C145     1.0000 0.36852  0.13740  0.38340  Biso   1.000  C
  H115     1.0000 0.37530  0.09090  0.39070  Biso   1.000  H
  C146     1.0000 0.36491  0.23719  0.34424  Biso   1.000  C
  H116     1.0000 0.36890  0.27310  0.31780  Biso   1.000  H
  C147     1.0000 0.34263  0.24208  0.39432  Biso   1.000  C
  H117     1.0000 0.32840  0.28150  0.40970  Biso   1.000  H
  C148     1.0000 0.34999  0.27364  0.64500  Biso   1.000  C
  H118     1.0000 0.38930  0.27730  0.63510  Biso   1.000  H
  C149     1.0000 0.27518  0.28744  0.68958  Biso   1.000  C
  H119     1.0000 0.25320  0.30350  0.71750  Biso   1.000  H
  C150     1.0000 0.25106  0.24183  0.64274  Biso   1.000  C
  H120     1.0000 0.21000  0.22020  0.63160  Biso   1.000  H
  C151     1.0000 0.04556  0.85632  0.64492  Biso   1.000  C
  C152     1.0000 0.01555  0.91846  0.63485  Biso   1.000  C
  H121     1.0000 0.01020  0.94230  0.59640  Biso   1.000  H
  C153     1.0000 0.99352  0.94509  0.68216  Biso   1.000  C
  C154     1.0000 0.00012  0.91029  0.73823  Biso   1.000  C
  H122     1.0000 0.98380  0.92820  0.76980  Biso   1.000  H
  C155     1.0000 0.03069  0.84951  0.74695  Biso   1.000  C
  C156     1.0000 0.05350  0.82059  0.70056  Biso   1.000  C
  H123     1.0000 0.07370  0.77800  0.70700  Biso   1.000  H
  C157     1.0000 0.09105  0.85824  0.55534  Biso   1.000  C
  H124     1.0000 0.09660  0.90510  0.55400  Biso   1.000  H
  C158     1.0000 0.08913  0.75239  0.53464  Biso   1.000  C
  H125     1.0000 0.09390  0.71120  0.51540  Biso   1.000  H
  C159     1.0000 0.06430  0.75944  0.58272  Biso   1.000  C
  H126     1.0000 0.04860  0.72490  0.60330  Biso   1.000  H
  C160     1.0000 0.93225  0.03908  0.61602  Biso   1.000  C
  H127     1.0000 0.92990  0.02120  0.57560  Biso   1.000  H
  C161     1.0000 0.92089  0.10325  0.69021  Biso   1.000  C
  H128     1.0000 0.90830  0.14000  0.71070  Biso   1.000  H
  C162     1.0000 0.95481  0.05004  0.72019  Biso   1.000  C
  H129     1.0000 0.97050  0.04230  0.76490  Biso   1.000  H
  C163     1.0000 0.08948  0.77621  0.83797  Biso   1.000  C
  H130     1.0000 0.12940  0.77410  0.82890  Biso   1.000  H
  C164     1.0000 0.01552  0.76052  0.88178  Biso   1.000  C
  H131     1.0000 0.99370  0.74520  0.91010  Biso   1.000  H
  C165     1.0000 0.98951  0.80219  0.83165  Biso   1.000  C
  H132     1.0000 0.94690  0.82060  0.81820  Biso   1.000  H
  C166     1.0000 0.32786  0.79784  0.33517  Biso   1.000  C
  C167     1.0000 0.36030  0.74429  0.31905  Biso   1.000  C
  H133     1.0000 0.35910  0.70110  0.33620  Biso   1.000  H
  C168     1.0000 0.39468  0.75663  0.27654  Biso   1.000  C
  C169     1.0000 0.39561  0.81914  0.24971  Biso   1.000  C
  H134     1.0000 0.41820  0.82640  0.21990  Biso   1.000  H
  C170     1.0000 0.36241  0.87082  0.26787  Biso   1.000  C
  C171     1.0000 0.32849  0.86145  0.31035  Biso   1.000  C
  H135     1.0000 0.30630  0.89730  0.32230  Biso   1.000  H
  C172     1.0000 0.23997  0.82173  0.38072  Biso   1.000  C
  H136     1.0000 0.22080  0.85740  0.35280  Biso   1.000  H
  C173     1.0000 0.26062  0.74748  0.45557  Biso   1.000  C
  H137     1.0000 0.25740  0.72180  0.49050  Biso   1.000  H
  C174     1.0000 0.30630  0.73963  0.42763  Biso   1.000  C
  H138     1.0000 0.34060  0.70790  0.43850  Biso   1.000  H
  C175     1.0000 0.49042  0.71190  0.25507  Biso   1.000  C
  H139     1.0000 0.51350  0.75290  0.26050  Biso   1.000  H
  C176     1.0000 0.46376  0.60718  0.23821  Biso   1.000  C
  H140     1.0000 0.46600  0.56100  0.22960  Biso   1.000  H
  C177     1.0000 0.41312  0.63785  0.24898  Biso   1.000  C
  H141     1.0000 0.37350  0.61780  0.24910  Biso   1.000  H
  C178     1.0000 0.37442  0.99235  0.27518  Biso   1.000  C
  H142     1.0000 0.37660  0.99590  0.31870  Biso   1.000  H
  C179     1.0000 0.37537  0.01654  0.17992  Biso   1.000  C
  H143     1.0000 0.37860  0.04080  0.14420  Biso   1.000  H
  C180     1.0000 0.36500  0.94991  0.18138  Biso   1.000  C
  H144     1.0000 0.35900  0.91930  0.14720  Biso   1.000  H
  N55      1.0000 0.20057  0.91698  0.50101  Biso   1.000  N
  N56      1.0000 0.25578  0.01096  0.52799  Biso   1.000  N
  N57      1.0000 0.38121  0.17060  0.33737  Biso   1.000  N
  N58      1.0000 0.34449  0.17832  0.41888  Biso   1.000  N
  N59      1.0000 0.33673  0.30720  0.69065  Biso   1.000  N
  N60      1.0000 0.29961  0.23323  0.61415  Biso   1.000  N
  N61      1.0000 0.10675  0.81461  0.51742  Biso   1.000  N
  N62      1.0000 0.06603  0.82628  0.59628  Biso   1.000  N
  N63      1.0000 0.90701  0.09614  0.62464  Biso   1.000  N
  N64      1.0000 0.96234  0.00892  0.67315  Biso   1.000  N
  N65      1.0000 0.07761  0.74387  0.88561  Biso   1.000  N
  N66      1.0000 0.03734  0.81226  0.80426  Biso   1.000  N
  N67      1.0000 0.21858  0.79873  0.42616  Biso   1.000  N
  N68      1.0000 0.29360  0.78699  0.37951  Biso   1.000  N
  N69      1.0000 0.51243  0.65390  0.24173  Biso   1.000  N
  N70      1.0000 0.43012  0.70395  0.25974  Biso   1.000  N
  N71      1.0000 0.38042  0.04314  0.23863  Biso   1.000  N
  N72      1.0000 0.36483  0.93570  0.24172  Biso   1.000  N
