data_image0
_cell_length_a       22.136
_cell_length_b       16.647
_cell_length_c       16.551
_cell_angle_alpha    90
_cell_angle_beta     114.63
_cell_angle_gamma    90

_symmetry_space_group_name_H-M    "P 1"
_symmetry_int_tables_number       1

loop_
  _symmetry_equiv_pos_as_xyz
  'x, y, z'

loop_
  _atom_site_label
  _atom_site_occupancy
  _atom_site_fract_x
  _atom_site_fract_y
  _atom_site_fract_z
  _atom_site_thermal_displace_type
  _atom_site_B_iso_or_equiv
  _atom_site_type_symbol
  O1       1.0000 0.07390  0.08460  0.62250  Biso   1.000  O
  O2       1.0000 0.96000  0.08530  0.56100  Biso   1.000  O
  O3       1.0000 0.35830  0.13560  0.54540  Biso   1.000  O
  C1       1.0000 0.00250  0.24820  0.96080  Biso   1.000  C
  H1       1.0000 0.00400  0.20340  0.92810  Biso   1.000  H
  C2       1.0000 0.00510  0.33070  0.93740  Biso   1.000  C
  C3       1.0000 0.01330  0.35490  0.86090  Biso   1.000  C
  C4       1.0000 0.01430  0.43470  0.83810  Biso   1.000  C
  C5       1.0000 0.01950  0.45940  0.75880  Biso   1.000  C
  H2       1.0000 0.02240  0.42610  0.71550  Biso   1.000  H
  C6       1.0000 0.01550  0.29150  0.79840  Biso   1.000  C
  C7       1.0000 0.95970  0.26690  0.73480  Biso   1.000  C
  H3       1.0000 0.92020  0.29040  0.73010  Biso   1.000  H
  C8       1.0000 0.95630  0.20490  0.67110  Biso   1.000  C
  H4       1.0000 0.91630  0.18770  0.62670  Biso   1.000  H
  C9       1.0000 0.01600  0.17400  0.68140  Biso   1.000  C
  C10      1.0000 0.07380  0.19530  0.74690  Biso   1.000  C
  H5       1.0000 0.11300  0.17010  0.75300  Biso   1.000  H
  C11      1.0000 0.07510  0.25790  0.80810  Biso   1.000  C
  H6       1.0000 0.11500  0.27500  0.85290  Biso   1.000  H
  C12      1.0000 0.01600  0.10610  0.61530  Biso   1.000  C
  C13      1.0000 0.38100  0.07320  0.53200  Biso   1.000  C
  C14      1.0000 0.47080  0.14570  0.50790  Biso   1.000  C
  H7       1.0000 0.45130  0.19400  0.51230  Biso   1.000  H
  C15      1.0000 0.44340  0.07480  0.51650  Biso   1.000  C
  O4       1.0000 0.92610  0.08460  0.37750  Biso   1.000  O
  O5       1.0000 0.04000  0.08530  0.43900  Biso   1.000  O
  O6       1.0000 0.64170  0.13560  0.45460  Biso   1.000  O
  C16      1.0000 0.99750  0.24820  0.03920  Biso   1.000  C
  H8       1.0000 0.99600  0.20340  0.07190  Biso   1.000  H
  C17      1.0000 0.99490  0.33070  0.06260  Biso   1.000  C
  C18      1.0000 0.98670  0.35490  0.13910  Biso   1.000  C
  C19      1.0000 0.98570  0.43470  0.16190  Biso   1.000  C
  C20      1.0000 0.98050  0.45940  0.24120  Biso   1.000  C
  H9       1.0000 0.97760  0.42610  0.28450  Biso   1.000  H
  C21      1.0000 0.98450  0.29150  0.20160  Biso   1.000  C
  C22      1.0000 0.04030  0.26690  0.26520  Biso   1.000  C
  H10      1.0000 0.07980  0.29040  0.26990  Biso   1.000  H
  C23      1.0000 0.04370  0.20490  0.32890  Biso   1.000  C
  H11      1.0000 0.08370  0.18770  0.37330  Biso   1.000  H
  C24      1.0000 0.98400  0.17400  0.31860  Biso   1.000  C
  C25      1.0000 0.92620  0.19530  0.25310  Biso   1.000  C
  H12      1.0000 0.88700  0.17010  0.24700  Biso   1.000  H
  C26      1.0000 0.92490  0.25790  0.19190  Biso   1.000  C
  H13      1.0000 0.88500  0.27500  0.14710  Biso   1.000  H
  C27      1.0000 0.98400  0.10610  0.38470  Biso   1.000  C
  C28      1.0000 0.61900  0.07320  0.46800  Biso   1.000  C
  C29      1.0000 0.52920  0.14570  0.49210  Biso   1.000  C
  H14      1.0000 0.54870  0.19400  0.48770  Biso   1.000  H
  C30      1.0000 0.55660  0.07480  0.48350  Biso   1.000  C
  O7       1.0000 0.92610  0.91540  0.37750  Biso   1.000  O
  O8       1.0000 0.04000  0.91470  0.43900  Biso   1.000  O
  O9       1.0000 0.64170  0.86440  0.45460  Biso   1.000  O
  C31      1.0000 0.99750  0.75180  0.03920  Biso   1.000  C
  H15      1.0000 0.99600  0.79660  0.07190  Biso   1.000  H
  C32      1.0000 0.99490  0.66930  0.06260  Biso   1.000  C
  C33      1.0000 0.98670  0.64510  0.13910  Biso   1.000  C
  C34      1.0000 0.98570  0.56530  0.16190  Biso   1.000  C
  C35      1.0000 0.98050  0.54060  0.24120  Biso   1.000  C
  H16      1.0000 0.97760  0.57390  0.28450  Biso   1.000  H
  C36      1.0000 0.98450  0.70850  0.20160  Biso   1.000  C
  C37      1.0000 0.04030  0.73310  0.26520  Biso   1.000  C
  H17      1.0000 0.07980  0.70960  0.26990  Biso   1.000  H
  C38      1.0000 0.04370  0.79510  0.32890  Biso   1.000  C
  H18      1.0000 0.08370  0.81230  0.37330  Biso   1.000  H
  C39      1.0000 0.98400  0.82600  0.31860  Biso   1.000  C
  C40      1.0000 0.92620  0.80470  0.25310  Biso   1.000  C
  H19      1.0000 0.88700  0.82990  0.24700  Biso   1.000  H
  C41      1.0000 0.92490  0.74210  0.19190  Biso   1.000  C
  H20      1.0000 0.88500  0.72500  0.14710  Biso   1.000  H
  C42      1.0000 0.98400  0.89390  0.38470  Biso   1.000  C
  C43      1.0000 0.61900  0.92680  0.46800  Biso   1.000  C
  C44      1.0000 0.52920  0.85430  0.49210  Biso   1.000  C
  H21      1.0000 0.54870  0.80600  0.48770  Biso   1.000  H
  C45      1.0000 0.55660  0.92520  0.48350  Biso   1.000  C
  O10      1.0000 0.07390  0.91540  0.62250  Biso   1.000  O
  O11      1.0000 0.96000  0.91470  0.56100  Biso   1.000  O
  O12      1.0000 0.35830  0.86440  0.54540  Biso   1.000  O
  C46      1.0000 0.00250  0.75180  0.96080  Biso   1.000  C
  H22      1.0000 0.00400  0.79660  0.92810  Biso   1.000  H
  C47      1.0000 0.00510  0.66930  0.93740  Biso   1.000  C
  C48      1.0000 0.01330  0.64510  0.86090  Biso   1.000  C
  C49      1.0000 0.01430  0.56530  0.83810  Biso   1.000  C
  C50      1.0000 0.01950  0.54060  0.75880  Biso   1.000  C
  H23      1.0000 0.02240  0.57390  0.71550  Biso   1.000  H
  C51      1.0000 0.01550  0.70850  0.79840  Biso   1.000  C
  C52      1.0000 0.95970  0.73310  0.73480  Biso   1.000  C
  H24      1.0000 0.92020  0.70960  0.73010  Biso   1.000  H
  C53      1.0000 0.95630  0.79510  0.67110  Biso   1.000  C
  H25      1.0000 0.91630  0.81230  0.62670  Biso   1.000  H
  C54      1.0000 0.01600  0.82600  0.68140  Biso   1.000  C
  C55      1.0000 0.07380  0.80470  0.74690  Biso   1.000  C
  H26      1.0000 0.11300  0.82990  0.75300  Biso   1.000  H
  C56      1.0000 0.07510  0.74210  0.80810  Biso   1.000  C
  H27      1.0000 0.11500  0.72500  0.85290  Biso   1.000  H
  C57      1.0000 0.01600  0.89390  0.61530  Biso   1.000  C
  C58      1.0000 0.38100  0.92680  0.53200  Biso   1.000  C
  C59      1.0000 0.47080  0.85430  0.50790  Biso   1.000  C
  H28      1.0000 0.45130  0.80600  0.51230  Biso   1.000  H
  C60      1.0000 0.44340  0.92520  0.51650  Biso   1.000  C
  Zn1      1.0000 0.07332  0.00000  0.53624  Biso   1.000  Zn
  N1       1.0000 0.16590  0.00000  0.54410  Biso   1.000  N
  N2       1.0000 0.35580  0.00000  0.53920  Biso   1.000  N
  C61      1.0000 0.21840  0.00000  0.60880  Biso   1.000  C
  H29      1.0000 0.21450  0.00000  0.66260  Biso   1.000  H
  C62      1.0000 0.28600  0.00000  0.61750  Biso   1.000  C
  H30      1.0000 0.32270  0.00000  0.67210  Biso   1.000  H
  C63      1.0000 0.29080  0.00000  0.54110  Biso   1.000  C
  C64      1.0000 0.23810  0.00000  0.46750  Biso   1.000  C
  H31      1.0000 0.24250  0.00000  0.41410  Biso   1.000  H
  C65      1.0000 0.17200  0.00000  0.46590  Biso   1.000  C
  H32      1.0000 0.13450  0.00000  0.41210  Biso   1.000  H
  C66      1.0000 0.46890  0.00000  0.50720  Biso   1.000  C
  Zn2      1.0000 0.92668  0.00000  0.46376  Biso   1.000  Zn
  N3       1.0000 0.83410  0.00000  0.45590  Biso   1.000  N
  N4       1.0000 0.64420  0.00000  0.46080  Biso   1.000  N
  C67      1.0000 0.78160  0.00000  0.39120  Biso   1.000  C
  H33      1.0000 0.78550  0.00000  0.33740  Biso   1.000  H
  C68      1.0000 0.71400  0.00000  0.38250  Biso   1.000  C
  H34      1.0000 0.67730  0.00000  0.32790  Biso   1.000  H
  C69      1.0000 0.70920  0.00000  0.45890  Biso   1.000  C
  C70      1.0000 0.76190  0.00000  0.53250  Biso   1.000  C
  H35      1.0000 0.75750  0.00000  0.58590  Biso   1.000  H
  C71      1.0000 0.82800  0.00000  0.53410  Biso   1.000  C
  H36      1.0000 0.86550  0.00000  0.58790  Biso   1.000  H
  C72      1.0000 0.53110  0.00000  0.49280  Biso   1.000  C
  N5       1.0000 0.00000  0.38170  0.00000  Biso   1.000  N
  N6       1.0000 0.00000  0.61830  0.00000  Biso   1.000  N
  N7       1.0000 0.01210  0.50000  0.88930  Biso   1.000  N
  N8       1.0000 0.98790  0.50000  0.11070  Biso   1.000  N
  Mn1      1.0000 0.00000  0.50000  0.00000  Biso   1.000  Mn
  O13      1.0000 0.57390  0.58460  0.62250  Biso   1.000  O
  O14      1.0000 0.46000  0.58530  0.56100  Biso   1.000  O
  O15      1.0000 0.85830  0.63560  0.54540  Biso   1.000  O
  C73      1.0000 0.50250  0.74820  0.96080  Biso   1.000  C
  H37      1.0000 0.50400  0.70340  0.92810  Biso   1.000  H
  C74      1.0000 0.50510  0.83070  0.93740  Biso   1.000  C
  C75      1.0000 0.51330  0.85490  0.86090  Biso   1.000  C
  C76      1.0000 0.51430  0.93470  0.83810  Biso   1.000  C
  C77      1.0000 0.51950  0.95940  0.75880  Biso   1.000  C
  H38      1.0000 0.52240  0.92610  0.71550  Biso   1.000  H
  C78      1.0000 0.51550  0.79150  0.79840  Biso   1.000  C
  C79      1.0000 0.45970  0.76690  0.73480  Biso   1.000  C
  H39      1.0000 0.42020  0.79040  0.73010  Biso   1.000  H
  C80      1.0000 0.45630  0.70490  0.67110  Biso   1.000  C
  H40      1.0000 0.41630  0.68770  0.62670  Biso   1.000  H
  C81      1.0000 0.51600  0.67400  0.68140  Biso   1.000  C
  C82      1.0000 0.57380  0.69530  0.74690  Biso   1.000  C
  H41      1.0000 0.61300  0.67010  0.75300  Biso   1.000  H
  C83      1.0000 0.57510  0.75790  0.80810  Biso   1.000  C
  H42      1.0000 0.61500  0.77500  0.85290  Biso   1.000  H
  C84      1.0000 0.51600  0.60610  0.61530  Biso   1.000  C
  C85      1.0000 0.88100  0.57320  0.53200  Biso   1.000  C
  C86      1.0000 0.97080  0.64570  0.50790  Biso   1.000  C
  H43      1.0000 0.95130  0.69400  0.51230  Biso   1.000  H
  C87      1.0000 0.94340  0.57480  0.51650  Biso   1.000  C
  O16      1.0000 0.42610  0.58460  0.37750  Biso   1.000  O
  O17      1.0000 0.54000  0.58530  0.43900  Biso   1.000  O
  O18      1.0000 0.14170  0.63560  0.45460  Biso   1.000  O
  C88      1.0000 0.49750  0.74820  0.03920  Biso   1.000  C
  H44      1.0000 0.49600  0.70340  0.07190  Biso   1.000  H
  C89      1.0000 0.49490  0.83070  0.06260  Biso   1.000  C
  C90      1.0000 0.48670  0.85490  0.13910  Biso   1.000  C
  C91      1.0000 0.48570  0.93470  0.16190  Biso   1.000  C
  C92      1.0000 0.48050  0.95940  0.24120  Biso   1.000  C
  H45      1.0000 0.47760  0.92610  0.28450  Biso   1.000  H
  C93      1.0000 0.48450  0.79150  0.20160  Biso   1.000  C
  C94      1.0000 0.54030  0.76690  0.26520  Biso   1.000  C
  H46      1.0000 0.57980  0.79040  0.26990  Biso   1.000  H
  C95      1.0000 0.54370  0.70490  0.32890  Biso   1.000  C
  H47      1.0000 0.58370  0.68770  0.37330  Biso   1.000  H
  C96      1.0000 0.48400  0.67400  0.31860  Biso   1.000  C
  C97      1.0000 0.42620  0.69530  0.25310  Biso   1.000  C
  H48      1.0000 0.38700  0.67010  0.24700  Biso   1.000  H
  C98      1.0000 0.42490  0.75790  0.19190  Biso   1.000  C
  H49      1.0000 0.38500  0.77500  0.14710  Biso   1.000  H
  C99      1.0000 0.48400  0.60610  0.38470  Biso   1.000  C
  C100     1.0000 0.11900  0.57320  0.46800  Biso   1.000  C
  C101     1.0000 0.02920  0.64570  0.49210  Biso   1.000  C
  H50      1.0000 0.04870  0.69400  0.48770  Biso   1.000  H
  C102     1.0000 0.05660  0.57480  0.48350  Biso   1.000  C
  O19      1.0000 0.42610  0.41540  0.37750  Biso   1.000  O
  O20      1.0000 0.54000  0.41470  0.43900  Biso   1.000  O
  O21      1.0000 0.14170  0.36440  0.45460  Biso   1.000  O
  C103     1.0000 0.49750  0.25180  0.03920  Biso   1.000  C
  H51      1.0000 0.49600  0.29660  0.07190  Biso   1.000  H
  C104     1.0000 0.49490  0.16930  0.06260  Biso   1.000  C
  C105     1.0000 0.48670  0.14510  0.13910  Biso   1.000  C
  C106     1.0000 0.48570  0.06530  0.16190  Biso   1.000  C
  C107     1.0000 0.48050  0.04060  0.24120  Biso   1.000  C
  H52      1.0000 0.47760  0.07390  0.28450  Biso   1.000  H
  C108     1.0000 0.48450  0.20850  0.20160  Biso   1.000  C
  C109     1.0000 0.54030  0.23310  0.26520  Biso   1.000  C
  H53      1.0000 0.57980  0.20960  0.26990  Biso   1.000  H
  C110     1.0000 0.54370  0.29510  0.32890  Biso   1.000  C
  H54      1.0000 0.58370  0.31230  0.37330  Biso   1.000  H
  C111     1.0000 0.48400  0.32600  0.31860  Biso   1.000  C
  C112     1.0000 0.42620  0.30470  0.25310  Biso   1.000  C
  H55      1.0000 0.38700  0.32990  0.24700  Biso   1.000  H
  C113     1.0000 0.42490  0.24210  0.19190  Biso   1.000  C
  H56      1.0000 0.38500  0.22500  0.14710  Biso   1.000  H
  C114     1.0000 0.48400  0.39390  0.38470  Biso   1.000  C
  C115     1.0000 0.11900  0.42680  0.46800  Biso   1.000  C
  C116     1.0000 0.02920  0.35430  0.49210  Biso   1.000  C
  H57      1.0000 0.04870  0.30600  0.48770  Biso   1.000  H
  C117     1.0000 0.05660  0.42520  0.48350  Biso   1.000  C
  O22      1.0000 0.57390  0.41540  0.62250  Biso   1.000  O
  O23      1.0000 0.46000  0.41470  0.56100  Biso   1.000  O
  O24      1.0000 0.85830  0.36440  0.54540  Biso   1.000  O
  C118     1.0000 0.50250  0.25180  0.96080  Biso   1.000  C
  H58      1.0000 0.50400  0.29660  0.92810  Biso   1.000  H
  C119     1.0000 0.50510  0.16930  0.93740  Biso   1.000  C
  C120     1.0000 0.51330  0.14510  0.86090  Biso   1.000  C
  C121     1.0000 0.51430  0.06530  0.83810  Biso   1.000  C
  C122     1.0000 0.51950  0.04060  0.75880  Biso   1.000  C
  H59      1.0000 0.52240  0.07390  0.71550  Biso   1.000  H
  C123     1.0000 0.51550  0.20850  0.79840  Biso   1.000  C
  C124     1.0000 0.45970  0.23310  0.73480  Biso   1.000  C
  H60      1.0000 0.42020  0.20960  0.73010  Biso   1.000  H
  C125     1.0000 0.45630  0.29510  0.67110  Biso   1.000  C
  H61      1.0000 0.41630  0.31230  0.62670  Biso   1.000  H
  C126     1.0000 0.51600  0.32600  0.68140  Biso   1.000  C
  C127     1.0000 0.57380  0.30470  0.74690  Biso   1.000  C
  H62      1.0000 0.61300  0.32990  0.75300  Biso   1.000  H
  C128     1.0000 0.57510  0.24210  0.80810  Biso   1.000  C
  H63      1.0000 0.61500  0.22500  0.85290  Biso   1.000  H
  C129     1.0000 0.51600  0.39390  0.61530  Biso   1.000  C
  C130     1.0000 0.88100  0.42680  0.53200  Biso   1.000  C
  C131     1.0000 0.97080  0.35430  0.50790  Biso   1.000  C
  H64      1.0000 0.95130  0.30600  0.51230  Biso   1.000  H
  C132     1.0000 0.94340  0.42520  0.51650  Biso   1.000  C
  Zn3      1.0000 0.57332  0.50000  0.53624  Biso   1.000  Zn
  N9       1.0000 0.66590  0.50000  0.54410  Biso   1.000  N
  N10      1.0000 0.85580  0.50000  0.53920  Biso   1.000  N
  C133     1.0000 0.71840  0.50000  0.60880  Biso   1.000  C
  H65      1.0000 0.71450  0.50000  0.66260  Biso   1.000  H
  C134     1.0000 0.78600  0.50000  0.61750  Biso   1.000  C
  H66      1.0000 0.82270  0.50000  0.67210  Biso   1.000  H
  C135     1.0000 0.79080  0.50000  0.54110  Biso   1.000  C
  C136     1.0000 0.73810  0.50000  0.46750  Biso   1.000  C
  H67      1.0000 0.74250  0.50000  0.41410  Biso   1.000  H
  C137     1.0000 0.67200  0.50000  0.46590  Biso   1.000  C
  H68      1.0000 0.63450  0.50000  0.41210  Biso   1.000  H
  C138     1.0000 0.96890  0.50000  0.50720  Biso   1.000  C
  Zn4      1.0000 0.42668  0.50000  0.46376  Biso   1.000  Zn
  N11      1.0000 0.33410  0.50000  0.45590  Biso   1.000  N
  N12      1.0000 0.14420  0.50000  0.46080  Biso   1.000  N
  C139     1.0000 0.28160  0.50000  0.39120  Biso   1.000  C
  H69      1.0000 0.28550  0.50000  0.33740  Biso   1.000  H
  C140     1.0000 0.21400  0.50000  0.38250  Biso   1.000  C
  H70      1.0000 0.17730  0.50000  0.32790  Biso   1.000  H
  C141     1.0000 0.20920  0.50000  0.45890  Biso   1.000  C
  C142     1.0000 0.26190  0.50000  0.53250  Biso   1.000  C
  H71      1.0000 0.25750  0.50000  0.58590  Biso   1.000  H
  C143     1.0000 0.32800  0.50000  0.53410  Biso   1.000  C
  H72      1.0000 0.36550  0.50000  0.58790  Biso   1.000  H
  C144     1.0000 0.03110  0.50000  0.49280  Biso   1.000  C
  N13      1.0000 0.50000  0.88170  0.00000  Biso   1.000  N
  N14      1.0000 0.50000  0.11830  0.00000  Biso   1.000  N
  N15      1.0000 0.51210  0.00000  0.88930  Biso   1.000  N
  N16      1.0000 0.48790  0.00000  0.11070  Biso   1.000  N
  Mn2      1.0000 0.50000  0.00000  0.00000  Biso   1.000  Mn
