data_image0
_cell_length_a       22.058
_cell_length_b       16.9068
_cell_length_c       16.24
_cell_angle_alpha    90
_cell_angle_beta     121.36
_cell_angle_gamma    90

_symmetry_space_group_name_H-M    "P 1"
_symmetry_int_tables_number       1

loop_
  _symmetry_equiv_pos_as_xyz
  'x, y, z'

loop_
  _atom_site_label
  _atom_site_occupancy
  _atom_site_fract_x
  _atom_site_fract_y
  _atom_site_fract_z
  _atom_site_thermal_displace_type
  _atom_site_B_iso_or_equiv
  _atom_site_type_symbol
  O1       1.0000 0.96420  0.08270  0.55890  Biso   1.000  O
  O2       1.0000 0.08130  0.08440  0.63510  Biso   1.000  O
  O3       1.0000 0.35180  0.13450  0.52930  Biso   1.000  O
  C1       1.0000 0.00330  0.25470  0.96170  Biso   1.000  C
  H1       1.0000 0.00610  0.20980  0.93070  Biso   1.000  H
  C2       1.0000 0.00520  0.33100  0.93530  Biso   1.000  C
  C3       1.0000 0.01990  0.35520  0.86660  Biso   1.000  C
  C4       1.0000 0.02510  0.43370  0.84320  Biso   1.000  C
  C5       1.0000 0.03860  0.46210  0.77200  Biso   1.000  C
  H2       1.0000 0.04640  0.43050  0.73140  Biso   1.000  H
  C6       1.0000 0.02050  0.29360  0.80180  Biso   1.000  C
  C7       1.0000 0.96300  0.26300  0.72850  Biso   1.000  C
  H3       1.0000 0.91940  0.28310  0.71460  Biso   1.000  H
  C8       1.0000 0.96270  0.20350  0.67080  Biso   1.000  C
  H4       1.0000 0.91990  0.18370  0.62090  Biso   1.000  H
  C9       1.0000 0.02530  0.17350  0.68670  Biso   1.000  C
  C10      1.0000 0.08230  0.20150  0.75830  Biso   1.000  C
  H5       1.0000 0.12530  0.17950  0.77230  Biso   1.000  H
  C11      1.0000 0.08390  0.26340  0.81710  Biso   1.000  C
  H6       1.0000 0.12700  0.28380  0.86570  Biso   1.000  H
  C12      1.0000 0.02280  0.10750  0.62250  Biso   1.000  C
  C13      1.0000 0.37960  0.07490  0.52650  Biso   1.000  C
  C14      1.0000 0.46810  0.14080  0.50580  Biso   1.000  C
  H7       1.0000 0.44690  0.18770  0.50780  Biso   1.000  H
  C15      1.0000 0.44360  0.07140  0.51290  Biso   1.000  C
  O4       1.0000 0.03580  0.08270  0.44110  Biso   1.000  O
  O5       1.0000 0.91870  0.08440  0.36490  Biso   1.000  O
  O6       1.0000 0.64820  0.13450  0.47070  Biso   1.000  O
  C16      1.0000 0.99670  0.25470  0.03830  Biso   1.000  C
  H8       1.0000 0.99390  0.20980  0.06930  Biso   1.000  H
  C17      1.0000 0.99480  0.33100  0.06470  Biso   1.000  C
  C18      1.0000 0.98010  0.35520  0.13340  Biso   1.000  C
  C19      1.0000 0.97490  0.43370  0.15680  Biso   1.000  C
  C20      1.0000 0.96140  0.46210  0.22800  Biso   1.000  C
  H9       1.0000 0.95360  0.43050  0.26860  Biso   1.000  H
  C21      1.0000 0.97950  0.29360  0.19820  Biso   1.000  C
  C22      1.0000 0.03700  0.26300  0.27150  Biso   1.000  C
  H10      1.0000 0.08060  0.28310  0.28540  Biso   1.000  H
  C23      1.0000 0.03730  0.20350  0.32920  Biso   1.000  C
  H11      1.0000 0.08010  0.18370  0.37910  Biso   1.000  H
  C24      1.0000 0.97470  0.17350  0.31330  Biso   1.000  C
  C25      1.0000 0.91770  0.20150  0.24170  Biso   1.000  C
  H12      1.0000 0.87470  0.17950  0.22770  Biso   1.000  H
  C26      1.0000 0.91610  0.26340  0.18290  Biso   1.000  C
  H13      1.0000 0.87300  0.28380  0.13430  Biso   1.000  H
  C27      1.0000 0.97720  0.10750  0.37750  Biso   1.000  C
  C28      1.0000 0.62040  0.07490  0.47350  Biso   1.000  C
  C29      1.0000 0.53190  0.14080  0.49420  Biso   1.000  C
  H14      1.0000 0.55310  0.18770  0.49220  Biso   1.000  H
  C30      1.0000 0.55640  0.07140  0.48710  Biso   1.000  C
  O7       1.0000 0.03580  0.91730  0.44110  Biso   1.000  O
  O8       1.0000 0.91870  0.91560  0.36490  Biso   1.000  O
  O9       1.0000 0.64820  0.86550  0.47070  Biso   1.000  O
  C31      1.0000 0.99670  0.74530  0.03830  Biso   1.000  C
  H15      1.0000 0.99390  0.79020  0.06930  Biso   1.000  H
  C32      1.0000 0.99480  0.66900  0.06470  Biso   1.000  C
  C33      1.0000 0.98010  0.64480  0.13340  Biso   1.000  C
  C34      1.0000 0.97490  0.56630  0.15680  Biso   1.000  C
  C35      1.0000 0.96140  0.53790  0.22800  Biso   1.000  C
  H16      1.0000 0.95360  0.56950  0.26860  Biso   1.000  H
  C36      1.0000 0.97950  0.70640  0.19820  Biso   1.000  C
  C37      1.0000 0.03700  0.73700  0.27150  Biso   1.000  C
  H17      1.0000 0.08060  0.71690  0.28540  Biso   1.000  H
  C38      1.0000 0.03730  0.79650  0.32920  Biso   1.000  C
  H18      1.0000 0.08010  0.81630  0.37910  Biso   1.000  H
  C39      1.0000 0.97470  0.82650  0.31330  Biso   1.000  C
  C40      1.0000 0.91770  0.79850  0.24170  Biso   1.000  C
  H19      1.0000 0.87470  0.82050  0.22770  Biso   1.000  H
  C41      1.0000 0.91610  0.73660  0.18290  Biso   1.000  C
  H20      1.0000 0.87300  0.71620  0.13430  Biso   1.000  H
  C42      1.0000 0.97720  0.89250  0.37750  Biso   1.000  C
  C43      1.0000 0.62040  0.92510  0.47350  Biso   1.000  C
  C44      1.0000 0.53190  0.85920  0.49420  Biso   1.000  C
  H21      1.0000 0.55310  0.81230  0.49220  Biso   1.000  H
  C45      1.0000 0.55640  0.92860  0.48710  Biso   1.000  C
  O10      1.0000 0.96420  0.91730  0.55890  Biso   1.000  O
  O11      1.0000 0.08130  0.91560  0.63510  Biso   1.000  O
  O12      1.0000 0.35180  0.86550  0.52930  Biso   1.000  O
  C46      1.0000 0.00330  0.74530  0.96170  Biso   1.000  C
  H22      1.0000 0.00610  0.79020  0.93070  Biso   1.000  H
  C47      1.0000 0.00520  0.66900  0.93530  Biso   1.000  C
  C48      1.0000 0.01990  0.64480  0.86660  Biso   1.000  C
  C49      1.0000 0.02510  0.56630  0.84320  Biso   1.000  C
  C50      1.0000 0.03860  0.53790  0.77200  Biso   1.000  C
  H23      1.0000 0.04640  0.56950  0.73140  Biso   1.000  H
  C51      1.0000 0.02050  0.70640  0.80180  Biso   1.000  C
  C52      1.0000 0.96300  0.73700  0.72850  Biso   1.000  C
  H24      1.0000 0.91940  0.71690  0.71460  Biso   1.000  H
  C53      1.0000 0.96270  0.79650  0.67080  Biso   1.000  C
  H25      1.0000 0.91990  0.81630  0.62090  Biso   1.000  H
  C54      1.0000 0.02530  0.82650  0.68670  Biso   1.000  C
  C55      1.0000 0.08230  0.79850  0.75830  Biso   1.000  C
  H26      1.0000 0.12530  0.82050  0.77230  Biso   1.000  H
  C56      1.0000 0.08390  0.73660  0.81710  Biso   1.000  C
  H27      1.0000 0.12700  0.71620  0.86570  Biso   1.000  H
  C57      1.0000 0.02280  0.89250  0.62250  Biso   1.000  C
  C58      1.0000 0.37960  0.92510  0.52650  Biso   1.000  C
  C59      1.0000 0.46810  0.85920  0.50580  Biso   1.000  C
  H28      1.0000 0.44690  0.81230  0.50780  Biso   1.000  H
  C60      1.0000 0.44360  0.92860  0.51290  Biso   1.000  C
  Zn1      1.0000 0.07820  0.00000  0.54794  Biso   1.000  Zn
  N1       1.0000 0.17220  0.00000  0.55240  Biso   1.000  N
  N2       1.0000 0.35630  0.00000  0.53620  Biso   1.000  N
  C61      1.0000 0.23320  0.00000  0.62780  Biso   1.000  C
  H29      1.0000 0.23590  0.00000  0.68690  Biso   1.000  H
  C62      1.0000 0.30080  0.00000  0.62900  Biso   1.000  C
  H30      1.0000 0.34450  0.00000  0.68650  Biso   1.000  H
  C63      1.0000 0.29610  0.00000  0.54680  Biso   1.000  C
  C64      1.0000 0.23020  0.00000  0.46270  Biso   1.000  C
  H31      1.0000 0.22770  0.00000  0.40380  Biso   1.000  H
  C65      1.0000 0.16410  0.00000  0.46380  Biso   1.000  C
  H32      1.0000 0.11960  0.00000  0.40750  Biso   1.000  H
  C66      1.0000 0.46770  0.00000  0.50380  Biso   1.000  C
  Zn2      1.0000 0.92180  0.00000  0.45206  Biso   1.000  Zn
  N3       1.0000 0.82780  0.00000  0.44760  Biso   1.000  N
  N4       1.0000 0.64370  0.00000  0.46380  Biso   1.000  N
  C67      1.0000 0.76680  0.00000  0.37220  Biso   1.000  C
  H33      1.0000 0.76410  0.00000  0.31310  Biso   1.000  H
  C68      1.0000 0.69920  0.00000  0.37100  Biso   1.000  C
  H34      1.0000 0.65550  0.00000  0.31350  Biso   1.000  H
  C69      1.0000 0.70390  0.00000  0.45320  Biso   1.000  C
  C70      1.0000 0.76980  0.00000  0.53730  Biso   1.000  C
  H35      1.0000 0.77230  0.00000  0.59620  Biso   1.000  H
  C71      1.0000 0.83590  0.00000  0.53620  Biso   1.000  C
  H36      1.0000 0.88040  0.00000  0.59250  Biso   1.000  H
  C72      1.0000 0.53230  0.00000  0.49620  Biso   1.000  C
  Mn1      1.0000 0.00000  0.50000  0.00000  Biso   1.000  Mn
  N5       1.0000 0.01790  0.50000  0.89140  Biso   1.000  N
  N6       1.0000 0.98210  0.50000  0.10860  Biso   1.000  N
  N7       1.0000 0.00000  0.38070  0.00000  Biso   1.000  N
  N8       1.0000 0.00000  0.61930  0.00000  Biso   1.000  N
  O13      1.0000 0.46420  0.58270  0.55890  Biso   1.000  O
  O14      1.0000 0.58130  0.58440  0.63510  Biso   1.000  O
  O15      1.0000 0.85180  0.63450  0.52930  Biso   1.000  O
  C73      1.0000 0.50330  0.75470  0.96170  Biso   1.000  C
  H37      1.0000 0.50610  0.70980  0.93070  Biso   1.000  H
  C74      1.0000 0.50520  0.83100  0.93530  Biso   1.000  C
  C75      1.0000 0.51990  0.85520  0.86660  Biso   1.000  C
  C76      1.0000 0.52510  0.93370  0.84320  Biso   1.000  C
  C77      1.0000 0.53860  0.96210  0.77200  Biso   1.000  C
  H38      1.0000 0.54640  0.93050  0.73140  Biso   1.000  H
  C78      1.0000 0.52050  0.79360  0.80180  Biso   1.000  C
  C79      1.0000 0.46300  0.76300  0.72850  Biso   1.000  C
  H39      1.0000 0.41940  0.78310  0.71460  Biso   1.000  H
  C80      1.0000 0.46270  0.70350  0.67080  Biso   1.000  C
  H40      1.0000 0.41990  0.68370  0.62090  Biso   1.000  H
  C81      1.0000 0.52530  0.67350  0.68670  Biso   1.000  C
  C82      1.0000 0.58230  0.70150  0.75830  Biso   1.000  C
  H41      1.0000 0.62530  0.67950  0.77230  Biso   1.000  H
  C83      1.0000 0.58390  0.76340  0.81710  Biso   1.000  C
  H42      1.0000 0.62700  0.78380  0.86570  Biso   1.000  H
  C84      1.0000 0.52280  0.60750  0.62250  Biso   1.000  C
  C85      1.0000 0.87960  0.57490  0.52650  Biso   1.000  C
  C86      1.0000 0.96810  0.64080  0.50580  Biso   1.000  C
  H43      1.0000 0.94690  0.68770  0.50780  Biso   1.000  H
  C87      1.0000 0.94360  0.57140  0.51290  Biso   1.000  C
  O16      1.0000 0.53580  0.58270  0.44110  Biso   1.000  O
  O17      1.0000 0.41870  0.58440  0.36490  Biso   1.000  O
  O18      1.0000 0.14820  0.63450  0.47070  Biso   1.000  O
  C88      1.0000 0.49670  0.75470  0.03830  Biso   1.000  C
  H44      1.0000 0.49390  0.70980  0.06930  Biso   1.000  H
  C89      1.0000 0.49480  0.83100  0.06470  Biso   1.000  C
  C90      1.0000 0.48010  0.85520  0.13340  Biso   1.000  C
  C91      1.0000 0.47490  0.93370  0.15680  Biso   1.000  C
  C92      1.0000 0.46140  0.96210  0.22800  Biso   1.000  C
  H45      1.0000 0.45360  0.93050  0.26860  Biso   1.000  H
  C93      1.0000 0.47950  0.79360  0.19820  Biso   1.000  C
  C94      1.0000 0.53700  0.76300  0.27150  Biso   1.000  C
  H46      1.0000 0.58060  0.78310  0.28540  Biso   1.000  H
  C95      1.0000 0.53730  0.70350  0.32920  Biso   1.000  C
  H47      1.0000 0.58010  0.68370  0.37910  Biso   1.000  H
  C96      1.0000 0.47470  0.67350  0.31330  Biso   1.000  C
  C97      1.0000 0.41770  0.70150  0.24170  Biso   1.000  C
  H48      1.0000 0.37470  0.67950  0.22770  Biso   1.000  H
  C98      1.0000 0.41610  0.76340  0.18290  Biso   1.000  C
  H49      1.0000 0.37300  0.78380  0.13430  Biso   1.000  H
  C99      1.0000 0.47720  0.60750  0.37750  Biso   1.000  C
  C100     1.0000 0.12040  0.57490  0.47350  Biso   1.000  C
  C101     1.0000 0.03190  0.64080  0.49420  Biso   1.000  C
  H50      1.0000 0.05310  0.68770  0.49220  Biso   1.000  H
  C102     1.0000 0.05640  0.57140  0.48710  Biso   1.000  C
  O19      1.0000 0.53580  0.41730  0.44110  Biso   1.000  O
  O20      1.0000 0.41870  0.41560  0.36490  Biso   1.000  O
  O21      1.0000 0.14820  0.36550  0.47070  Biso   1.000  O
  C103     1.0000 0.49670  0.24530  0.03830  Biso   1.000  C
  H51      1.0000 0.49390  0.29020  0.06930  Biso   1.000  H
  C104     1.0000 0.49480  0.16900  0.06470  Biso   1.000  C
  C105     1.0000 0.48010  0.14480  0.13340  Biso   1.000  C
  C106     1.0000 0.47490  0.06630  0.15680  Biso   1.000  C
  C107     1.0000 0.46140  0.03790  0.22800  Biso   1.000  C
  H52      1.0000 0.45360  0.06950  0.26860  Biso   1.000  H
  C108     1.0000 0.47950  0.20640  0.19820  Biso   1.000  C
  C109     1.0000 0.53700  0.23700  0.27150  Biso   1.000  C
  H53      1.0000 0.58060  0.21690  0.28540  Biso   1.000  H
  C110     1.0000 0.53730  0.29650  0.32920  Biso   1.000  C
  H54      1.0000 0.58010  0.31630  0.37910  Biso   1.000  H
  C111     1.0000 0.47470  0.32650  0.31330  Biso   1.000  C
  C112     1.0000 0.41770  0.29850  0.24170  Biso   1.000  C
  H55      1.0000 0.37470  0.32050  0.22770  Biso   1.000  H
  C113     1.0000 0.41610  0.23660  0.18290  Biso   1.000  C
  H56      1.0000 0.37300  0.21620  0.13430  Biso   1.000  H
  C114     1.0000 0.47720  0.39250  0.37750  Biso   1.000  C
  C115     1.0000 0.12040  0.42510  0.47350  Biso   1.000  C
  C116     1.0000 0.03190  0.35920  0.49420  Biso   1.000  C
  H57      1.0000 0.05310  0.31230  0.49220  Biso   1.000  H
  C117     1.0000 0.05640  0.42860  0.48710  Biso   1.000  C
  O22      1.0000 0.46420  0.41730  0.55890  Biso   1.000  O
  O23      1.0000 0.58130  0.41560  0.63510  Biso   1.000  O
  O24      1.0000 0.85180  0.36550  0.52930  Biso   1.000  O
  C118     1.0000 0.50330  0.24530  0.96170  Biso   1.000  C
  H58      1.0000 0.50610  0.29020  0.93070  Biso   1.000  H
  C119     1.0000 0.50520  0.16900  0.93530  Biso   1.000  C
  C120     1.0000 0.51990  0.14480  0.86660  Biso   1.000  C
  C121     1.0000 0.52510  0.06630  0.84320  Biso   1.000  C
  C122     1.0000 0.53860  0.03790  0.77200  Biso   1.000  C
  H59      1.0000 0.54640  0.06950  0.73140  Biso   1.000  H
  C123     1.0000 0.52050  0.20640  0.80180  Biso   1.000  C
  C124     1.0000 0.46300  0.23700  0.72850  Biso   1.000  C
  H60      1.0000 0.41940  0.21690  0.71460  Biso   1.000  H
  C125     1.0000 0.46270  0.29650  0.67080  Biso   1.000  C
  H61      1.0000 0.41990  0.31630  0.62090  Biso   1.000  H
  C126     1.0000 0.52530  0.32650  0.68670  Biso   1.000  C
  C127     1.0000 0.58230  0.29850  0.75830  Biso   1.000  C
  H62      1.0000 0.62530  0.32050  0.77230  Biso   1.000  H
  C128     1.0000 0.58390  0.23660  0.81710  Biso   1.000  C
  H63      1.0000 0.62700  0.21620  0.86570  Biso   1.000  H
  C129     1.0000 0.52280  0.39250  0.62250  Biso   1.000  C
  C130     1.0000 0.87960  0.42510  0.52650  Biso   1.000  C
  C131     1.0000 0.96810  0.35920  0.50580  Biso   1.000  C
  H64      1.0000 0.94690  0.31230  0.50780  Biso   1.000  H
  C132     1.0000 0.94360  0.42860  0.51290  Biso   1.000  C
  Zn3      1.0000 0.57820  0.50000  0.54794  Biso   1.000  Zn
  N9       1.0000 0.67220  0.50000  0.55240  Biso   1.000  N
  N10      1.0000 0.85630  0.50000  0.53620  Biso   1.000  N
  C133     1.0000 0.73320  0.50000  0.62780  Biso   1.000  C
  H65      1.0000 0.73590  0.50000  0.68690  Biso   1.000  H
  C134     1.0000 0.80080  0.50000  0.62900  Biso   1.000  C
  H66      1.0000 0.84450  0.50000  0.68650  Biso   1.000  H
  C135     1.0000 0.79610  0.50000  0.54680  Biso   1.000  C
  C136     1.0000 0.73020  0.50000  0.46270  Biso   1.000  C
  H67      1.0000 0.72770  0.50000  0.40380  Biso   1.000  H
  C137     1.0000 0.66410  0.50000  0.46380  Biso   1.000  C
  H68      1.0000 0.61960  0.50000  0.40750  Biso   1.000  H
  C138     1.0000 0.96770  0.50000  0.50380  Biso   1.000  C
  Zn4      1.0000 0.42180  0.50000  0.45206  Biso   1.000  Zn
  N11      1.0000 0.32780  0.50000  0.44760  Biso   1.000  N
  N12      1.0000 0.14370  0.50000  0.46380  Biso   1.000  N
  C139     1.0000 0.26680  0.50000  0.37220  Biso   1.000  C
  H69      1.0000 0.26410  0.50000  0.31310  Biso   1.000  H
  C140     1.0000 0.19920  0.50000  0.37100  Biso   1.000  C
  H70      1.0000 0.15550  0.50000  0.31350  Biso   1.000  H
  C141     1.0000 0.20390  0.50000  0.45320  Biso   1.000  C
  C142     1.0000 0.26980  0.50000  0.53730  Biso   1.000  C
  H71      1.0000 0.27230  0.50000  0.59620  Biso   1.000  H
  C143     1.0000 0.33590  0.50000  0.53620  Biso   1.000  C
  H72      1.0000 0.38040  0.50000  0.59250  Biso   1.000  H
  C144     1.0000 0.03230  0.50000  0.49620  Biso   1.000  C
  Mn2      1.0000 0.50000  0.00000  0.00000  Biso   1.000  Mn
  N13      1.0000 0.51790  0.00000  0.89140  Biso   1.000  N
  N14      1.0000 0.48210  0.00000  0.10860  Biso   1.000  N
  N15      1.0000 0.50000  0.88070  0.00000  Biso   1.000  N
  N16      1.0000 0.50000  0.11930  0.00000  Biso   1.000  N
