data_XILVIZ_clean
_audit_creation_date              2014-07-02
_audit_creation_method            'Materials Studio'
_symmetry_space_group_name_H-M    'P1'
_symmetry_Int_Tables_number       1
_symmetry_cell_setting            triclinic
loop_
_symmetry_equiv_pos_as_xyz
  x,y,z
_cell_length_a                    13.3720
_cell_length_b                    14.1640
_cell_length_c                    16.7130
_cell_angle_alpha                 69.6260
_cell_angle_beta                  68.7860
_cell_angle_gamma                 73.5440
loop_
_atom_site_label
_atom_site_type_symbol
_atom_site_fract_x
_atom_site_fract_y
_atom_site_fract_z
_atom_site_U_iso_or_equiv
_atom_site_adp_type
_atom_site_occupancy
Mn1    Mn    0.50000   0.00000   0.50000   0.01267  Uiso   1.00
Zn1    Zn    0.08223   0.56710   0.95932   0.01267  Uiso   1.00
Zn2    Zn    0.91777   0.43290   0.04068   0.01267  Uiso   1.00
H1     H     0.95850   0.77410   0.74300   0.01267  Uiso   1.00
H2     H     0.85400   0.87340   0.63200   0.01267  Uiso   1.00
H3     H     0.61550   0.72190   0.78790   0.01267  Uiso   1.00
H4     H     0.71540   0.62390   0.88150   0.01267  Uiso   1.00
H5     H     0.59440   0.95090   0.78120   0.01267  Uiso   1.00
H6     H     0.44350   0.09710   0.78180   0.01267  Uiso   1.00
H7     H     0.18800   0.29300   0.57310   0.01267  Uiso   1.00
H8     H     0.18050   0.28310   0.43460   0.01267  Uiso   1.00
H9     H     0.39640   0.32650   0.64130   0.01267  Uiso   1.00
H10    H     0.31010   0.42380   0.75260   0.01267  Uiso   1.00
H11    H     0.08370   0.23460   0.87410   0.01267  Uiso   1.00
H12    H     0.18420   0.14550   0.76210   0.01267  Uiso   1.00
H13    H     0.17690   0.59880   0.08140   0.01267  Uiso   1.00
H14    H     0.29080   0.69670   0.07570   0.01267  Uiso   1.00
H15    H     0.31120   0.83030   0.81260   0.01267  Uiso   1.00
H16    H     0.21320   0.72490   0.83160   0.01267  Uiso   1.00
H17    H     0.26330   0.13310   0.95410   0.01267  Uiso   1.00
H18    H     0.65520   0.75980   0.02780   0.01267  Uiso   1.00
H19    H     0.04150   0.22590   0.25700   0.01267  Uiso   1.00
H20    H     0.14600   0.12660   0.36800   0.01267  Uiso   1.00
H21    H     0.38450   0.27810   0.21210   0.01267  Uiso   1.00
H22    H     0.28460   0.37610   0.11850   0.01267  Uiso   1.00
H23    H     0.40560   0.04910   0.21880   0.01267  Uiso   1.00
H24    H     0.55650   0.90290   0.21820   0.01267  Uiso   1.00
H25    H     0.81200   0.70700   0.42690   0.01267  Uiso   1.00
H26    H     0.81950   0.71690   0.56540   0.01267  Uiso   1.00
H27    H     0.60360   0.67350   0.35870   0.01267  Uiso   1.00
H28    H     0.68990   0.57620   0.24740   0.01267  Uiso   1.00
H29    H     0.91630   0.76540   0.12590   0.01267  Uiso   1.00
H30    H     0.81580   0.85450   0.23790   0.01267  Uiso   1.00
H31    H     0.82310   0.40120   0.91860   0.01267  Uiso   1.00
H32    H     0.70920   0.30330   0.92430   0.01267  Uiso   1.00
H33    H     0.68880   0.16970   0.18740   0.01267  Uiso   1.00
H34    H     0.78680   0.27510   0.16840   0.01267  Uiso   1.00
H35    H     0.73670   0.86690   0.04590   0.01267  Uiso   1.00
H36    H     0.34480   0.24020   0.97220   0.01267  Uiso   1.00
C1     C     0.91410   0.63280   0.88400   0.01267  Uiso   1.00
C2     C     0.84180   0.69050   0.82050   0.01267  Uiso   1.00
C3     C     0.89010   0.76290   0.75030   0.01267  Uiso   1.00
C4     C     0.82600   0.82470   0.68400   0.01267  Uiso   1.00
C5     C     0.72290   0.80310   0.70700   0.01267  Uiso   1.00
C6     C     0.68520   0.73320   0.77630   0.01267  Uiso   1.00
C7     C     0.74440   0.67540   0.83280   0.01267  Uiso   1.00
C8     C     0.65660   0.86510   0.64100   0.01267  Uiso   1.00
C9     C     0.58090   0.94650   0.66010   0.01267  Uiso   1.00
C10    C     0.55750   0.98020   0.73820   0.01267  Uiso   1.00
C11    C     0.47440   0.06040   0.73950   0.01267  Uiso   1.00
C12    C     0.44420   0.07650   0.66150   0.01267  Uiso   1.00
C13    C     0.35320   0.15420   0.64000   0.01267  Uiso   1.00
C14    C     0.32940   0.17170   0.56240   0.01267  Uiso   1.00
C15    C     0.23530   0.24870   0.53990   0.01267  Uiso   1.00
C16    C     0.23080   0.24310   0.46520   0.01267  Uiso   1.00
C17    C     0.32020   0.16180   0.43850   0.01267  Uiso   1.00
C18    C     0.29920   0.21880   0.69870   0.01267  Uiso   1.00
C19    C     0.33640   0.30720   0.68910   0.01267  Uiso   1.00
C20    C     0.28220   0.37010   0.75350   0.01267  Uiso   1.00
C21    C     0.18720   0.34150   0.81440   0.01267  Uiso   1.00
C22    C     0.14490   0.25480   0.82820   0.01267  Uiso   1.00
C23    C     0.21100   0.20060   0.76020   0.01267  Uiso   1.00
C24    C     0.11930   0.40830   0.88880   0.01267  Uiso   1.00
C25    C     0.20320   0.64570   0.02740   0.01267  Uiso   1.00
C26    C     0.27130   0.71160   0.02400   0.01267  Uiso   1.00
C27    C     0.31090   0.79150   0.95720   0.01267  Uiso   1.00
C28    C     0.28500   0.78810   0.86940   0.01267  Uiso   1.00
C29    C     0.22080   0.71720   0.88680   0.01267  Uiso   1.00
C30    C     0.32700   0.95230   0.95250   0.01267  Uiso   1.00
C31    C     0.46700   0.80200   0.98310   0.01267  Uiso   1.00
C32    C     0.32960   0.10610   0.96670   0.01267  Uiso   1.00
C33    C     0.36900   0.00800   0.97120   0.01267  Uiso   1.00
C34    C     0.47720   0.96390   0.99280   0.01267  Uiso   1.00
C35    C     0.52200   0.86160   0.99800   0.01267  Uiso   1.00
C36    C     0.62180   0.82810   0.02090   0.01267  Uiso   1.00
C37    C     0.08590   0.36720   0.11600   0.01267  Uiso   1.00
C38    C     0.15820   0.30950   0.17950   0.01267  Uiso   1.00
C39    C     0.10990   0.23710   0.24970   0.01267  Uiso   1.00
C40    C     0.17400   0.17530   0.31600   0.01267  Uiso   1.00
C41    C     0.27710   0.19690   0.29300   0.01267  Uiso   1.00
C42    C     0.31480   0.26680   0.22370   0.01267  Uiso   1.00
C43    C     0.25560   0.32460   0.16720   0.01267  Uiso   1.00
C44    C     0.34340   0.13490   0.35900   0.01267  Uiso   1.00
C45    C     0.41910   0.05350   0.33990   0.01267  Uiso   1.00
C46    C     0.44250   0.01980   0.26180   0.01267  Uiso   1.00
C47    C     0.52560   0.93960   0.26050   0.01267  Uiso   1.00
C48    C     0.55580   0.92350   0.33850   0.01267  Uiso   1.00
C49    C     0.64680   0.84580   0.36000   0.01267  Uiso   1.00
C50    C     0.67060   0.82830   0.43760   0.01267  Uiso   1.00
C51    C     0.76470   0.75130   0.46010   0.01267  Uiso   1.00
C52    C     0.76920   0.75690   0.53480   0.01267  Uiso   1.00
C53    C     0.67980   0.83820   0.56150   0.01267  Uiso   1.00
C54    C     0.70080   0.78120   0.30130   0.01267  Uiso   1.00
C55    C     0.66360   0.69280   0.31090   0.01267  Uiso   1.00
C56    C     0.71780   0.62990   0.24650   0.01267  Uiso   1.00
C57    C     0.81280   0.65850   0.18560   0.01267  Uiso   1.00
C58    C     0.85510   0.74520   0.17180   0.01267  Uiso   1.00
C59    C     0.78900   0.79940   0.23980   0.01267  Uiso   1.00
C60    C     0.88070   0.59170   0.11120   0.01267  Uiso   1.00
C61    C     0.79680   0.35430   0.97260   0.01267  Uiso   1.00
C62    C     0.72870   0.28840   0.97600   0.01267  Uiso   1.00
C63    C     0.68910   0.20850   0.04280   0.01267  Uiso   1.00
C64    C     0.71500   0.21190   0.13060   0.01267  Uiso   1.00
C65    C     0.77920   0.28280   0.11320   0.01267  Uiso   1.00
C66    C     0.67300   0.04770   0.04750   0.01267  Uiso   1.00
C67    C     0.53300   0.19800   0.01690   0.01267  Uiso   1.00
C68    C     0.67040   0.89390   0.03330   0.01267  Uiso   1.00
C69    C     0.63100   0.99200   0.02880   0.01267  Uiso   1.00
C70    C     0.52280   0.03610   0.00720   0.01267  Uiso   1.00
C71    C     0.47800   0.13840   0.00200   0.01267  Uiso   1.00
C72    C     0.37820   0.17190   0.97910   0.01267  Uiso   1.00
N1     N     0.50550   0.01060   0.61190   0.01267  Uiso   1.00
N2     N     0.37520   0.11190   0.50460   0.01267  Uiso   1.00
N3     N     0.16960   0.65010   0.93790   0.01267  Uiso   1.00
N4     N     0.36450   0.85290   0.95940   0.01267  Uiso   1.00
N5     N     0.49450   0.98940   0.38810   0.01267  Uiso   1.00
N6     N     0.62480   0.88810   0.49540   0.01267  Uiso   1.00
N7     N     0.83040   0.34990   0.06210   0.01267  Uiso   1.00
N8     N     0.63550   0.14710   0.04060   0.01267  Uiso   1.00
O1     O     0.99850   0.65890   0.87490   0.01267  Uiso   1.00
O2     O     0.86840   0.55450   0.94150   0.01267  Uiso   1.00
O3     O     0.03310   0.37550   0.94000   0.01267  Uiso   1.00
O4     O     0.16180   0.48380   0.87400   0.01267  Uiso   1.00
O5     O     0.23700   0.97880   0.93270   0.01267  Uiso   1.00
O6     O     0.50330   0.70820   0.98840   0.01267  Uiso   1.00
O7     O     0.00150   0.34110   0.12510   0.01267  Uiso   1.00
O8     O     0.13160   0.44550   0.05850   0.01267  Uiso   1.00
O9     O     0.96690   0.62450   0.06000   0.01267  Uiso   1.00
O10    O     0.83820   0.51620   0.12600   0.01267  Uiso   1.00
O11    O     0.76300   0.02120   0.06730   0.01267  Uiso   1.00
O12    O     0.49670   0.29180   0.01160   0.01267  Uiso   1.00
