data_XINJAH_clean
_audit_creation_date              2014-07-02
_audit_creation_method            'Materials Studio'
_symmetry_space_group_name_H-M    'P1'
_symmetry_Int_Tables_number       1
_symmetry_cell_setting            triclinic
loop_
_symmetry_equiv_pos_as_xyz
  x,y,z
_cell_length_a                    8.7850
_cell_length_b                    12.3320
_cell_length_c                    19.0900
_cell_angle_alpha                 106.5200
_cell_angle_beta                  90.0000
_cell_angle_gamma                 90.0000
loop_
_atom_site_label
_atom_site_type_symbol
_atom_site_fract_x
_atom_site_fract_y
_atom_site_fract_z
_atom_site_U_iso_or_equiv
_atom_site_adp_type
_atom_site_occupancy
La1    La    0.53956   0.77049   0.78754   0.01267  Uiso   1.00
La2    La    0.03956   0.72951   0.71246   0.01267  Uiso   1.00
La3    La    0.46044   0.22951   0.21246   0.01267  Uiso   1.00
La4    La    0.96044   0.27049   0.28754   0.01267  Uiso   1.00
H1     H     0.11110   0.63710   0.92950   0.01267  Uiso   1.00
H2     H     0.88650   0.02430   0.61280   0.01267  Uiso   1.00
H3     H     0.88110   0.38280   0.58200   0.01267  Uiso   1.00
H4     H     0.91190   0.19230   0.56380   0.01267  Uiso   1.00
H5     H     0.28010   0.57930   0.01800   0.01267  Uiso   1.00
H6     H     0.59100   0.39770   0.74660   0.01267  Uiso   1.00
H7     H     0.67880   0.52900   0.90400   0.01267  Uiso   1.00
H8     H     0.61600   0.04440   0.78530   0.01267  Uiso   1.00
H9     H     0.55190   0.22590   0.78950   0.01267  Uiso   1.00
H10    H     0.61110   0.86290   0.57050   0.01267  Uiso   1.00
H11    H     0.38650   0.47570   0.88720   0.01267  Uiso   1.00
H12    H     0.38110   0.11720   0.91800   0.01267  Uiso   1.00
H13    H     0.41190   0.30770   0.93620   0.01267  Uiso   1.00
H14    H     0.78010   0.92070   0.48200   0.01267  Uiso   1.00
H15    H     0.09100   0.10230   0.75340   0.01267  Uiso   1.00
H16    H     0.17880   0.97100   0.59600   0.01267  Uiso   1.00
H17    H     0.11600   0.45560   0.71470   0.01267  Uiso   1.00
H18    H     0.05190   0.27410   0.71050   0.01267  Uiso   1.00
H19    H     0.88890   0.36290   0.07050   0.01267  Uiso   1.00
H20    H     0.11350   0.97570   0.38720   0.01267  Uiso   1.00
H21    H     0.11890   0.61720   0.41800   0.01267  Uiso   1.00
H22    H     0.08810   0.80770   0.43620   0.01267  Uiso   1.00
H23    H     0.71990   0.42070   0.98200   0.01267  Uiso   1.00
H24    H     0.40900   0.60230   0.25340   0.01267  Uiso   1.00
H25    H     0.32120   0.47100   0.09600   0.01267  Uiso   1.00
H26    H     0.38400   0.95560   0.21470   0.01267  Uiso   1.00
H27    H     0.44810   0.77410   0.21050   0.01267  Uiso   1.00
H28    H     0.38890   0.13710   0.42950   0.01267  Uiso   1.00
H29    H     0.61350   0.52430   0.11280   0.01267  Uiso   1.00
H30    H     0.61890   0.88280   0.08200   0.01267  Uiso   1.00
H31    H     0.58810   0.69230   0.06380   0.01267  Uiso   1.00
H32    H     0.21990   0.07930   0.51800   0.01267  Uiso   1.00
H33    H     0.90900   0.89770   0.24660   0.01267  Uiso   1.00
H34    H     0.82120   0.02900   0.40400   0.01267  Uiso   1.00
H35    H     0.88400   0.54440   0.28530   0.01267  Uiso   1.00
H36    H     0.94810   0.72590   0.28950   0.01267  Uiso   1.00
C1     C     0.03230   0.59510   0.94143   0.01267  Uiso   1.00
C2     C     0.78610   0.17911   0.65113   0.01267  Uiso   1.00
C3     C     0.05970   0.53340   0.99236   0.01267  Uiso   1.00
C4     C     0.80930   0.89928   0.69666   0.01267  Uiso   1.00
C5     C     0.89370   0.59459   0.90954   0.01267  Uiso   1.00
C6     C     0.86790   0.66197   0.85631   0.01267  Uiso   1.00
C7     C     0.71780   0.53601   0.68258   0.01267  Uiso   1.00
C8     C     0.73420   0.40987   0.66809   0.01267  Uiso   1.00
C9     C     0.82120   0.06596   0.64884   0.01267  Uiso   1.00
C10    C     0.83140   0.34708   0.61231   0.01267  Uiso   1.00
C11    C     0.85290   0.23380   0.60266   0.01267  Uiso   1.00
C12    C     0.76080   0.01671   0.69868   0.01267  Uiso   1.00
C13    C     0.68710   0.24113   0.70615   0.01267  Uiso   1.00
C14    C     0.20170   0.53460   0.02725   0.01267  Uiso   1.00
C15    C     0.66020   0.35710   0.71211   0.01267  Uiso   1.00
C16    C     0.77380   0.52900   0.92549   0.01267  Uiso   1.00
C17    C     0.65850   0.07790   0.75198   0.01267  Uiso   1.00
C18    C     0.62160   0.18680   0.75480   0.01267  Uiso   1.00
C19    C     0.53230   0.90490   0.55857   0.01267  Uiso   1.00
C20    C     0.28610   0.32089   0.84887   0.01267  Uiso   1.00
C21    C     0.55970   0.96660   0.50764   0.01267  Uiso   1.00
C22    C     0.30930   0.60072   0.80334   0.01267  Uiso   1.00
C23    C     0.39370   0.90541   0.59046   0.01267  Uiso   1.00
C24    C     0.36790   0.83803   0.64369   0.01267  Uiso   1.00
C25    C     0.21780   0.96399   0.81742   0.01267  Uiso   1.00
C26    C     0.23420   0.09013   0.83191   0.01267  Uiso   1.00
C27    C     0.32120   0.43404   0.85116   0.01267  Uiso   1.00
C28    C     0.33140   0.15292   0.88769   0.01267  Uiso   1.00
C29    C     0.35290   0.26620   0.89734   0.01267  Uiso   1.00
C30    C     0.26080   0.48329   0.80132   0.01267  Uiso   1.00
C31    C     0.18710   0.25887   0.79385   0.01267  Uiso   1.00
C32    C     0.70170   0.96540   0.47275   0.01267  Uiso   1.00
C33    C     0.16020   0.14290   0.78789   0.01267  Uiso   1.00
C34    C     0.27380   0.97100   0.57451   0.01267  Uiso   1.00
C35    C     0.15850   0.42210   0.74802   0.01267  Uiso   1.00
C36    C     0.12160   0.31320   0.74520   0.01267  Uiso   1.00
C37    C     0.96770   0.40490   0.05857   0.01267  Uiso   1.00
C38    C     0.21390   0.82089   0.34887   0.01267  Uiso   1.00
C39    C     0.94030   0.46660   0.00764   0.01267  Uiso   1.00
C40    C     0.19070   0.10072   0.30334   0.01267  Uiso   1.00
C41    C     0.10630   0.40541   0.09046   0.01267  Uiso   1.00
C42    C     0.13210   0.33803   0.14369   0.01267  Uiso   1.00
C43    C     0.28220   0.46399   0.31742   0.01267  Uiso   1.00
C44    C     0.26580   0.59013   0.33191   0.01267  Uiso   1.00
C45    C     0.17880   0.93404   0.35116   0.01267  Uiso   1.00
C46    C     0.16860   0.65292   0.38769   0.01267  Uiso   1.00
C47    C     0.14710   0.76620   0.39734   0.01267  Uiso   1.00
C48    C     0.23920   0.98329   0.30132   0.01267  Uiso   1.00
C49    C     0.31290   0.75887   0.29385   0.01267  Uiso   1.00
C50    C     0.79830   0.46540   0.97275   0.01267  Uiso   1.00
C51    C     0.33980   0.64290   0.28789   0.01267  Uiso   1.00
C52    C     0.22620   0.47100   0.07451   0.01267  Uiso   1.00
C53    C     0.34150   0.92210   0.24802   0.01267  Uiso   1.00
C54    C     0.37840   0.81320   0.24520   0.01267  Uiso   1.00
C55    C     0.46770   0.09510   0.44143   0.01267  Uiso   1.00
C56    C     0.71390   0.67911   0.15113   0.01267  Uiso   1.00
C57    C     0.44030   0.03340   0.49236   0.01267  Uiso   1.00
C58    C     0.69070   0.39928   0.19666   0.01267  Uiso   1.00
C59    C     0.60630   0.09459   0.40954   0.01267  Uiso   1.00
C60    C     0.63210   0.16197   0.35631   0.01267  Uiso   1.00
C61    C     0.78220   0.03601   0.18258   0.01267  Uiso   1.00
C62    C     0.76580   0.90987   0.16809   0.01267  Uiso   1.00
C63    C     0.67880   0.56596   0.14884   0.01267  Uiso   1.00
C64    C     0.66860   0.84708   0.11231   0.01267  Uiso   1.00
C65    C     0.64710   0.73380   0.10266   0.01267  Uiso   1.00
C66    C     0.73920   0.51671   0.19868   0.01267  Uiso   1.00
C67    C     0.81290   0.74113   0.20615   0.01267  Uiso   1.00
C68    C     0.29830   0.03460   0.52725   0.01267  Uiso   1.00
C69    C     0.83980   0.85710   0.21211   0.01267  Uiso   1.00
C70    C     0.72620   0.02900   0.42549   0.01267  Uiso   1.00
C71    C     0.84150   0.57790   0.25198   0.01267  Uiso   1.00
C72    C     0.87840   0.68680   0.25480   0.01267  Uiso   1.00
O1     O     0.77361   0.85999   0.74997   0.01267  Uiso   1.00
O2     O     0.89180   0.84515   0.64528   0.01267  Uiso   1.00
O3     O     0.98260   0.69586   0.82967   0.01267  Uiso   1.00
O4     O     0.59020   0.57915   0.70180   0.01267  Uiso   1.00
O5     O     0.83480   0.58996   0.67550   0.01267  Uiso   1.00
O6     O     0.73460   0.67999   0.84148   0.01267  Uiso   1.00
O7     O     0.27361   0.64001   0.75003   0.01267  Uiso   1.00
O8     O     0.39180   0.65485   0.85472   0.01267  Uiso   1.00
O9     O     0.48260   0.80414   0.67033   0.01267  Uiso   1.00
O10    O     0.09020   0.92085   0.79820   0.01267  Uiso   1.00
O11    O     0.33480   0.91004   0.82450   0.01267  Uiso   1.00
O12    O     0.23460   0.82001   0.65852   0.01267  Uiso   1.00
O13    O     0.22639   0.14001   0.25003   0.01267  Uiso   1.00
O14    O     0.10820   0.15485   0.35472   0.01267  Uiso   1.00
O15    O     0.01740   0.30414   0.17033   0.01267  Uiso   1.00
O16    O     0.40980   0.42085   0.29820   0.01267  Uiso   1.00
O17    O     0.16520   0.41004   0.32450   0.01267  Uiso   1.00
O18    O     0.26540   0.32001   0.15852   0.01267  Uiso   1.00
O19    O     0.72639   0.35999   0.24997   0.01267  Uiso   1.00
O20    O     0.60820   0.34515   0.14528   0.01267  Uiso   1.00
O21    O     0.51740   0.19586   0.32967   0.01267  Uiso   1.00
O22    O     0.90980   0.07915   0.20180   0.01267  Uiso   1.00
O23    O     0.66520   0.08996   0.17550   0.01267  Uiso   1.00
O24    O     0.76540   0.17999   0.34148   0.01267  Uiso   1.00
