data_XINWUO_clean
_audit_creation_date              2014-07-02
_audit_creation_method            'Materials Studio'
_symmetry_space_group_name_H-M    'P1'
_symmetry_Int_Tables_number       1
_symmetry_cell_setting            triclinic
loop_
_symmetry_equiv_pos_as_xyz
  x,y,z
_cell_length_a                    11.3887
_cell_length_b                    13.7495
_cell_length_c                    13.7495
_cell_angle_alpha                 80.1238
_cell_angle_beta                  65.5341
_cell_angle_gamma                 65.5342
loop_
_atom_site_label
_atom_site_type_symbol
_atom_site_fract_x
_atom_site_fract_y
_atom_site_fract_z
_atom_site_U_iso_or_equiv
_atom_site_adp_type
_atom_site_occupancy
Zn1    Zn    0.33712   0.55080   0.47294   0.01267  Uiso   1.00
Zn2    Zn    0.86086   0.94920   0.02706   0.01267  Uiso   1.00
Zn3    Zn    0.81006   0.52706   0.05080   0.01267  Uiso   1.00
Zn4    Zn    0.88792   0.97294   0.44920   0.01267  Uiso   1.00
Zn5    Zn    0.66288   0.44920   0.52706   0.01267  Uiso   1.00
Zn6    Zn    0.13914   0.05080   0.97294   0.01267  Uiso   1.00
Zn7    Zn    0.18994   0.47294   0.94920   0.01267  Uiso   1.00
Zn8    Zn    0.11208   0.02706   0.55080   0.01267  Uiso   1.00
H1     H     0.91020   0.42180   0.34300   0.01267  Uiso   1.00
H2     H     0.95580   0.38470   0.22670   0.01267  Uiso   1.00
H3     H     0.93480   0.50080   0.24680   0.01267  Uiso   1.00
H4     H     0.50400   0.57360   0.22600   0.01267  Uiso   1.00
H5     H     0.17500   0.07820   0.15700   0.01267  Uiso   1.00
H6     H     0.06720   0.11530   0.27330   0.01267  Uiso   1.00
H7     H     0.18240   0.99920   0.25320   0.01267  Uiso   1.00
H8     H     0.80360   0.92640   0.27400   0.01267  Uiso   1.00
H9     H     0.25320   0.65700   0.92180   0.01267  Uiso   1.00
H10    H     0.18250   0.77330   0.88470   0.01267  Uiso   1.00
H11    H     0.18160   0.75320   0.00080   0.01267  Uiso   1.00
H12    H     0.73000   0.77400   0.07360   0.01267  Uiso   1.00
H13    H     0.33200   0.84300   0.57820   0.01267  Uiso   1.00
H14    H     0.34050   0.72670   0.61530   0.01267  Uiso   1.00
H15    H     0.43560   0.74680   0.49920   0.01267  Uiso   1.00
H16    H     0.07760   0.72600   0.42640   0.01267  Uiso   1.00
H17    H     0.08980   0.57820   0.65700   0.01267  Uiso   1.00
H18    H     0.04420   0.61530   0.77330   0.01267  Uiso   1.00
H19    H     0.06520   0.49920   0.75320   0.01267  Uiso   1.00
H20    H     0.49600   0.42640   0.77400   0.01267  Uiso   1.00
H21    H     0.82500   0.92180   0.84300   0.01267  Uiso   1.00
H22    H     0.93280   0.88470   0.72670   0.01267  Uiso   1.00
H23    H     0.81760   0.00080   0.74680   0.01267  Uiso   1.00
H24    H     0.19640   0.07360   0.72600   0.01267  Uiso   1.00
H25    H     0.74680   0.34300   0.07820   0.01267  Uiso   1.00
H26    H     0.81750   0.22670   0.11530   0.01267  Uiso   1.00
H27    H     0.81840   0.24680   0.99920   0.01267  Uiso   1.00
H28    H     0.27000   0.22600   0.92640   0.01267  Uiso   1.00
H29    H     0.66800   0.15700   0.42180   0.01267  Uiso   1.00
H30    H     0.65950   0.27330   0.38470   0.01267  Uiso   1.00
H31    H     0.56440   0.25320   0.50080   0.01267  Uiso   1.00
H32    H     0.92240   0.27400   0.57360   0.01267  Uiso   1.00
C1     C     0.90150   0.44410   0.27530   0.01267  Uiso   1.00
C2     C     0.75150   0.48290   0.29030   0.01267  Uiso   1.00
C3     C     0.56627   0.54535   0.26051   0.01267  Uiso   1.00
C4     C     0.12090   0.05590   0.22470   0.01267  Uiso   1.00
C5     C     0.02470   0.01710   0.20970   0.01267  Uiso   1.00
C6     C     0.87213   0.95465   0.23949   0.01267  Uiso   1.00
C7     C     0.17680   0.72470   0.94410   0.01267  Uiso   1.00
C8     C     0.04180   0.70970   0.98290   0.01267  Uiso   1.00
C9     C     0.82678   0.73949   0.04535   0.01267  Uiso   1.00
C10    C     0.34560   0.77530   0.55590   0.01267  Uiso   1.00
C11    C     0.23440   0.79030   0.51710   0.01267  Uiso   1.00
C12    C     0.11162   0.76051   0.45465   0.01267  Uiso   1.00
C13    C     0.09850   0.55590   0.72470   0.01267  Uiso   1.00
C14    C     0.24850   0.51710   0.70970   0.01267  Uiso   1.00
C15    C     0.43373   0.45465   0.73949   0.01267  Uiso   1.00
C16    C     0.87910   0.94410   0.77530   0.01267  Uiso   1.00
C17    C     0.97530   0.98290   0.79030   0.01267  Uiso   1.00
C18    C     0.12787   0.04535   0.76051   0.01267  Uiso   1.00
C19    C     0.82320   0.27530   0.05590   0.01267  Uiso   1.00
C20    C     0.95820   0.29030   0.01710   0.01267  Uiso   1.00
C21    C     0.17322   0.26051   0.95465   0.01267  Uiso   1.00
C22    C     0.65440   0.22470   0.44410   0.01267  Uiso   1.00
C23    C     0.76560   0.20970   0.48290   0.01267  Uiso   1.00
C24    C     0.88838   0.23949   0.54535   0.01267  Uiso   1.00
N1     N     0.52914   0.52680   0.36332   0.01267  Uiso   1.00
N2     N     0.65003   0.48617   0.38297   0.01267  Uiso   1.00
N3     N     0.70461   0.51889   0.21049   0.01267  Uiso   1.00
N4     N     0.91926   0.97320   0.13668   0.01267  Uiso   1.00
N5     N     0.01917   0.01383   0.11703   0.01267  Uiso   1.00
N6     N     0.93399   0.98111   0.28951   0.01267  Uiso   1.00
N7     N     0.89246   0.63668   0.02680   0.01267  Uiso   1.00
N8     N     0.03300   0.61703   0.98617   0.01267  Uiso   1.00
N9     N     0.91510   0.78951   0.01889   0.01267  Uiso   1.00
N10    N     0.05594   0.86332   0.47320   0.01267  Uiso   1.00
N11    N     0.13620   0.88297   0.51383   0.01267  Uiso   1.00
N12    N     0.22350   0.71049   0.48111   0.01267  Uiso   1.00
N13    N     0.47086   0.47320   0.63668   0.01267  Uiso   1.00
N14    N     0.34997   0.51383   0.61703   0.01267  Uiso   1.00
N15    N     0.29539   0.48111   0.78951   0.01267  Uiso   1.00
N16    N     0.08074   0.02680   0.86332   0.01267  Uiso   1.00
N17    N     0.98083   0.98617   0.88297   0.01267  Uiso   1.00
N18    N     0.06601   0.01889   0.71049   0.01267  Uiso   1.00
N19    N     0.10754   0.36332   0.97320   0.01267  Uiso   1.00
N20    N     0.96700   0.38297   0.01383   0.01267  Uiso   1.00
N21    N     0.08490   0.21049   0.98111   0.01267  Uiso   1.00
N22    N     0.94406   0.13668   0.52680   0.01267  Uiso   1.00
N23    N     0.86380   0.11703   0.48617   0.01267  Uiso   1.00
N24    N     0.77650   0.28951   0.51889   0.01267  Uiso   1.00
