data_image0
_cell_length_a       7.152
_cell_length_b       18.283
_cell_length_c       19.947
_cell_angle_alpha    90
_cell_angle_beta     90.395
_cell_angle_gamma    90

_symmetry_space_group_name_H-M    "P 1"
_symmetry_int_tables_number       1

loop_
  _symmetry_equiv_pos_as_xyz
  'x, y, z'

loop_
  _atom_site_label
  _atom_site_occupancy
  _atom_site_fract_x
  _atom_site_fract_y
  _atom_site_fract_z
  _atom_site_thermal_displace_type
  _atom_site_B_iso_or_equiv
  _atom_site_type_symbol
  Cd1      1.0000 0.52822  0.26454  0.35267  Biso   1.000  Cd
  Cd2      1.0000 0.04045  0.23978  0.32701  Biso   1.000  Cd
  O1       1.0000 0.71540  0.20030  0.28070  Biso   1.000  O
  O2       1.0000 0.96650  0.13260  0.26810  Biso   1.000  O
  O3       1.0000 0.89830  0.87610  0.18530  Biso   1.000  O
  O4       1.0000 0.62680  0.83870  0.14470  Biso   1.000  O
  O5       1.0000 0.90040  0.18010  0.41400  Biso   1.000  O
  O6       1.0000 0.18520  0.04390  0.18940  Biso   1.000  O
  H1       1.0000 0.14110  0.07190  0.21720  Biso   1.000  H
  O7       1.0000 0.64710  0.23530  0.45330  Biso   1.000  O
  O8       1.0000 0.54580  0.20600  0.70730  Biso   1.000  O
  O9       1.0000 0.79750  0.23170  0.76550  Biso   1.000  O
  O10      1.0000 0.32580  0.15530  0.60820  Biso   1.000  O
  H2       1.0000 0.37120  0.17560  0.64110  Biso   1.000  H
  C1       1.0000 0.79220  0.14130  0.26350  Biso   1.000  C
  C2       1.0000 0.67420  0.08020  0.23610  Biso   1.000  C
  C3       1.0000 0.75340  0.01270  0.22060  Biso   1.000  C
  H3       1.0000 0.88030  0.00460  0.22790  Biso   1.000  H
  C4       1.0000 0.48250  0.09200  0.22580  Biso   1.000  C
  H4       1.0000 0.42970  0.13730  0.23530  Biso   1.000  H
  C5       1.0000 0.64040  0.95750  0.19420  Biso   1.000  C
  C6       1.0000 0.45090  0.96850  0.18480  Biso   1.000  C
  H5       1.0000 0.37640  0.93120  0.16760  Biso   1.000  H
  C7       1.0000 0.37240  0.03550  0.20130  Biso   1.000  C
  C8       1.0000 0.72640  0.88610  0.17410  Biso   1.000  C
  C9       1.0000 0.80300  0.20410  0.46130  Biso   1.000  C
  C10      1.0000 0.87730  0.19430  0.53130  Biso   1.000  C
  C11      1.0000 0.76350  0.20580  0.58660  Biso   1.000  C
  H6       1.0000 0.63750  0.21680  0.58070  Biso   1.000  H
  C12      1.0000 0.83970  0.20040  0.65070  Biso   1.000  C
  C13      1.0000 0.02980  0.18450  0.65970  Biso   1.000  C
  H7       1.0000 0.08180  0.18240  0.70260  Biso   1.000  H
  C14      1.0000 0.13970  0.17160  0.60370  Biso   1.000  C
  C15      1.0000 0.06400  0.17580  0.53990  Biso   1.000  C
  H8       1.0000 0.13810  0.16620  0.50280  Biso   1.000  H
  C16      1.0000 0.71950  0.21280  0.71110  Biso   1.000  C
  Cd3      1.0000 0.97178  0.76454  0.14733  Biso   1.000  Cd
  Cd4      1.0000 0.45955  0.73978  0.17299  Biso   1.000  Cd
  O11      1.0000 0.78460  0.70030  0.21930  Biso   1.000  O
  O12      1.0000 0.53350  0.63260  0.23190  Biso   1.000  O
  O13      1.0000 0.60170  0.37610  0.31470  Biso   1.000  O
  O14      1.0000 0.87320  0.33870  0.35530  Biso   1.000  O
  O15      1.0000 0.59960  0.68010  0.08600  Biso   1.000  O
  O16      1.0000 0.31480  0.54390  0.31060  Biso   1.000  O
  H9       1.0000 0.35890  0.57190  0.28280  Biso   1.000  H
  O17      1.0000 0.85290  0.73530  0.04670  Biso   1.000  O
  O18      1.0000 0.95420  0.70600  0.79270  Biso   1.000  O
  O19      1.0000 0.70250  0.73170  0.73450  Biso   1.000  O
  O20      1.0000 0.17420  0.65530  0.89180  Biso   1.000  O
  H10      1.0000 0.12880  0.67560  0.85890  Biso   1.000  H
  C17      1.0000 0.70780  0.64130  0.23650  Biso   1.000  C
  C18      1.0000 0.82580  0.58020  0.26390  Biso   1.000  C
  C19      1.0000 0.74660  0.51270  0.27940  Biso   1.000  C
  H11      1.0000 0.61970  0.50460  0.27210  Biso   1.000  H
  C20      1.0000 0.01750  0.59200  0.27420  Biso   1.000  C
  H12      1.0000 0.07030  0.63730  0.26470  Biso   1.000  H
  C21      1.0000 0.85960  0.45750  0.30580  Biso   1.000  C
  C22      1.0000 0.04910  0.46850  0.31520  Biso   1.000  C
  H13      1.0000 0.12360  0.43120  0.33240  Biso   1.000  H
  C23      1.0000 0.12760  0.53550  0.29870  Biso   1.000  C
  C24      1.0000 0.77360  0.38610  0.32590  Biso   1.000  C
  C25      1.0000 0.69700  0.70410  0.03870  Biso   1.000  C
  C26      1.0000 0.62270  0.69430  0.96870  Biso   1.000  C
  C27      1.0000 0.73650  0.70580  0.91340  Biso   1.000  C
  H14      1.0000 0.86250  0.71680  0.91930  Biso   1.000  H
  C28      1.0000 0.66030  0.70040  0.84930  Biso   1.000  C
  C29      1.0000 0.47020  0.68450  0.84030  Biso   1.000  C
  H15      1.0000 0.41820  0.68240  0.79740  Biso   1.000  H
  C30      1.0000 0.36030  0.67160  0.89630  Biso   1.000  C
  C31      1.0000 0.43600  0.67580  0.96010  Biso   1.000  C
  H16      1.0000 0.36190  0.66620  0.99720  Biso   1.000  H
  C32      1.0000 0.78050  0.71280  0.78890  Biso   1.000  C
  Cd5      1.0000 0.47178  0.73546  0.64733  Biso   1.000  Cd
  Cd6      1.0000 0.95955  0.76022  0.67299  Biso   1.000  Cd
  O21      1.0000 0.28460  0.79970  0.71930  Biso   1.000  O
  O22      1.0000 0.03350  0.86740  0.73190  Biso   1.000  O
  O23      1.0000 0.10170  0.12390  0.81470  Biso   1.000  O
  O24      1.0000 0.37320  0.16130  0.85530  Biso   1.000  O
  O25      1.0000 0.09960  0.81990  0.58600  Biso   1.000  O
  O26      1.0000 0.81480  0.95610  0.81060  Biso   1.000  O
  H17      1.0000 0.85890  0.92810  0.78280  Biso   1.000  H
  O27      1.0000 0.35290  0.76470  0.54670  Biso   1.000  O
  O28      1.0000 0.45420  0.79400  0.29270  Biso   1.000  O
  O29      1.0000 0.20250  0.76830  0.23450  Biso   1.000  O
  O30      1.0000 0.67420  0.84470  0.39180  Biso   1.000  O
  H18      1.0000 0.62880  0.82440  0.35890  Biso   1.000  H
  C33      1.0000 0.20780  0.85870  0.73650  Biso   1.000  C
  C34      1.0000 0.32580  0.91980  0.76390  Biso   1.000  C
  C35      1.0000 0.24660  0.98730  0.77940  Biso   1.000  C
  H19      1.0000 0.11970  0.99540  0.77210  Biso   1.000  H
  C36      1.0000 0.51750  0.90800  0.77420  Biso   1.000  C
  H20      1.0000 0.57030  0.86270  0.76470  Biso   1.000  H
  C37      1.0000 0.35960  0.04250  0.80580  Biso   1.000  C
  C38      1.0000 0.54910  0.03150  0.81520  Biso   1.000  C
  H21      1.0000 0.62360  0.06880  0.83240  Biso   1.000  H
  C39      1.0000 0.62760  0.96450  0.79870  Biso   1.000  C
  C40      1.0000 0.27360  0.11390  0.82590  Biso   1.000  C
  C41      1.0000 0.19700  0.79590  0.53870  Biso   1.000  C
  C42      1.0000 0.12270  0.80570  0.46870  Biso   1.000  C
  C43      1.0000 0.23650  0.79420  0.41340  Biso   1.000  C
  H22      1.0000 0.36250  0.78320  0.41930  Biso   1.000  H
  C44      1.0000 0.16030  0.79960  0.34930  Biso   1.000  C
  C45      1.0000 0.97020  0.81550  0.34030  Biso   1.000  C
  H23      1.0000 0.91820  0.81760  0.29740  Biso   1.000  H
  C46      1.0000 0.86030  0.82840  0.39630  Biso   1.000  C
  C47      1.0000 0.93600  0.82420  0.46010  Biso   1.000  C
  H24      1.0000 0.86190  0.83380  0.49720  Biso   1.000  H
  C48      1.0000 0.28050  0.78720  0.28890  Biso   1.000  C
  Cd7      1.0000 0.02822  0.23546  0.85267  Biso   1.000  Cd
  Cd8      1.0000 0.54045  0.26022  0.82701  Biso   1.000  Cd
  O31      1.0000 0.21540  0.29970  0.78070  Biso   1.000  O
  O32      1.0000 0.46650  0.36740  0.76810  Biso   1.000  O
  O33      1.0000 0.39830  0.62390  0.68530  Biso   1.000  O
  O34      1.0000 0.12680  0.66130  0.64470  Biso   1.000  O
  O35      1.0000 0.40040  0.31990  0.91400  Biso   1.000  O
  O36      1.0000 0.68520  0.45610  0.68940  Biso   1.000  O
  H25      1.0000 0.64110  0.42810  0.71720  Biso   1.000  H
  O37      1.0000 0.14710  0.26470  0.95330  Biso   1.000  O
  O38      1.0000 0.04580  0.29400  0.20730  Biso   1.000  O
  O39      1.0000 0.29750  0.26830  0.26550  Biso   1.000  O
  O40      1.0000 0.82580  0.34470  0.10820  Biso   1.000  O
  H26      1.0000 0.87120  0.32440  0.14110  Biso   1.000  H
  C49      1.0000 0.29220  0.35870  0.76350  Biso   1.000  C
  C50      1.0000 0.17420  0.41980  0.73610  Biso   1.000  C
  C51      1.0000 0.25340  0.48730  0.72060  Biso   1.000  C
  H27      1.0000 0.38030  0.49540  0.72790  Biso   1.000  H
  C52      1.0000 0.98250  0.40800  0.72580  Biso   1.000  C
  H28      1.0000 0.92970  0.36270  0.73530  Biso   1.000  H
  C53      1.0000 0.14040  0.54250  0.69420  Biso   1.000  C
  C54      1.0000 0.95090  0.53150  0.68480  Biso   1.000  C
  H29      1.0000 0.87640  0.56880  0.66760  Biso   1.000  H
  C55      1.0000 0.87240  0.46450  0.70130  Biso   1.000  C
  C56      1.0000 0.22640  0.61390  0.67410  Biso   1.000  C
  C57      1.0000 0.30300  0.29590  0.96130  Biso   1.000  C
  C58      1.0000 0.37730  0.30570  0.03130  Biso   1.000  C
  C59      1.0000 0.26350  0.29420  0.08660  Biso   1.000  C
  H30      1.0000 0.13750  0.28320  0.08070  Biso   1.000  H
  C60      1.0000 0.33970  0.29960  0.15070  Biso   1.000  C
  C61      1.0000 0.52980  0.31550  0.15970  Biso   1.000  C
  H31      1.0000 0.58180  0.31760  0.20260  Biso   1.000  H
  C62      1.0000 0.63970  0.32840  0.10370  Biso   1.000  C
  C63      1.0000 0.56400  0.32420  0.03990  Biso   1.000  C
  H32      1.0000 0.63810  0.33380  0.00280  Biso   1.000  H
  C64      1.0000 0.21950  0.28720  0.21110  Biso   1.000  C
