data_XIPBOO_clean
_audit_creation_date              2014-07-02
_audit_creation_method            'Materials Studio'
_symmetry_space_group_name_H-M    'P1'
_symmetry_Int_Tables_number       1
_symmetry_cell_setting            triclinic
loop_
_symmetry_equiv_pos_as_xyz
  x,y,z
_cell_length_a                    15.2120
_cell_length_b                    15.2120
_cell_length_c                    15.4510
_cell_angle_alpha                 90.0000
_cell_angle_beta                  90.0000
_cell_angle_gamma                 120.0000
loop_
_atom_site_label
_atom_site_type_symbol
_atom_site_fract_x
_atom_site_fract_y
_atom_site_fract_z
_atom_site_U_iso_or_equiv
_atom_site_adp_type
_atom_site_occupancy
Gd1    Gd    0.66667   0.33334   0.75000   0.01267  Uiso   1.00
Gd2    Gd    0.33333   0.66666   0.75000   0.01267  Uiso   1.00
Gd3    Gd    0.33333   0.66666   0.25000   0.01267  Uiso   1.00
Gd4    Gd    0.66667   0.33334   0.25000   0.01267  Uiso   1.00
Co1    Co    0.50000   0.50000   0.00000   0.01267  Uiso   1.00
Co2    Co    0.00000   0.50000   0.00000   0.01267  Uiso   1.00
Co3    Co    0.50000   0.00000   0.00000   0.01267  Uiso   1.00
Co4    Co    0.00000   0.50000   0.50000   0.01267  Uiso   1.00
Co5    Co    0.50000   0.50000   0.50000   0.01267  Uiso   1.00
Co6    Co    0.50000   0.00000   0.50000   0.01267  Uiso   1.00
H1     H     0.76700   0.71390   0.84520   0.01267  Uiso   1.00
H2     H     0.94690   0.23300   0.84520   0.01267  Uiso   1.00
H3     H     0.28610   0.05310   0.84520   0.01267  Uiso   1.00
H4     H     0.23300   0.28610   0.84520   0.01267  Uiso   1.00
H5     H     0.05310   0.76700   0.84520   0.01267  Uiso   1.00
H6     H     0.71390   0.94690   0.84520   0.01267  Uiso   1.00
H7     H     0.05310   0.28610   0.65480   0.01267  Uiso   1.00
H8     H     0.71390   0.76700   0.65480   0.01267  Uiso   1.00
H9     H     0.23300   0.94690   0.65480   0.01267  Uiso   1.00
H10    H     0.94690   0.71390   0.65480   0.01267  Uiso   1.00
H11    H     0.28610   0.23300   0.65480   0.01267  Uiso   1.00
H12    H     0.76700   0.05310   0.65480   0.01267  Uiso   1.00
H13    H     0.23300   0.28610   0.15480   0.01267  Uiso   1.00
H14    H     0.05310   0.76700   0.15480   0.01267  Uiso   1.00
H15    H     0.71390   0.94690   0.15480   0.01267  Uiso   1.00
H16    H     0.76700   0.71390   0.15480   0.01267  Uiso   1.00
H17    H     0.94690   0.23300   0.15480   0.01267  Uiso   1.00
H18    H     0.28610   0.05310   0.15480   0.01267  Uiso   1.00
H19    H     0.94690   0.71390   0.34520   0.01267  Uiso   1.00
H20    H     0.28610   0.23300   0.34520   0.01267  Uiso   1.00
H21    H     0.76700   0.05310   0.34520   0.01267  Uiso   1.00
H22    H     0.05310   0.28610   0.34520   0.01267  Uiso   1.00
H23    H     0.71390   0.76700   0.34520   0.01267  Uiso   1.00
H24    H     0.23300   0.94690   0.34520   0.01267  Uiso   1.00
H25    H     0.90100   0.80200   0.75000   0.01267  Uiso   1.00
H26    H     0.90100   0.09900   0.75000   0.01267  Uiso   1.00
H27    H     0.19800   0.09900   0.75000   0.01267  Uiso   1.00
H28    H     0.09900   0.19800   0.75000   0.01267  Uiso   1.00
H29    H     0.09900   0.90100   0.75000   0.01267  Uiso   1.00
H30    H     0.80200   0.90100   0.75000   0.01267  Uiso   1.00
H31    H     0.09900   0.19800   0.25000   0.01267  Uiso   1.00
H32    H     0.09900   0.90100   0.25000   0.01267  Uiso   1.00
H33    H     0.80200   0.90100   0.25000   0.01267  Uiso   1.00
H34    H     0.90100   0.80200   0.25000   0.01267  Uiso   1.00
H35    H     0.90100   0.09900   0.25000   0.01267  Uiso   1.00
H36    H     0.19800   0.09900   0.25000   0.01267  Uiso   1.00
C1     C     0.64550   0.50890   0.86110   0.01267  Uiso   1.00
C2     C     0.73470   0.57400   0.80400   0.01267  Uiso   1.00
C3     C     0.78590   0.67940   0.80650   0.01267  Uiso   1.00
C4     C     0.86340   0.35450   0.86110   0.01267  Uiso   1.00
C5     C     0.83930   0.26530   0.80400   0.01267  Uiso   1.00
C6     C     0.89350   0.21410   0.80650   0.01267  Uiso   1.00
C7     C     0.49110   0.13660   0.86110   0.01267  Uiso   1.00
C8     C     0.42600   0.16070   0.80400   0.01267  Uiso   1.00
C9     C     0.32060   0.10650   0.80650   0.01267  Uiso   1.00
C10    C     0.35450   0.49110   0.86110   0.01267  Uiso   1.00
C11    C     0.26530   0.42600   0.80400   0.01267  Uiso   1.00
C12    C     0.21410   0.32060   0.80650   0.01267  Uiso   1.00
C13    C     0.13660   0.64550   0.86110   0.01267  Uiso   1.00
C14    C     0.16070   0.73470   0.80400   0.01267  Uiso   1.00
C15    C     0.10650   0.78590   0.80650   0.01267  Uiso   1.00
C16    C     0.50890   0.86340   0.86110   0.01267  Uiso   1.00
C17    C     0.57400   0.83930   0.80400   0.01267  Uiso   1.00
C18    C     0.67940   0.89350   0.80650   0.01267  Uiso   1.00
C19    C     0.13660   0.49110   0.63890   0.01267  Uiso   1.00
C20    C     0.16070   0.42600   0.69600   0.01267  Uiso   1.00
C21    C     0.10650   0.32060   0.69350   0.01267  Uiso   1.00
C22    C     0.50890   0.64550   0.63890   0.01267  Uiso   1.00
C23    C     0.57400   0.73470   0.69600   0.01267  Uiso   1.00
C24    C     0.67940   0.78590   0.69350   0.01267  Uiso   1.00
C25    C     0.35450   0.86340   0.63890   0.01267  Uiso   1.00
C26    C     0.26530   0.83930   0.69600   0.01267  Uiso   1.00
C27    C     0.21410   0.89350   0.69350   0.01267  Uiso   1.00
C28    C     0.86340   0.50890   0.63890   0.01267  Uiso   1.00
C29    C     0.83930   0.57400   0.69600   0.01267  Uiso   1.00
C30    C     0.89350   0.67940   0.69350   0.01267  Uiso   1.00
C31    C     0.49110   0.35450   0.63890   0.01267  Uiso   1.00
C32    C     0.42600   0.26530   0.69600   0.01267  Uiso   1.00
C33    C     0.32060   0.21410   0.69350   0.01267  Uiso   1.00
C34    C     0.64550   0.13660   0.63890   0.01267  Uiso   1.00
C35    C     0.73470   0.16070   0.69600   0.01267  Uiso   1.00
C36    C     0.78590   0.10650   0.69350   0.01267  Uiso   1.00
C37    C     0.35450   0.49110   0.13890   0.01267  Uiso   1.00
C38    C     0.26530   0.42600   0.19600   0.01267  Uiso   1.00
C39    C     0.21410   0.32060   0.19350   0.01267  Uiso   1.00
C40    C     0.13660   0.64550   0.13890   0.01267  Uiso   1.00
C41    C     0.16070   0.73470   0.19600   0.01267  Uiso   1.00
C42    C     0.10650   0.78590   0.19350   0.01267  Uiso   1.00
C43    C     0.50890   0.86340   0.13890   0.01267  Uiso   1.00
C44    C     0.57400   0.83930   0.19600   0.01267  Uiso   1.00
C45    C     0.67940   0.89350   0.19350   0.01267  Uiso   1.00
C46    C     0.64550   0.50890   0.13890   0.01267  Uiso   1.00
C47    C     0.73470   0.57400   0.19600   0.01267  Uiso   1.00
C48    C     0.78590   0.67940   0.19350   0.01267  Uiso   1.00
C49    C     0.86340   0.35450   0.13890   0.01267  Uiso   1.00
C50    C     0.83930   0.26530   0.19600   0.01267  Uiso   1.00
C51    C     0.89350   0.21410   0.19350   0.01267  Uiso   1.00
C52    C     0.49110   0.13660   0.13890   0.01267  Uiso   1.00
C53    C     0.42600   0.16070   0.19600   0.01267  Uiso   1.00
C54    C     0.32060   0.10650   0.19350   0.01267  Uiso   1.00
C55    C     0.86340   0.50890   0.36110   0.01267  Uiso   1.00
C56    C     0.83930   0.57400   0.30400   0.01267  Uiso   1.00
C57    C     0.89350   0.67940   0.30650   0.01267  Uiso   1.00
C58    C     0.49110   0.35450   0.36110   0.01267  Uiso   1.00
C59    C     0.42600   0.26530   0.30400   0.01267  Uiso   1.00
C60    C     0.32060   0.21410   0.30650   0.01267  Uiso   1.00
C61    C     0.64550   0.13660   0.36110   0.01267  Uiso   1.00
C62    C     0.73470   0.16070   0.30400   0.01267  Uiso   1.00
C63    C     0.78590   0.10650   0.30650   0.01267  Uiso   1.00
C64    C     0.13660   0.49110   0.36110   0.01267  Uiso   1.00
C65    C     0.16070   0.42600   0.30400   0.01267  Uiso   1.00
C66    C     0.10650   0.32060   0.30650   0.01267  Uiso   1.00
C67    C     0.50890   0.64550   0.36110   0.01267  Uiso   1.00
C68    C     0.57400   0.73470   0.30400   0.01267  Uiso   1.00
C69    C     0.67940   0.78590   0.30650   0.01267  Uiso   1.00
C70    C     0.35450   0.86340   0.36110   0.01267  Uiso   1.00
C71    C     0.26530   0.83930   0.30400   0.01267  Uiso   1.00
C72    C     0.21410   0.89350   0.30650   0.01267  Uiso   1.00
C73    C     0.86570   0.73140   0.75000   0.01267  Uiso   1.00
C74    C     0.86570   0.13430   0.75000   0.01267  Uiso   1.00
C75    C     0.26860   0.13430   0.75000   0.01267  Uiso   1.00
C76    C     0.13430   0.26860   0.75000   0.01267  Uiso   1.00
C77    C     0.13430   0.86570   0.75000   0.01267  Uiso   1.00
C78    C     0.73140   0.86570   0.75000   0.01267  Uiso   1.00
C79    C     0.13430   0.26860   0.25000   0.01267  Uiso   1.00
C80    C     0.13430   0.86570   0.25000   0.01267  Uiso   1.00
C81    C     0.73140   0.86570   0.25000   0.01267  Uiso   1.00
C82    C     0.86570   0.73140   0.25000   0.01267  Uiso   1.00
C83    C     0.86570   0.13430   0.25000   0.01267  Uiso   1.00
C84    C     0.26860   0.13430   0.25000   0.01267  Uiso   1.00
N1     N     0.76128   0.52256   0.75000   0.01267  Uiso   1.00
N2     N     0.76128   0.23872   0.75000   0.01267  Uiso   1.00
N3     N     0.47744   0.23872   0.75000   0.01267  Uiso   1.00
N4     N     0.23872   0.47744   0.75000   0.01267  Uiso   1.00
N5     N     0.23872   0.76128   0.75000   0.01267  Uiso   1.00
N6     N     0.52256   0.76128   0.75000   0.01267  Uiso   1.00
N7     N     0.23872   0.47744   0.25000   0.01267  Uiso   1.00
N8     N     0.23872   0.76128   0.25000   0.01267  Uiso   1.00
N9     N     0.52256   0.76128   0.25000   0.01267  Uiso   1.00
N10    N     0.76128   0.52256   0.25000   0.01267  Uiso   1.00
N11    N     0.76128   0.23872   0.25000   0.01267  Uiso   1.00
N12    N     0.47744   0.23872   0.25000   0.01267  Uiso   1.00
O1     O     0.61152   0.41384   0.85706   0.01267  Uiso   1.00
O2     O     0.61350   0.55330   0.90718   0.01267  Uiso   1.00
O3     O     0.80232   0.38848   0.85706   0.01267  Uiso   1.00
O4     O     0.93980   0.38650   0.90718   0.01267  Uiso   1.00
O5     O     0.58616   0.19768   0.85706   0.01267  Uiso   1.00
O6     O     0.44670   0.06020   0.90718   0.01267  Uiso   1.00
O7     O     0.38848   0.58616   0.85706   0.01267  Uiso   1.00
O8     O     0.38650   0.44670   0.90718   0.01267  Uiso   1.00
O9     O     0.19768   0.61152   0.85706   0.01267  Uiso   1.00
O10    O     0.06020   0.61350   0.90718   0.01267  Uiso   1.00
O11    O     0.41384   0.80232   0.85706   0.01267  Uiso   1.00
O12    O     0.55330   0.93980   0.90718   0.01267  Uiso   1.00
O13    O     0.19768   0.58616   0.64294   0.01267  Uiso   1.00
O14    O     0.06020   0.44670   0.59282   0.01267  Uiso   1.00
O15    O     0.41384   0.61152   0.64294   0.01267  Uiso   1.00
O16    O     0.55330   0.61350   0.59282   0.01267  Uiso   1.00
O17    O     0.38848   0.80232   0.64294   0.01267  Uiso   1.00
O18    O     0.38650   0.93980   0.59282   0.01267  Uiso   1.00
O19    O     0.80232   0.41384   0.64294   0.01267  Uiso   1.00
O20    O     0.93980   0.55330   0.59282   0.01267  Uiso   1.00
O21    O     0.58616   0.38848   0.64294   0.01267  Uiso   1.00
O22    O     0.44670   0.38650   0.59282   0.01267  Uiso   1.00
O23    O     0.61152   0.19768   0.64294   0.01267  Uiso   1.00
O24    O     0.61350   0.06020   0.59282   0.01267  Uiso   1.00
O25    O     0.38848   0.58616   0.14294   0.01267  Uiso   1.00
O26    O     0.38650   0.44670   0.09282   0.01267  Uiso   1.00
O27    O     0.19768   0.61152   0.14294   0.01267  Uiso   1.00
O28    O     0.06020   0.61350   0.09282   0.01267  Uiso   1.00
O29    O     0.41384   0.80232   0.14294   0.01267  Uiso   1.00
O30    O     0.55330   0.93980   0.09282   0.01267  Uiso   1.00
O31    O     0.61152   0.41384   0.14294   0.01267  Uiso   1.00
O32    O     0.61350   0.55330   0.09282   0.01267  Uiso   1.00
O33    O     0.80232   0.38848   0.14294   0.01267  Uiso   1.00
O34    O     0.93980   0.38650   0.09282   0.01267  Uiso   1.00
O35    O     0.58616   0.19768   0.14294   0.01267  Uiso   1.00
O36    O     0.44670   0.06020   0.09282   0.01267  Uiso   1.00
O37    O     0.80232   0.41384   0.35706   0.01267  Uiso   1.00
O38    O     0.93980   0.55330   0.40718   0.01267  Uiso   1.00
O39    O     0.58616   0.38848   0.35706   0.01267  Uiso   1.00
O40    O     0.44670   0.38650   0.40718   0.01267  Uiso   1.00
O41    O     0.61152   0.19768   0.35706   0.01267  Uiso   1.00
O42    O     0.61350   0.06020   0.40718   0.01267  Uiso   1.00
O43    O     0.19768   0.58616   0.35706   0.01267  Uiso   1.00
O44    O     0.06020   0.44670   0.40718   0.01267  Uiso   1.00
O45    O     0.41384   0.61152   0.35706   0.01267  Uiso   1.00
O46    O     0.55330   0.61350   0.40718   0.01267  Uiso   1.00
O47    O     0.38848   0.80232   0.35706   0.01267  Uiso   1.00
O48    O     0.38650   0.93980   0.40718   0.01267  Uiso   1.00
