data_image0
_cell_length_a       11.881
_cell_length_b       15.07
_cell_length_c       18.338
_cell_angle_alpha    66.014
_cell_angle_beta     76.901
_cell_angle_gamma    75.646

_symmetry_space_group_name_H-M    "P 1"
_symmetry_int_tables_number       1

loop_
  _symmetry_equiv_pos_as_xyz
  'x, y, z'

loop_
  _atom_site_label
  _atom_site_occupancy
  _atom_site_fract_x
  _atom_site_fract_y
  _atom_site_fract_z
  _atom_site_thermal_displace_type
  _atom_site_B_iso_or_equiv
  _atom_site_type_symbol
  W1       1.0000 0.18530  0.70821  0.10479  Biso   1.000  W
  W2       1.0000 0.35890  0.27437  0.14709  Biso   1.000  W
  W3       1.0000 0.50790  0.48399  0.00422  Biso   1.000  W
  W4       1.0000 0.66800  0.44744  0.14693  Biso   1.000  W
  W5       1.0000 0.50840  0.24581  0.29402  Biso   1.000  W
  W6       1.0000 0.43320  0.50811  0.65354  Biso   1.000  W
  W7       1.0000 0.25640  0.75655  0.55322  Biso   1.000  W
  W8       1.0000 0.18240  0.52350  0.04653  Biso   1.000  W
  W9       1.0000 0.51010  0.67099  0.06159  Biso   1.000  W
  W10      1.0000 0.04200  0.52345  0.22965  Biso   1.000  W
  W11      1.0000 0.40240  0.75256  0.37142  Biso   1.000  W
  W12      1.0000 0.57440  0.50807  0.46982  Biso   1.000  W
  W13      1.0000 0.21330  0.27853  0.32832  Biso   1.000  W
  W14      1.0000 0.10670  0.78540  0.40580  Biso   1.000  W
  W15      1.0000 0.10520  0.36075  0.63766  Biso   1.000  W
  W16      1.0000 0.10740  0.54806  0.69519  Biso   1.000  W
  W17      1.0000 0.94720  0.58466  0.55203  Biso   1.000  W
  W18      1.0000 0.43100  0.32347  0.59497  Biso   1.000  W
  Ge1      1.0000 0.25960  0.55000  0.49820  Biso   1.000  Ge
  Ge2      1.0000 0.35610  0.48300  0.20170  Biso   1.000  Ge
  Cu1      1.0000 0.23890  0.61630  0.30800  Biso   1.000  Cu
  Cu2      1.0000 0.09740  0.44140  0.42680  Biso   1.000  Cu
  Cu3      1.0000 0.51880  0.58790  0.27190  Biso   1.000  Cu
  Cu4      1.0000 0.37930  0.41450  0.39170  Biso   1.000  Cu
  O1       1.0000 0.26800  0.33400  0.64200  Biso   1.000  O
  O2       1.0000 0.66300  0.58900  0.08930  Biso   1.000  O
  O3       1.0000 0.38500  0.49200  0.53600  Biso   1.000  O
  O4       1.0000 0.24300  0.83100  0.34880  Biso   1.000  O
  O5       1.0000 0.00200  0.70600  0.48790  Biso   1.000  O
  O6       1.0000 0.35500  0.35800  0.23950  Biso   1.000  O
  O7       1.0000 0.24700  0.22600  0.23500  Biso   1.000  O
  O8       1.0000 0.35800  0.51500  0.27890  Biso   1.000  O
  O9       1.0000 0.45600  0.36800  0.67700  Biso   1.000  O
  O10      1.0000 0.01200  0.89500  0.35660  Biso   1.000  O
  O11      1.0000 0.25400  0.67700  0.47040  Biso   1.000  O
  O12      1.0000 0.24600  0.51700  0.41200  Biso   1.000  O
  O13      1.0000 0.13000  0.71000  0.34810  Biso   1.000  O
  O14      1.0000 0.27700  0.50700  0.69300  Biso   1.000  O
  O15      1.0000 0.48600  0.21200  0.20390  Biso   1.000  O
  O16      1.0000 0.22550  0.53930  0.15410  Biso   1.000  O
  O17      1.0000 0.56800  0.37200  0.53700  Biso   1.000  O
  O18      1.0000 0.00000  0.55400  0.46000  Biso   1.000  O
  O19      1.0000 0.22400  0.70200  0.19870  Biso   1.000  O
  O20      1.0000 0.47600  0.35300  0.07200  Biso   1.000  O
  O21      1.0000 0.66200  0.43500  0.04900  Biso   1.000  O
  O22      1.0000 0.62600  0.47900  0.24400  Biso   1.000  O
  O23      1.0000 0.03500  0.66500  0.16710  Biso   1.000  O
  O24      1.0000 0.48400  0.51400  0.73200  Biso   1.000  O
  O25      1.0000 0.40600  0.67560  0.31890  Biso   1.000  O
  O26      1.0000 0.82200  0.41500  0.14400  Biso   1.000  O
  O27      1.0000 0.14100  0.83300  0.48610  Biso   1.000  O
  O28      1.0000 0.95100  0.45100  0.61500  Biso   1.000  O
  O29      1.0000 0.46900  0.51600  0.12050  Biso   1.000  O
  O30      1.0000 0.08800  0.41100  0.72500  Biso   1.000  O
  O31      1.0000 0.35800  0.19280  0.35710  Biso   1.000  O
  O32      1.0000 0.54000  0.60700  0.98000  Biso   1.000  O
  O33      1.0000 0.52400  0.50600  0.38000  Biso   1.000  O
  O34      1.0000 0.13030  0.52400  0.56960  Biso   1.000  O
  O35      1.0000 0.16100  0.65600  0.02600  Biso   1.000  O
  O36      1.0000 0.13200  0.34800  0.54420  Biso   1.000  O
  O37      1.0000 0.10800  0.39750  0.26100  Biso   1.000  O
  O38      1.0000 0.35000  0.71000  0.05490  Biso   1.000  O
  O39      1.0000 0.08900  0.53800  0.30900  Biso   1.000  O
  O40      1.0000 0.04500  0.51500  0.12400  Biso   1.000  O
  O41      1.0000 0.06000  0.55700  0.79000  Biso   1.000  O
  O42      1.0000 0.38900  0.32800  0.50700  Biso   1.000  O
  O43      1.0000 0.50000  0.32200  0.34900  Biso   1.000  O
  O44      1.0000 0.15300  0.67400  0.62630  Biso   1.000  O
  O45      1.0000 0.35400  0.53340  0.99870  Biso   1.000  O
  O46      1.0000 0.12800  0.53100  0.96000  Biso   1.000  O
  O47      1.0000 0.55900  0.46800  0.91600  Biso   1.000  O
  O48      1.0000 0.22800  0.34400  0.39570  Biso   1.000  O
  O49      1.0000 0.49300  0.67010  0.16730  Biso   1.000  O
  O50      1.0000 0.80300  0.62800  0.55020  Biso   1.000  O
  O51      1.0000 0.24500  0.37700  0.10120  Biso   1.000  O
  O52      1.0000 0.96700  0.60100  0.65000  Biso   1.000  O
  O53      1.0000 0.37200  0.79500  0.46400  Biso   1.000  O
  O54      1.0000 0.56800  0.52300  0.57800  Biso   1.000  O
  O55      1.0000 0.51050  0.65660  0.43170  Biso   1.000  O
  O56      1.0000 0.37500  0.63800  0.60360  Biso   1.000  O
  O57      1.0000 0.60900  0.32700  0.20800  Biso   1.000  O
  Cu5      1.0000 0.27550  0.90090  0.70400  Biso   1.000  Cu
  O58      1.0000 0.29200  0.94800  0.81440  Biso   1.000  O
  O59      1.0000 0.58600  0.76500  0.64100  Biso   1.000  O
  O60      1.0000 0.12300  0.89100  0.75300  Biso   1.000  O
  O61      1.0000 0.44500  0.88300  0.65500  Biso   1.000  O
  O62      1.0000 0.01600  0.76000  0.82700  Biso   1.000  O
  N1       1.0000 0.30700  0.76700  0.78700  Biso   1.000  N
  C1       1.0000 0.11900  0.79400  0.78800  Biso   1.000  C
  C2       1.0000 0.37900  0.84500  0.85800  Biso   1.000  C
  H1       1.0000 0.45460  0.83840  0.82570  Biso   1.000  H
  H2       1.0000 0.38930  0.83850  0.91150  Biso   1.000  H
  C3       1.0000 0.22400  0.71300  0.79730  Biso   1.000  C
  H3       1.0000 0.21770  0.66080  0.85050  Biso   1.000  H
  H4       1.0000 0.23810  0.68430  0.75640  Biso   1.000  H
  C4       1.0000 0.30400  0.77600  0.86200  Biso   1.000  C
  H5       1.0000 0.32880  0.71140  0.90110  Biso   1.000  H
  H6       1.0000 0.22300  0.79910  0.88110  Biso   1.000  H
  C5       1.0000 0.24300  0.98400  0.84100  Biso   1.000  C
  H7       1.0000 0.17650  0.95130  0.85600  Biso   1.000  H
  H8       1.0000 0.22330  0.04330  0.79470  Biso   1.000  H
  C6       1.0000 0.42300  0.72100  0.75500  Biso   1.000  C
  H9       1.0000 0.46820  0.68560  0.79940  Biso   1.000  H
  H10      1.0000 0.40940  0.67250  0.73740  Biso   1.000  H
  C7       1.0000 0.49300  0.78100  0.69200  Biso   1.000  C
  K1       1.0000 0.67700  0.42700  0.80000  Biso   1.000  K
  O63      1.0000 0.02300  0.08500  0.28100  Biso   1.000  O
  K2       1.0000 0.94270  0.60620  0.90010  Biso   1.000  K
  K3       1.0000 0.60220  0.73820  0.50820  Biso   1.000  K
  O64      1.0000 0.52900  0.94800  0.47200  Biso   1.000  O
  H11      1.0000 0.53620  0.88050  0.50830  Biso   1.000  H
  H12      1.0000 0.46200  0.98640  0.49310  Biso   1.000  H
  K4       1.0000 0.01100  0.28850  0.19830  Biso   1.000  K
  K5       1.0000 0.92490  0.03280  0.25670  Biso   1.000  K
  O65      1.0000 0.79000  0.97600  0.34300  Biso   1.000  O
  H13      1.0000 0.81620  0.90980  0.34260  Biso   1.000  H
  H14      1.0000 0.78070  0.03070  0.29220  Biso   1.000  H
