data_image0
_cell_length_a       14.956
_cell_length_b       23.671
_cell_length_c       9.026
_cell_angle_alpha    90
_cell_angle_beta     90
_cell_angle_gamma    90

_symmetry_space_group_name_H-M    "P 1"
_symmetry_int_tables_number       1

loop_
  _symmetry_equiv_pos_as_xyz
  'x, y, z'

loop_
  _atom_site_label
  _atom_site_occupancy
  _atom_site_fract_x
  _atom_site_fract_y
  _atom_site_fract_z
  _atom_site_thermal_displace_type
  _atom_site_B_iso_or_equiv
  _atom_site_type_symbol
  Fe1      1.0000 0.07315  0.05452  0.00000  Biso   1.000  Fe
  O1       1.0000 0.13200  0.07276  0.19930  Biso   1.000  O
  O2       1.0000 0.16090  0.12528  0.94060  Biso   1.000  O
  O3       1.0000 0.26500  0.17951  0.04840  Biso   1.000  O
  O4       1.0000 0.23160  0.13075  0.30610  Biso   1.000  O
  C1       1.0000 0.18860  0.11250  0.19780  Biso   1.000  C
  C2       1.0000 0.20590  0.14130  0.04840  Biso   1.000  C
  Cl1      1.0000 0.18186  0.99597  0.90160  Biso   1.000  Cl
  Fe2      1.0000 0.07315  0.55452  0.50000  Biso   1.000  Fe
  O5       1.0000 0.13200  0.57276  0.69930  Biso   1.000  O
  O6       1.0000 0.16090  0.62528  0.44060  Biso   1.000  O
  O7       1.0000 0.26500  0.67951  0.54840  Biso   1.000  O
  O8       1.0000 0.23160  0.63075  0.80610  Biso   1.000  O
  C3       1.0000 0.18860  0.61250  0.69780  Biso   1.000  C
  C4       1.0000 0.20590  0.64130  0.54840  Biso   1.000  C
  Cl2      1.0000 0.18186  0.49597  0.40160  Biso   1.000  Cl
  Fe3      1.0000 0.57315  0.05452  0.50000  Biso   1.000  Fe
  O9       1.0000 0.63200  0.07276  0.69930  Biso   1.000  O
  O10      1.0000 0.66090  0.12528  0.44060  Biso   1.000  O
  O11      1.0000 0.76500  0.17951  0.54840  Biso   1.000  O
  O12      1.0000 0.73160  0.13075  0.80610  Biso   1.000  O
  C5       1.0000 0.68860  0.11250  0.69780  Biso   1.000  C
  C6       1.0000 0.70590  0.14130  0.54840  Biso   1.000  C
  Cl3      1.0000 0.68186  0.99597  0.40160  Biso   1.000  Cl
  Fe4      1.0000 0.57315  0.55452  0.00000  Biso   1.000  Fe
  O13      1.0000 0.63200  0.57276  0.19930  Biso   1.000  O
  O14      1.0000 0.66090  0.62528  0.94060  Biso   1.000  O
  O15      1.0000 0.76500  0.67951  0.04840  Biso   1.000  O
  O16      1.0000 0.73160  0.63075  0.30610  Biso   1.000  O
  C7       1.0000 0.68860  0.61250  0.19780  Biso   1.000  C
  C8       1.0000 0.70590  0.64130  0.04840  Biso   1.000  C
  Cl4      1.0000 0.68186  0.49597  0.90160  Biso   1.000  Cl
  Fe5      1.0000 0.92685  0.94548  0.00000  Biso   1.000  Fe
  O17      1.0000 0.86800  0.92724  0.19930  Biso   1.000  O
  O18      1.0000 0.83910  0.87472  0.94060  Biso   1.000  O
  O19      1.0000 0.73500  0.82049  0.04840  Biso   1.000  O
  O20      1.0000 0.76840  0.86925  0.30610  Biso   1.000  O
  C9       1.0000 0.81140  0.88750  0.19780  Biso   1.000  C
  C10      1.0000 0.79410  0.85870  0.04840  Biso   1.000  C
  Cl5      1.0000 0.81814  0.00403  0.90160  Biso   1.000  Cl
  Fe6      1.0000 0.92685  0.44548  0.50000  Biso   1.000  Fe
  O21      1.0000 0.86800  0.42724  0.69930  Biso   1.000  O
  O22      1.0000 0.83910  0.37472  0.44060  Biso   1.000  O
  O23      1.0000 0.73500  0.32049  0.54840  Biso   1.000  O
  O24      1.0000 0.76840  0.36925  0.80610  Biso   1.000  O
  C11      1.0000 0.81140  0.38750  0.69780  Biso   1.000  C
  C12      1.0000 0.79410  0.35870  0.54840  Biso   1.000  C
  Cl6      1.0000 0.81814  0.50403  0.40160  Biso   1.000  Cl
  Fe7      1.0000 0.42685  0.94548  0.50000  Biso   1.000  Fe
  O25      1.0000 0.36800  0.92724  0.69930  Biso   1.000  O
  O26      1.0000 0.33910  0.87472  0.44060  Biso   1.000  O
  O27      1.0000 0.23500  0.82049  0.54840  Biso   1.000  O
  O28      1.0000 0.26840  0.86925  0.80610  Biso   1.000  O
  C13      1.0000 0.31140  0.88750  0.69780  Biso   1.000  C
  C14      1.0000 0.29410  0.85870  0.54840  Biso   1.000  C
  Cl7      1.0000 0.31814  0.00403  0.40160  Biso   1.000  Cl
  Fe8      1.0000 0.42685  0.44548  0.00000  Biso   1.000  Fe
  O29      1.0000 0.36800  0.42724  0.19930  Biso   1.000  O
  O30      1.0000 0.33910  0.37472  0.94060  Biso   1.000  O
  O31      1.0000 0.23500  0.32049  0.04840  Biso   1.000  O
  O32      1.0000 0.26840  0.36925  0.30610  Biso   1.000  O
  C15      1.0000 0.31140  0.38750  0.19780  Biso   1.000  C
  C16      1.0000 0.29410  0.35870  0.04840  Biso   1.000  C
  Cl8      1.0000 0.31814  0.50403  0.90160  Biso   1.000  Cl
  Fe9      1.0000 0.32315  0.19548  0.25000  Biso   1.000  Fe
  O33      1.0000 0.38200  0.17724  0.44930  Biso   1.000  O
  O34      1.0000 0.41090  0.12472  0.19060  Biso   1.000  O
  O35      1.0000 0.51500  0.07049  0.29840  Biso   1.000  O
  O36      1.0000 0.48160  0.11925  0.55610  Biso   1.000  O
  C17      1.0000 0.43860  0.13750  0.44780  Biso   1.000  C
  C18      1.0000 0.45590  0.10870  0.29840  Biso   1.000  C
  Cl9      1.0000 0.43186  0.25403  0.15160  Biso   1.000  Cl
  Fe10     1.0000 0.32315  0.69548  0.75000  Biso   1.000  Fe
  O37      1.0000 0.38200  0.67724  0.94930  Biso   1.000  O
  O38      1.0000 0.41090  0.62472  0.69060  Biso   1.000  O
  O39      1.0000 0.51500  0.57049  0.79840  Biso   1.000  O
  O40      1.0000 0.48160  0.61925  0.05610  Biso   1.000  O
  C19      1.0000 0.43860  0.63750  0.94780  Biso   1.000  C
  C20      1.0000 0.45590  0.60870  0.79840  Biso   1.000  C
  Cl10     1.0000 0.43186  0.75403  0.65160  Biso   1.000  Cl
  Fe11     1.0000 0.82315  0.19548  0.75000  Biso   1.000  Fe
  O41      1.0000 0.88200  0.17724  0.94930  Biso   1.000  O
  O42      1.0000 0.91090  0.12472  0.69060  Biso   1.000  O
  O43      1.0000 0.01500  0.07049  0.79840  Biso   1.000  O
  O44      1.0000 0.98160  0.11925  0.05610  Biso   1.000  O
  C21      1.0000 0.93860  0.13750  0.94780  Biso   1.000  C
  C22      1.0000 0.95590  0.10870  0.79840  Biso   1.000  C
  Cl11     1.0000 0.93186  0.25403  0.65160  Biso   1.000  Cl
  Fe12     1.0000 0.82315  0.69548  0.25000  Biso   1.000  Fe
  O45      1.0000 0.88200  0.67724  0.44930  Biso   1.000  O
  O46      1.0000 0.91090  0.62472  0.19060  Biso   1.000  O
  O47      1.0000 0.01500  0.57049  0.29840  Biso   1.000  O
  O48      1.0000 0.98160  0.61925  0.55610  Biso   1.000  O
  C23      1.0000 0.93860  0.63750  0.44780  Biso   1.000  C
  C24      1.0000 0.95590  0.60870  0.29840  Biso   1.000  C
  Cl12     1.0000 0.93186  0.75403  0.15160  Biso   1.000  Cl
  Fe13     1.0000 0.17685  0.30452  0.25000  Biso   1.000  Fe
  O49      1.0000 0.11800  0.32276  0.44930  Biso   1.000  O
  O50      1.0000 0.08910  0.37528  0.19060  Biso   1.000  O
  O51      1.0000 0.98500  0.42951  0.29840  Biso   1.000  O
  O52      1.0000 0.01840  0.38075  0.55610  Biso   1.000  O
  C25      1.0000 0.06140  0.36250  0.44780  Biso   1.000  C
  C26      1.0000 0.04410  0.39130  0.29840  Biso   1.000  C
  Cl13     1.0000 0.06814  0.24597  0.15160  Biso   1.000  Cl
  Fe14     1.0000 0.17685  0.80452  0.75000  Biso   1.000  Fe
  O53      1.0000 0.11800  0.82276  0.94930  Biso   1.000  O
  O54      1.0000 0.08910  0.87528  0.69060  Biso   1.000  O
  O55      1.0000 0.98500  0.92951  0.79840  Biso   1.000  O
  O56      1.0000 0.01840  0.88075  0.05610  Biso   1.000  O
  C27      1.0000 0.06140  0.86250  0.94780  Biso   1.000  C
  C28      1.0000 0.04410  0.89130  0.79840  Biso   1.000  C
  Cl14     1.0000 0.06814  0.74597  0.65160  Biso   1.000  Cl
  Fe15     1.0000 0.67685  0.30452  0.75000  Biso   1.000  Fe
  O57      1.0000 0.61800  0.32276  0.94930  Biso   1.000  O
  O58      1.0000 0.58910  0.37528  0.69060  Biso   1.000  O
  O59      1.0000 0.48500  0.42951  0.79840  Biso   1.000  O
  O60      1.0000 0.51840  0.38075  0.05610  Biso   1.000  O
  C29      1.0000 0.56140  0.36250  0.94780  Biso   1.000  C
  C30      1.0000 0.54410  0.39130  0.79840  Biso   1.000  C
  Cl15     1.0000 0.56814  0.24597  0.65160  Biso   1.000  Cl
  Fe16     1.0000 0.67685  0.80452  0.25000  Biso   1.000  Fe
  O61      1.0000 0.61800  0.82276  0.44930  Biso   1.000  O
  O62      1.0000 0.58910  0.87528  0.19060  Biso   1.000  O
  O63      1.0000 0.48500  0.92951  0.29840  Biso   1.000  O
  O64      1.0000 0.51840  0.88075  0.55610  Biso   1.000  O
  C31      1.0000 0.56140  0.86250  0.44780  Biso   1.000  C
  C32      1.0000 0.54410  0.89130  0.29840  Biso   1.000  C
  Cl16     1.0000 0.56814  0.74597  0.15160  Biso   1.000  Cl
  O65      1.0000 0.00000  0.00000  0.07590  Biso   1.000  O
  O66      1.0000 0.00000  0.50000  0.57590  Biso   1.000  O
  O67      1.0000 0.50000  0.00000  0.57590  Biso   1.000  O
  O68      1.0000 0.50000  0.50000  0.07590  Biso   1.000  O
  O69      1.0000 0.25000  0.25000  0.32590  Biso   1.000  O
  O70      1.0000 0.25000  0.75000  0.82590  Biso   1.000  O
  O71      1.0000 0.75000  0.25000  0.82590  Biso   1.000  O
  O72      1.0000 0.75000  0.75000  0.32590  Biso   1.000  O
