data_XIPTEW_clean
_audit_creation_date              2014-07-02
_audit_creation_method            'Materials Studio'
_symmetry_space_group_name_H-M    'P1'
_symmetry_Int_Tables_number       1
_symmetry_cell_setting            triclinic
loop_
_symmetry_equiv_pos_as_xyz
  x,y,z
_cell_length_a                    7.6004
_cell_length_b                    9.8077
_cell_length_c                    14.7145
_cell_angle_alpha                 90.0000
_cell_angle_beta                  98.1600
_cell_angle_gamma                 90.0000
loop_
_atom_site_label
_atom_site_type_symbol
_atom_site_fract_x
_atom_site_fract_y
_atom_site_fract_z
_atom_site_U_iso_or_equiv
_atom_site_adp_type
_atom_site_occupancy
Ho1    Ho    0.84990   0.45476   0.63897   0.01267  Uiso   1.00
Ho2    Ho    0.65010   0.95476   0.86103   0.01267  Uiso   1.00
Ho3    Ho    0.15010   0.54524   0.36103   0.01267  Uiso   1.00
Ho4    Ho    0.34990   0.04524   0.13897   0.01267  Uiso   1.00
H1     H     0.88400   0.70200   0.02300   0.01267  Uiso   1.00
H2     H     0.67200   0.39800   0.85600   0.01267  Uiso   1.00
H3     H     0.70700   0.38800   0.13900   0.01267  Uiso   1.00
H4     H     0.61600   0.20200   0.47700   0.01267  Uiso   1.00
H5     H     0.82800   0.89800   0.64400   0.01267  Uiso   1.00
H6     H     0.79300   0.88800   0.36100   0.01267  Uiso   1.00
H7     H     0.11600   0.29800   0.97700   0.01267  Uiso   1.00
H8     H     0.32800   0.60200   0.14400   0.01267  Uiso   1.00
H9     H     0.29300   0.61200   0.86100   0.01267  Uiso   1.00
H10    H     0.38400   0.79800   0.52300   0.01267  Uiso   1.00
H11    H     0.17200   0.10200   0.35600   0.01267  Uiso   1.00
H12    H     0.20700   0.11200   0.63900   0.01267  Uiso   1.00
C1     C     0.83030   0.61320   0.01220   0.01267  Uiso   1.00
C2     C     0.77840   0.55750   0.92530   0.01267  Uiso   1.00
C3     C     0.70330   0.42840   0.91980   0.01267  Uiso   1.00
C4     C     0.67290   0.36500   0.00070   0.01267  Uiso   1.00
C5     C     0.72610   0.43060   0.08450   0.01267  Uiso   1.00
C6     C     0.80690   0.63720   0.84220   0.01267  Uiso   1.00
C7     C     0.58940   0.22690   0.99950   0.01267  Uiso   1.00
C8     C     0.54370   0.46820   0.46040   0.01267  Uiso   1.00
C9     C     0.66970   0.11320   0.48780   0.01267  Uiso   1.00
C10    C     0.72160   0.05750   0.57470   0.01267  Uiso   1.00
C11    C     0.79670   0.92840   0.58020   0.01267  Uiso   1.00
C12    C     0.82710   0.86500   0.49930   0.01267  Uiso   1.00
C13    C     0.77390   0.93060   0.41550   0.01267  Uiso   1.00
C14    C     0.69310   0.13720   0.65780   0.01267  Uiso   1.00
C15    C     0.91060   0.72690   0.50050   0.01267  Uiso   1.00
C16    C     0.95630   0.96820   0.03960   0.01267  Uiso   1.00
C17    C     0.16970   0.38680   0.98780   0.01267  Uiso   1.00
C18    C     0.22160   0.44250   0.07470   0.01267  Uiso   1.00
C19    C     0.29670   0.57160   0.08020   0.01267  Uiso   1.00
C20    C     0.32710   0.63500   0.99930   0.01267  Uiso   1.00
C21    C     0.27390   0.56940   0.91550   0.01267  Uiso   1.00
C22    C     0.19310   0.36280   0.15780   0.01267  Uiso   1.00
C23    C     0.41060   0.77310   0.00050   0.01267  Uiso   1.00
C24    C     0.45630   0.53180   0.53960   0.01267  Uiso   1.00
C25    C     0.33030   0.88680   0.51220   0.01267  Uiso   1.00
C26    C     0.27840   0.94250   0.42530   0.01267  Uiso   1.00
C27    C     0.20330   0.07160   0.41980   0.01267  Uiso   1.00
C28    C     0.17290   0.13500   0.50070   0.01267  Uiso   1.00
C29    C     0.22610   0.06940   0.58450   0.01267  Uiso   1.00
C30    C     0.30690   0.86280   0.34220   0.01267  Uiso   1.00
C31    C     0.08940   0.27310   0.49950   0.01267  Uiso   1.00
C32    C     0.04370   0.03180   0.96040   0.01267  Uiso   1.00
N1     N     0.80710   0.55220   0.09040   0.01267  Uiso   1.00
N2     N     0.69290   0.05220   0.40960   0.01267  Uiso   1.00
N3     N     0.19290   0.44780   0.90960   0.01267  Uiso   1.00
N4     N     0.30710   0.94780   0.59040   0.01267  Uiso   1.00
O1     O     0.80440   0.57740   0.76731   0.01267  Uiso   1.00
O2     O     0.83300   0.76530   0.85261   0.01267  Uiso   1.00
O3     O     0.59360   0.15470   0.92921   0.01267  Uiso   1.00
O4     O     0.51860   0.19210   0.06803   0.01267  Uiso   1.00
O5     O     0.70450   0.43640   0.47957   0.01267  Uiso   1.00
O6     O     0.44730   0.45380   0.38490   0.01267  Uiso   1.00
O7     O     0.69560   0.07740   0.73269   0.01267  Uiso   1.00
O8     O     0.66700   0.26530   0.64739   0.01267  Uiso   1.00
O9     O     0.90640   0.65470   0.57079   0.01267  Uiso   1.00
O10    O     0.98140   0.69210   0.43197   0.01267  Uiso   1.00
O11    O     0.79550   0.93640   0.02043   0.01267  Uiso   1.00
O12    O     0.05270   0.95380   0.11510   0.01267  Uiso   1.00
O13    O     0.19560   0.42260   0.23269   0.01267  Uiso   1.00
O14    O     0.16700   0.23470   0.14739   0.01267  Uiso   1.00
O15    O     0.40640   0.84530   0.07079   0.01267  Uiso   1.00
O16    O     0.48140   0.80790   0.93197   0.01267  Uiso   1.00
O17    O     0.29550   0.56360   0.52043   0.01267  Uiso   1.00
O18    O     0.55270   0.54620   0.61510   0.01267  Uiso   1.00
O19    O     0.30440   0.92260   0.26731   0.01267  Uiso   1.00
O20    O     0.33300   0.73470   0.35261   0.01267  Uiso   1.00
O21    O     0.09360   0.34530   0.42921   0.01267  Uiso   1.00
O22    O     0.01860   0.30790   0.56803   0.01267  Uiso   1.00
O23    O     0.20450   0.06360   0.97957   0.01267  Uiso   1.00
O24    O     0.94730   0.04620   0.88490   0.01267  Uiso   1.00
