data_XIPTIA_clean
_audit_creation_date              2014-07-02
_audit_creation_method            'Materials Studio'
_symmetry_space_group_name_H-M    'P1'
_symmetry_Int_Tables_number       1
_symmetry_cell_setting            triclinic
loop_
_symmetry_equiv_pos_as_xyz
  x,y,z
_cell_length_a                    7.6216
_cell_length_b                    9.8330
_cell_length_c                    14.7620
_cell_angle_alpha                 90.0000
_cell_angle_beta                  98.1910
_cell_angle_gamma                 90.0000
loop_
_atom_site_label
_atom_site_type_symbol
_atom_site_fract_x
_atom_site_fract_y
_atom_site_fract_z
_atom_site_U_iso_or_equiv
_atom_site_adp_type
_atom_site_occupancy
Dy1    Dy    0.64943   0.54507   0.36089   0.01267  Uiso   1.00
Dy2    Dy    0.85057   0.04507   0.13911   0.01267  Uiso   1.00
Dy3    Dy    0.35057   0.45493   0.63911   0.01267  Uiso   1.00
Dy4    Dy    0.14943   0.95493   0.86089   0.01267  Uiso   1.00
H1     H     0.79940   0.61030   0.86220   0.01267  Uiso   1.00
H2     H     0.82710   0.61410   0.13570   0.01267  Uiso   1.00
H3     H     0.61660   0.30110   0.98450   0.01267  Uiso   1.00
H4     H     0.70060   0.11030   0.63780   0.01267  Uiso   1.00
H5     H     0.67290   0.11410   0.36430   0.01267  Uiso   1.00
H6     H     0.88340   0.80110   0.51550   0.01267  Uiso   1.00
H7     H     0.20060   0.38970   0.13780   0.01267  Uiso   1.00
H8     H     0.17290   0.38590   0.86430   0.01267  Uiso   1.00
H9     H     0.38340   0.69890   0.01550   0.01267  Uiso   1.00
H10    H     0.29940   0.88970   0.36220   0.01267  Uiso   1.00
H11    H     0.32710   0.88590   0.63570   0.01267  Uiso   1.00
H12    H     0.11660   0.19890   0.48450   0.01267  Uiso   1.00
C1     C     0.77540   0.56910   0.91580   0.01267  Uiso   1.00
C2     C     0.82710   0.63560   0.99930   0.01267  Uiso   1.00
C3     C     0.79700   0.57150   0.07940   0.01267  Uiso   1.00
C4     C     0.72040   0.44150   0.07410   0.01267  Uiso   1.00
C5     C     0.66980   0.38640   0.98830   0.01267  Uiso   1.00
C6     C     0.91230   0.77310   0.00070   0.01267  Uiso   1.00
C7     C     0.69320   0.36240   0.15760   0.01267  Uiso   1.00
C8     C     0.45720   0.96920   0.03900   0.01267  Uiso   1.00
C9     C     0.72460   0.06910   0.58420   0.01267  Uiso   1.00
C10    C     0.67290   0.13560   0.50070   0.01267  Uiso   1.00
C11    C     0.70300   0.07150   0.42060   0.01267  Uiso   1.00
C12    C     0.77960   0.94150   0.42590   0.01267  Uiso   1.00
C13    C     0.83020   0.88640   0.51170   0.01267  Uiso   1.00
C14    C     0.58770   0.27310   0.49930   0.01267  Uiso   1.00
C15    C     0.80680   0.86240   0.34240   0.01267  Uiso   1.00
C16    C     0.04280   0.46920   0.46100   0.01267  Uiso   1.00
C17    C     0.22460   0.43090   0.08420   0.01267  Uiso   1.00
C18    C     0.17290   0.36440   0.00070   0.01267  Uiso   1.00
C19    C     0.20300   0.42850   0.92060   0.01267  Uiso   1.00
C20    C     0.27960   0.55850   0.92590   0.01267  Uiso   1.00
C21    C     0.33020   0.61360   0.01170   0.01267  Uiso   1.00
C22    C     0.08770   0.22690   0.99930   0.01267  Uiso   1.00
C23    C     0.30680   0.63760   0.84240   0.01267  Uiso   1.00
C24    C     0.54280   0.03080   0.96100   0.01267  Uiso   1.00
C25    C     0.27540   0.93090   0.41580   0.01267  Uiso   1.00
C26    C     0.32710   0.86440   0.49930   0.01267  Uiso   1.00
C27    C     0.29700   0.92850   0.57940   0.01267  Uiso   1.00
C28    C     0.22040   0.05850   0.57410   0.01267  Uiso   1.00
C29    C     0.16980   0.11360   0.48830   0.01267  Uiso   1.00
C30    C     0.41230   0.72690   0.50070   0.01267  Uiso   1.00
C31    C     0.19320   0.13760   0.65760   0.01267  Uiso   1.00
C32    C     0.95720   0.53080   0.53900   0.01267  Uiso   1.00
N1     N     0.69310   0.44890   0.91040   0.01267  Uiso   1.00
N2     N     0.80690   0.94890   0.58960   0.01267  Uiso   1.00
N3     N     0.30690   0.55110   0.08960   0.01267  Uiso   1.00
N4     N     0.19310   0.05110   0.41040   0.01267  Uiso   1.00
O1     O     0.98050   0.80830   0.93220   0.01267  Uiso   1.00
O2     O     0.90660   0.84380   0.07070   0.01267  Uiso   1.00
O3     O     0.69580   0.42190   0.23190   0.01267  Uiso   1.00
O4     O     0.66680   0.23530   0.14730   0.01267  Uiso   1.00
O5     O     0.55310   0.95290   0.11500   0.01267  Uiso   1.00
O6     O     0.29570   0.93720   0.02040   0.01267  Uiso   1.00
O7     O     0.51950   0.30830   0.56780   0.01267  Uiso   1.00
O8     O     0.59340   0.34380   0.42930   0.01267  Uiso   1.00
O9     O     0.80420   0.92190   0.26810   0.01267  Uiso   1.00
O10    O     0.83320   0.73530   0.35270   0.01267  Uiso   1.00
O11    O     0.94690   0.45290   0.38500   0.01267  Uiso   1.00
O12    O     0.20430   0.43720   0.47960   0.01267  Uiso   1.00
O13    O     0.01950   0.19170   0.06780   0.01267  Uiso   1.00
O14    O     0.09340   0.15620   0.92930   0.01267  Uiso   1.00
O15    O     0.30420   0.57810   0.76810   0.01267  Uiso   1.00
O16    O     0.33320   0.76470   0.85270   0.01267  Uiso   1.00
O17    O     0.44690   0.04710   0.88500   0.01267  Uiso   1.00
O18    O     0.70430   0.06280   0.97960   0.01267  Uiso   1.00
O19    O     0.48050   0.69170   0.43220   0.01267  Uiso   1.00
O20    O     0.40660   0.65620   0.57070   0.01267  Uiso   1.00
O21    O     0.19580   0.07810   0.73190   0.01267  Uiso   1.00
O22    O     0.16680   0.26470   0.64730   0.01267  Uiso   1.00
O23    O     0.05310   0.54710   0.61500   0.01267  Uiso   1.00
O24    O     0.79570   0.56280   0.52040   0.01267  Uiso   1.00
