data_image0
_cell_length_a       9.341
_cell_length_b       8.892
_cell_length_c       9.48
_cell_angle_alpha    90
_cell_angle_beta     117.6
_cell_angle_gamma    90

_symmetry_space_group_name_H-M    "P 1"
_symmetry_int_tables_number       1

loop_
  _symmetry_equiv_pos_as_xyz
  'x, y, z'

loop_
  _atom_site_label
  _atom_site_occupancy
  _atom_site_fract_x
  _atom_site_fract_y
  _atom_site_fract_z
  _atom_site_thermal_displace_type
  _atom_site_B_iso_or_equiv
  _atom_site_type_symbol
  P1       1.0000 0.83700  0.89970  0.06690  Biso   1.000  P
  P2       1.0000 0.13760  0.65860  0.46760  Biso   1.000  P
  O1       1.0000 0.00970  0.85460  0.11810  Biso   1.000  O
  O2       1.0000 0.24220  0.73260  0.40340  Biso   1.000  O
  O3       1.0000 0.74810  0.94430  0.89080  Biso   1.000  O
  O4       1.0000 0.24450  0.54850  0.59450  Biso   1.000  O
  O5       1.0000 0.98590  0.58760  0.33870  Biso   1.000  O
  O6       1.0000 0.73750  0.77480  0.09270  Biso   1.000  O
  O7       1.0000 0.84620  0.03900  0.17220  Biso   1.000  O
  O8       1.0000 0.08010  0.78330  0.54990  Biso   1.000  O
  P3       1.0000 0.66300  0.89970  0.43310  Biso   1.000  P
  P4       1.0000 0.36240  0.65860  0.03240  Biso   1.000  P
  O9       1.0000 0.49030  0.85460  0.38190  Biso   1.000  O
  O10      1.0000 0.25780  0.73260  0.09660  Biso   1.000  O
  O11      1.0000 0.75190  0.94430  0.60920  Biso   1.000  O
  O12      1.0000 0.25550  0.54850  0.90550  Biso   1.000  O
  O13      1.0000 0.51410  0.58760  0.16130  Biso   1.000  O
  O14      1.0000 0.76250  0.77480  0.40730  Biso   1.000  O
  O15      1.0000 0.65380  0.03900  0.32780  Biso   1.000  O
  O16      1.0000 0.41990  0.78330  0.95010  Biso   1.000  O
  P5       1.0000 0.16300  0.10030  0.93310  Biso   1.000  P
  P6       1.0000 0.86240  0.34140  0.53240  Biso   1.000  P
  O17      1.0000 0.99030  0.14540  0.88190  Biso   1.000  O
  O18      1.0000 0.75780  0.26740  0.59660  Biso   1.000  O
  O19      1.0000 0.25190  0.05570  0.10920  Biso   1.000  O
  O20      1.0000 0.75550  0.45150  0.40550  Biso   1.000  O
  O21      1.0000 0.01410  0.41240  0.66130  Biso   1.000  O
  O22      1.0000 0.26250  0.22520  0.90730  Biso   1.000  O
  O23      1.0000 0.15380  0.96100  0.82780  Biso   1.000  O
  O24      1.0000 0.91990  0.21670  0.45010  Biso   1.000  O
  P7       1.0000 0.33700  0.10030  0.56690  Biso   1.000  P
  P8       1.0000 0.63760  0.34140  0.96760  Biso   1.000  P
  O25      1.0000 0.50970  0.14540  0.61810  Biso   1.000  O
  O26      1.0000 0.74220  0.26740  0.90340  Biso   1.000  O
  O27      1.0000 0.24810  0.05570  0.39080  Biso   1.000  O
  O28      1.0000 0.74450  0.45150  0.09450  Biso   1.000  O
  O29      1.0000 0.48590  0.41240  0.83870  Biso   1.000  O
  O30      1.0000 0.23750  0.22520  0.59270  Biso   1.000  O
  O31      1.0000 0.34620  0.96100  0.67220  Biso   1.000  O
  O32      1.0000 0.58010  0.21670  0.04990  Biso   1.000  O
  Fe1      1.0000 0.25000  0.88180  0.25000  Biso   1.000  Fe
  Fe2      1.0000 0.75000  0.11820  0.75000  Biso   1.000  Fe
  Fe3      1.0000 0.75000  0.60420  0.25000  Biso   1.000  Fe
  Fe4      1.0000 0.25000  0.39580  0.75000  Biso   1.000  Fe
