data_image0
_cell_length_a       17.4878
_cell_length_b       16.5108
_cell_length_c       7.1382
_cell_angle_alpha    90
_cell_angle_beta     99.026
_cell_angle_gamma    90

_symmetry_space_group_name_H-M    "P 1"
_symmetry_int_tables_number       1

loop_
  _symmetry_equiv_pos_as_xyz
  'x, y, z'

loop_
  _atom_site_label
  _atom_site_occupancy
  _atom_site_fract_x
  _atom_site_fract_y
  _atom_site_fract_z
  _atom_site_thermal_displace_type
  _atom_site_B_iso_or_equiv
  _atom_site_type_symbol
  Cu1      1.0000 0.78504  0.77292  0.99336  Biso   1.000  Cu
  N1       1.0000 0.77810  0.66580  0.14820  Biso   1.000  N
  N2       1.0000 0.72210  0.36530  0.82460  Biso   1.000  N
  N3       1.0000 0.87380  0.77320  0.84370  Biso   1.000  N
  N4       1.0000 0.68000  0.77270  0.81010  Biso   1.000  N
  C1       1.0000 0.83320  0.64120  0.26730  Biso   1.000  C
  H1       1.0000 0.88190  0.66270  0.26190  Biso   1.000  H
  C2       1.0000 0.82720  0.58400  0.40760  Biso   1.000  C
  H2       1.0000 0.87090  0.56940  0.49270  Biso   1.000  H
  C3       1.0000 0.75700  0.54890  0.42090  Biso   1.000  C
  C4       1.0000 0.69830  0.57450  0.28750  Biso   1.000  C
  H3       1.0000 0.64910  0.55290  0.28490  Biso   1.000  H
  C5       1.0000 0.71030  0.63160  0.15680  Biso   1.000  C
  H4       1.0000 0.66810  0.64740  0.06830  Biso   1.000  H
  C6       1.0000 0.74520  0.48660  0.56510  Biso   1.000  C
  C7       1.0000 0.69120  0.49370  0.68060  Biso   1.000  C
  H5       1.0000 0.66090  0.54010  0.67530  Biso   1.000  H
  C8       1.0000 0.68100  0.43370  0.80390  Biso   1.000  C
  H6       1.0000 0.64270  0.44080  0.87930  Biso   1.000  H
  C9       1.0000 0.77660  0.35720  0.70260  Biso   1.000  C
  H7       1.0000 0.80520  0.30960  0.70800  Biso   1.000  H
  C10      1.0000 0.79030  0.41430  0.57770  Biso   1.000  C
  H8       1.0000 0.82820  0.40680  0.50130  Biso   1.000  H
  C11      1.0000 0.88750  0.70620  0.75060  Biso   1.000  C
  H9       1.0000 0.86280  0.65860  0.77660  Biso   1.000  H
  C12      1.0000 0.93700  0.70410  0.61690  Biso   1.000  C
  H10      1.0000 0.94480  0.65590  0.55510  Biso   1.000  H
  C13      1.0000 0.97460  0.77370  0.57600  Biso   1.000  C
  C14      1.0000 0.96020  0.83970  0.67100  Biso   1.000  C
  H11      1.0000 0.98420  0.88820  0.64850  Biso   1.000  H
  C15      1.0000 0.90970  0.83750  0.80370  Biso   1.000  C
  H12      1.0000 0.90150  0.88520  0.86710  Biso   1.000  H
  C16      1.0000 0.66460  0.72230  0.66610  Biso   1.000  C
  H13      1.0000 0.70300  0.68570  0.64660  Biso   1.000  H
  C17      1.0000 0.59620  0.71960  0.54290  Biso   1.000  C
  H14      1.0000 0.58940  0.68230  0.44430  Biso   1.000  H
  C18      1.0000 0.53770  0.77270  0.56600  Biso   1.000  C
  C19      1.0000 0.55300  0.82710  0.71830  Biso   1.000  C
  H15      1.0000 0.51560  0.86440  0.74030  Biso   1.000  H
  C20      1.0000 0.62220  0.82530  0.83280  Biso   1.000  C
  H16      1.0000 0.63080  0.86200  0.93270  Biso   1.000  H
  Cu2      1.0000 0.28504  0.27292  0.99336  Biso   1.000  Cu
  N5       1.0000 0.27810  0.16580  0.14820  Biso   1.000  N
  N6       1.0000 0.22210  0.86530  0.82460  Biso   1.000  N
  N7       1.0000 0.37380  0.27320  0.84370  Biso   1.000  N
  N8       1.0000 0.18000  0.27270  0.81010  Biso   1.000  N
  C21      1.0000 0.33320  0.14120  0.26730  Biso   1.000  C
  H17      1.0000 0.38190  0.16270  0.26190  Biso   1.000  H
  C22      1.0000 0.32720  0.08400  0.40760  Biso   1.000  C
  H18      1.0000 0.37090  0.06940  0.49270  Biso   1.000  H
  C23      1.0000 0.25700  0.04890  0.42090  Biso   1.000  C
  C24      1.0000 0.19830  0.07450  0.28750  Biso   1.000  C
  H19      1.0000 0.14910  0.05290  0.28490  Biso   1.000  H
  C25      1.0000 0.21030  0.13160  0.15680  Biso   1.000  C
  H20      1.0000 0.16810  0.14740  0.06830  Biso   1.000  H
  C26      1.0000 0.24520  0.98660  0.56510  Biso   1.000  C
  C27      1.0000 0.19120  0.99370  0.68060  Biso   1.000  C
  H21      1.0000 0.16090  0.04010  0.67530  Biso   1.000  H
  C28      1.0000 0.18100  0.93370  0.80390  Biso   1.000  C
  H22      1.0000 0.14270  0.94080  0.87930  Biso   1.000  H
  C29      1.0000 0.27660  0.85720  0.70260  Biso   1.000  C
  H23      1.0000 0.30520  0.80960  0.70800  Biso   1.000  H
  C30      1.0000 0.29030  0.91430  0.57770  Biso   1.000  C
  H24      1.0000 0.32820  0.90680  0.50130  Biso   1.000  H
  C31      1.0000 0.38750  0.20620  0.75060  Biso   1.000  C
  H25      1.0000 0.36280  0.15860  0.77660  Biso   1.000  H
  C32      1.0000 0.43700  0.20410  0.61690  Biso   1.000  C
  H26      1.0000 0.44480  0.15590  0.55510  Biso   1.000  H
  C33      1.0000 0.47460  0.27370  0.57600  Biso   1.000  C
  C34      1.0000 0.46020  0.33970  0.67100  Biso   1.000  C
  H27      1.0000 0.48420  0.38820  0.64850  Biso   1.000  H
  C35      1.0000 0.40970  0.33750  0.80370  Biso   1.000  C
  H28      1.0000 0.40150  0.38520  0.86710  Biso   1.000  H
  C36      1.0000 0.16460  0.22230  0.66610  Biso   1.000  C
  H29      1.0000 0.20300  0.18570  0.64660  Biso   1.000  H
  C37      1.0000 0.09620  0.21960  0.54290  Biso   1.000  C
  H30      1.0000 0.08940  0.18230  0.44430  Biso   1.000  H
  C38      1.0000 0.03770  0.27270  0.56600  Biso   1.000  C
  C39      1.0000 0.05300  0.32710  0.71830  Biso   1.000  C
  H31      1.0000 0.01560  0.36440  0.74030  Biso   1.000  H
  C40      1.0000 0.12220  0.32530  0.83280  Biso   1.000  C
  H32      1.0000 0.13080  0.36200  0.93270  Biso   1.000  H
  Cu3      1.0000 0.21496  0.77292  0.00664  Biso   1.000  Cu
  N9       1.0000 0.22190  0.66580  0.85180  Biso   1.000  N
  N10      1.0000 0.27790  0.36530  0.17540  Biso   1.000  N
  N11      1.0000 0.12620  0.77320  0.15630  Biso   1.000  N
  N12      1.0000 0.32000  0.77270  0.18990  Biso   1.000  N
  C41      1.0000 0.16680  0.64120  0.73270  Biso   1.000  C
  H33      1.0000 0.11810  0.66270  0.73810  Biso   1.000  H
  C42      1.0000 0.17280  0.58400  0.59240  Biso   1.000  C
  H34      1.0000 0.12910  0.56940  0.50730  Biso   1.000  H
  C43      1.0000 0.24300  0.54890  0.57910  Biso   1.000  C
  C44      1.0000 0.30170  0.57450  0.71250  Biso   1.000  C
  H35      1.0000 0.35090  0.55290  0.71510  Biso   1.000  H
  C45      1.0000 0.28970  0.63160  0.84320  Biso   1.000  C
  H36      1.0000 0.33190  0.64740  0.93170  Biso   1.000  H
  C46      1.0000 0.25480  0.48660  0.43490  Biso   1.000  C
  C47      1.0000 0.30880  0.49370  0.31940  Biso   1.000  C
  H37      1.0000 0.33910  0.54010  0.32470  Biso   1.000  H
  C48      1.0000 0.31900  0.43370  0.19610  Biso   1.000  C
  H38      1.0000 0.35730  0.44080  0.12070  Biso   1.000  H
  C49      1.0000 0.22340  0.35720  0.29740  Biso   1.000  C
  H39      1.0000 0.19480  0.30960  0.29200  Biso   1.000  H
  C50      1.0000 0.20970  0.41430  0.42230  Biso   1.000  C
  H40      1.0000 0.17180  0.40680  0.49870  Biso   1.000  H
  C51      1.0000 0.11250  0.70620  0.24940  Biso   1.000  C
  H41      1.0000 0.13720  0.65860  0.22340  Biso   1.000  H
  C52      1.0000 0.06300  0.70410  0.38310  Biso   1.000  C
  H42      1.0000 0.05520  0.65590  0.44490  Biso   1.000  H
  C53      1.0000 0.02540  0.77370  0.42400  Biso   1.000  C
  C54      1.0000 0.03980  0.83970  0.32900  Biso   1.000  C
  H43      1.0000 0.01580  0.88820  0.35150  Biso   1.000  H
  C55      1.0000 0.09030  0.83750  0.19630  Biso   1.000  C
  H44      1.0000 0.09850  0.88520  0.13290  Biso   1.000  H
  C56      1.0000 0.33540  0.72230  0.33390  Biso   1.000  C
  H45      1.0000 0.29700  0.68570  0.35340  Biso   1.000  H
  C57      1.0000 0.40380  0.71960  0.45710  Biso   1.000  C
  H46      1.0000 0.41060  0.68230  0.55570  Biso   1.000  H
  C58      1.0000 0.46230  0.77270  0.43400  Biso   1.000  C
  C59      1.0000 0.44700  0.82710  0.28170  Biso   1.000  C
  H47      1.0000 0.48440  0.86440  0.25970  Biso   1.000  H
  C60      1.0000 0.37780  0.82530  0.16720  Biso   1.000  C
  H48      1.0000 0.36920  0.86200  0.06730  Biso   1.000  H
  Cu4      1.0000 0.71496  0.27292  0.00664  Biso   1.000  Cu
  N13      1.0000 0.72190  0.16580  0.85180  Biso   1.000  N
  N14      1.0000 0.77790  0.86530  0.17540  Biso   1.000  N
  N15      1.0000 0.62620  0.27320  0.15630  Biso   1.000  N
  N16      1.0000 0.82000  0.27270  0.18990  Biso   1.000  N
  C61      1.0000 0.66680  0.14120  0.73270  Biso   1.000  C
  H49      1.0000 0.61810  0.16270  0.73810  Biso   1.000  H
  C62      1.0000 0.67280  0.08400  0.59240  Biso   1.000  C
  H50      1.0000 0.62910  0.06940  0.50730  Biso   1.000  H
  C63      1.0000 0.74300  0.04890  0.57910  Biso   1.000  C
  C64      1.0000 0.80170  0.07450  0.71250  Biso   1.000  C
  H51      1.0000 0.85090  0.05290  0.71510  Biso   1.000  H
  C65      1.0000 0.78970  0.13160  0.84320  Biso   1.000  C
  H52      1.0000 0.83190  0.14740  0.93170  Biso   1.000  H
  C66      1.0000 0.75480  0.98660  0.43490  Biso   1.000  C
  C67      1.0000 0.80880  0.99370  0.31940  Biso   1.000  C
  H53      1.0000 0.83910  0.04010  0.32470  Biso   1.000  H
  C68      1.0000 0.81900  0.93370  0.19610  Biso   1.000  C
  H54      1.0000 0.85730  0.94080  0.12070  Biso   1.000  H
  C69      1.0000 0.72340  0.85720  0.29740  Biso   1.000  C
  H55      1.0000 0.69480  0.80960  0.29200  Biso   1.000  H
  C70      1.0000 0.70970  0.91430  0.42230  Biso   1.000  C
  H56      1.0000 0.67180  0.90680  0.49870  Biso   1.000  H
  C71      1.0000 0.61250  0.20620  0.24940  Biso   1.000  C
  H57      1.0000 0.63720  0.15860  0.22340  Biso   1.000  H
  C72      1.0000 0.56300  0.20410  0.38310  Biso   1.000  C
  H58      1.0000 0.55520  0.15590  0.44490  Biso   1.000  H
  C73      1.0000 0.52540  0.27370  0.42400  Biso   1.000  C
  C74      1.0000 0.53980  0.33970  0.32900  Biso   1.000  C
  H59      1.0000 0.51580  0.38820  0.35150  Biso   1.000  H
  C75      1.0000 0.59030  0.33750  0.19630  Biso   1.000  C
  H60      1.0000 0.59850  0.38520  0.13290  Biso   1.000  H
  C76      1.0000 0.83540  0.22230  0.33390  Biso   1.000  C
  H61      1.0000 0.79700  0.18570  0.35340  Biso   1.000  H
  C77      1.0000 0.90380  0.21960  0.45710  Biso   1.000  C
  H62      1.0000 0.91060  0.18230  0.55570  Biso   1.000  H
  C78      1.0000 0.96230  0.27270  0.43400  Biso   1.000  C
  C79      1.0000 0.94700  0.32710  0.28170  Biso   1.000  C
  H63      1.0000 0.98440  0.36440  0.25970  Biso   1.000  H
  C80      1.0000 0.87780  0.32530  0.16720  Biso   1.000  C
  H64      1.0000 0.86920  0.36200  0.06730  Biso   1.000  H
