data_image0
_cell_length_a       9.7893
_cell_length_b       10.3641
_cell_length_c       10.6649
_cell_angle_alpha    111.801
_cell_angle_beta     100.498
_cell_angle_gamma    109.257

_symmetry_space_group_name_H-M    "P 1"
_symmetry_int_tables_number       1

loop_
  _symmetry_equiv_pos_as_xyz
  'x, y, z'

loop_
  _atom_site_label
  _atom_site_occupancy
  _atom_site_fract_x
  _atom_site_fract_y
  _atom_site_fract_z
  _atom_site_thermal_displace_type
  _atom_site_B_iso_or_equiv
  _atom_site_type_symbol
  Zn1      1.0000 0.59102  0.46809  0.79701  Biso   1.000  Zn
  O1       1.0000 0.55340  0.70600  0.72000  Biso   1.000  O
  O2       1.0000 0.54910  0.64470  0.89900  Biso   1.000  O
  O3       1.0000 0.32460  0.34600  0.56060  Biso   1.000  O
  O4       1.0000 0.40590  0.26850  0.71400  Biso   1.000  O
  O5       1.0000 0.69190  0.45960  0.65300  Biso   1.000  O
  O6       1.0000 0.90880  0.64700  0.82850  Biso   1.000  O
  N1       1.0000 0.70090  0.44430  0.96490  Biso   1.000  N
  H1       1.0000 0.62970  0.39850  0.99100  Biso   1.000  H
  C1       1.0000 0.54250  0.72970  0.83840  Biso   1.000  C
  C2       1.0000 0.51990  0.86950  0.92310  Biso   1.000  C
  C3       1.0000 0.47780  0.94890  0.85460  Biso   1.000  C
  H2       1.0000 0.46320  0.91470  0.75720  Biso   1.000  H
  C4       1.0000 0.54250  0.92210  0.07000  Biso   1.000  C
  H3       1.0000 0.57110  0.87030  0.11680  Biso   1.000  H
  C5       1.0000 0.30340  0.25600  0.61210  Biso   1.000  C
  C6       1.0000 0.14610  0.12130  0.55290  Biso   1.000  C
  C7       1.0000 0.01880  0.12720  0.47900  Biso   1.000  C
  H4       1.0000 0.03110  0.21260  0.46400  Biso   1.000  H
  C8       1.0000 0.12690  0.99300  0.57310  Biso   1.000  C
  H5       1.0000 0.21210  0.98730  0.62180  Biso   1.000  H
  C9       1.0000 0.83760  0.54840  0.70290  Biso   1.000  C
  C10      1.0000 0.92090  0.52250  0.59650  Biso   1.000  C
  C11      1.0000 0.84120  0.41760  0.45160  Biso   1.000  C
  H6       1.0000 0.73450  0.36230  0.41870  Biso   1.000  H
  C12      1.0000 0.08060  0.60480  0.64380  Biso   1.000  C
  H7       1.0000 0.13500  0.67550  0.74050  Biso   1.000  H
  C13      1.0000 0.77480  0.34150  0.91740  Biso   1.000  C
  H8       1.0000 0.70190  0.24780  0.83320  Biso   1.000  H
  H9       1.0000 0.80920  0.31800  0.99290  Biso   1.000  H
  H10      1.0000 0.86160  0.39170  0.89520  Biso   1.000  H
  C14      1.0000 0.80950  0.59050  0.09440  Biso   1.000  C
  H11      1.0000 0.75820  0.65510  0.12340  Biso   1.000  H
  H12      1.0000 0.89610  0.64240  0.07300  Biso   1.000  H
  H13      1.0000 0.84480  0.56890  0.17110  Biso   1.000  H
  Zn2      1.0000 0.40898  0.53191  0.20299  Biso   1.000  Zn
  O7       1.0000 0.44660  0.29400  0.28000  Biso   1.000  O
  O8       1.0000 0.45090  0.35530  0.10100  Biso   1.000  O
  O9       1.0000 0.67540  0.65400  0.43940  Biso   1.000  O
  O10      1.0000 0.59410  0.73150  0.28600  Biso   1.000  O
  O11      1.0000 0.30810  0.54040  0.34700  Biso   1.000  O
  O12      1.0000 0.09120  0.35300  0.17150  Biso   1.000  O
  N2       1.0000 0.29910  0.55570  0.03510  Biso   1.000  N
  H14      1.0000 0.37030  0.60150  0.00900  Biso   1.000  H
  C15      1.0000 0.45750  0.27030  0.16160  Biso   1.000  C
  C16      1.0000 0.48010  0.13050  0.07690  Biso   1.000  C
  C17      1.0000 0.52220  0.05110  0.14540  Biso   1.000  C
  H15      1.0000 0.53680  0.08530  0.24280  Biso   1.000  H
  C18      1.0000 0.45750  0.07790  0.93000  Biso   1.000  C
  H16      1.0000 0.42890  0.12970  0.88320  Biso   1.000  H
  C19      1.0000 0.69660  0.74400  0.38790  Biso   1.000  C
  C20      1.0000 0.85390  0.87870  0.44710  Biso   1.000  C
  C21      1.0000 0.98120  0.87280  0.52100  Biso   1.000  C
  H17      1.0000 0.96890  0.78740  0.53600  Biso   1.000  H
  C22      1.0000 0.87310  0.00700  0.42690  Biso   1.000  C
  H18      1.0000 0.78790  0.01270  0.37820  Biso   1.000  H
  C23      1.0000 0.16240  0.45160  0.29710  Biso   1.000  C
  C24      1.0000 0.07910  0.47750  0.40350  Biso   1.000  C
  C25      1.0000 0.15880  0.58240  0.54840  Biso   1.000  C
  H19      1.0000 0.26550  0.63770  0.58130  Biso   1.000  H
  C26      1.0000 0.91940  0.39520  0.35620  Biso   1.000  C
  H20      1.0000 0.86500  0.32450  0.25950  Biso   1.000  H
  C27      1.0000 0.22520  0.65850  0.08260  Biso   1.000  C
  H21      1.0000 0.29810  0.75220  0.16680  Biso   1.000  H
  H22      1.0000 0.19080  0.68200  0.00710  Biso   1.000  H
  H23      1.0000 0.13840  0.60830  0.10480  Biso   1.000  H
  C28      1.0000 0.19050  0.40950  0.90560  Biso   1.000  C
  H24      1.0000 0.24180  0.34490  0.87660  Biso   1.000  H
  H25      1.0000 0.10390  0.35760  0.92700  Biso   1.000  H
  H26      1.0000 0.15520  0.43110  0.82890  Biso   1.000  H
  Na1      1.0000 0.50000  0.50000  0.50000  Biso   1.000  Na
