data_image0
_cell_length_a       19.1912
_cell_length_b       9.347
_cell_length_c       9.6375
_cell_angle_alpha    90
_cell_angle_beta     92.709
_cell_angle_gamma    90

_symmetry_space_group_name_H-M    "P 1"
_symmetry_int_tables_number       1

loop_
  _symmetry_equiv_pos_as_xyz
  'x, y, z'

loop_
  _atom_site_label
  _atom_site_occupancy
  _atom_site_fract_x
  _atom_site_fract_y
  _atom_site_fract_z
  _atom_site_thermal_displace_type
  _atom_site_B_iso_or_equiv
  _atom_site_type_symbol
  P1       1.0000 0.83340  0.15080  0.52890  Biso   1.000  P
  P2       1.0000 0.95200  0.84480  0.21650  Biso   1.000  P
  P3       1.0000 0.58080  0.90640  0.40050  Biso   1.000  P
  P4       1.0000 0.60500  0.15680  0.78020  Biso   1.000  P
  Al1      1.0000 0.94410  0.91950  0.51920  Biso   1.000  Al
  Al2      1.0000 0.91830  0.15720  0.27250  Biso   1.000  Al
  Al3      1.0000 0.67460  0.15540  0.48910  Biso   1.000  Al
  Al4      1.0000 0.46600  0.13920  0.28530  Biso   1.000  Al
  O1       1.0000 0.87060  0.01520  0.58000  Biso   1.000  O
  O2       1.0000 0.83910  0.17820  0.37220  Biso   1.000  O
  O3       1.0000 0.75750  0.14530  0.55900  Biso   1.000  O
  O4       1.0000 0.86530  0.27560  0.61540  Biso   1.000  O
  O5       1.0000 0.91490  0.81830  0.35330  Biso   1.000  O
  O6       1.0000 0.91130  0.74520  0.11620  Biso   1.000  O
  O7       1.0000 0.03090  0.82000  0.23570  Biso   1.000  O
  O8       1.0000 0.93470  0.99900  0.16990  Biso   1.000  O
  O9       1.0000 0.51330  0.98570  0.36410  Biso   1.000  O
  O10      1.0000 0.57270  0.83310  0.54050  Biso   1.000  O
  O11      1.0000 0.59000  0.78550  0.29300  Biso   1.000  O
  O12      1.0000 0.65020  0.99040  0.41330  Biso   1.000  O
  O13      1.0000 0.53880  0.22810  0.82710  Biso   1.000  O
  O14      1.0000 0.62090  0.19600  0.62830  Biso   1.000  O
  O15      1.0000 0.60160  0.99190  0.78950  Biso   1.000  O
  O16      1.0000 0.67140  0.19990  0.87010  Biso   1.000  O
  O17      1.0000 0.96920  0.08130  0.42080  Biso   1.000  O
  P5       1.0000 0.16660  0.65080  0.97110  Biso   1.000  P
  P6       1.0000 0.04800  0.34480  0.28350  Biso   1.000  P
  P7       1.0000 0.41920  0.40640  0.09950  Biso   1.000  P
  P8       1.0000 0.39500  0.65680  0.71980  Biso   1.000  P
  Al5      1.0000 0.05590  0.41950  0.98080  Biso   1.000  Al
  Al6      1.0000 0.08170  0.65720  0.22750  Biso   1.000  Al
  Al7      1.0000 0.32540  0.65540  0.01090  Biso   1.000  Al
  Al8      1.0000 0.53400  0.63920  0.21470  Biso   1.000  Al
  O18      1.0000 0.12940  0.51520  0.92000  Biso   1.000  O
  O19      1.0000 0.16090  0.67820  0.12780  Biso   1.000  O
  O20      1.0000 0.24250  0.64530  0.94100  Biso   1.000  O
  O21      1.0000 0.13470  0.77560  0.88460  Biso   1.000  O
  O22      1.0000 0.08510  0.31830  0.14670  Biso   1.000  O
  O23      1.0000 0.08870  0.24520  0.38380  Biso   1.000  O
  O24      1.0000 0.96910  0.32000  0.26430  Biso   1.000  O
  O25      1.0000 0.06530  0.49900  0.33010  Biso   1.000  O
  O26      1.0000 0.48670  0.48570  0.13590  Biso   1.000  O
  O27      1.0000 0.42730  0.33310  0.95950  Biso   1.000  O
  O28      1.0000 0.41000  0.28550  0.20700  Biso   1.000  O
  O29      1.0000 0.34980  0.49040  0.08670  Biso   1.000  O
  O30      1.0000 0.46120  0.72810  0.67290  Biso   1.000  O
  O31      1.0000 0.37910  0.69600  0.87170  Biso   1.000  O
  O32      1.0000 0.39840  0.49190  0.71050  Biso   1.000  O
  O33      1.0000 0.32860  0.69990  0.62990  Biso   1.000  O
  O34      1.0000 0.03080  0.58130  0.07920  Biso   1.000  O
  P9       1.0000 0.16660  0.84920  0.47110  Biso   1.000  P
  P10      1.0000 0.04800  0.15520  0.78350  Biso   1.000  P
  P11      1.0000 0.41920  0.09360  0.59950  Biso   1.000  P
  P12      1.0000 0.39500  0.84320  0.21980  Biso   1.000  P
  Al9      1.0000 0.05590  0.08050  0.48080  Biso   1.000  Al
  Al10     1.0000 0.08170  0.84280  0.72750  Biso   1.000  Al
  Al11     1.0000 0.32540  0.84460  0.51090  Biso   1.000  Al
  Al12     1.0000 0.53400  0.86080  0.71470  Biso   1.000  Al
  O35      1.0000 0.12940  0.98480  0.42000  Biso   1.000  O
  O36      1.0000 0.16090  0.82180  0.62780  Biso   1.000  O
  O37      1.0000 0.24250  0.85470  0.44100  Biso   1.000  O
  O38      1.0000 0.13470  0.72440  0.38460  Biso   1.000  O
  O39      1.0000 0.08510  0.18170  0.64670  Biso   1.000  O
  O40      1.0000 0.08870  0.25480  0.88380  Biso   1.000  O
  O41      1.0000 0.96910  0.18000  0.76430  Biso   1.000  O
  O42      1.0000 0.06530  0.00100  0.83010  Biso   1.000  O
  O43      1.0000 0.48670  0.01430  0.63590  Biso   1.000  O
  O44      1.0000 0.42730  0.16690  0.45950  Biso   1.000  O
  O45      1.0000 0.41000  0.21450  0.70700  Biso   1.000  O
  O46      1.0000 0.34980  0.00960  0.58670  Biso   1.000  O
  O47      1.0000 0.46120  0.77190  0.17290  Biso   1.000  O
  O48      1.0000 0.37910  0.80400  0.37170  Biso   1.000  O
  O49      1.0000 0.39840  0.00810  0.21050  Biso   1.000  O
  O50      1.0000 0.32860  0.80010  0.12990  Biso   1.000  O
  O51      1.0000 0.03080  0.91870  0.57920  Biso   1.000  O
  P13      1.0000 0.83340  0.34920  0.02890  Biso   1.000  P
  P14      1.0000 0.95200  0.65520  0.71650  Biso   1.000  P
  P15      1.0000 0.58080  0.59360  0.90050  Biso   1.000  P
  P16      1.0000 0.60500  0.34320  0.28020  Biso   1.000  P
  Al13     1.0000 0.94410  0.58050  0.01920  Biso   1.000  Al
  Al14     1.0000 0.91830  0.34280  0.77250  Biso   1.000  Al
  Al15     1.0000 0.67460  0.34460  0.98910  Biso   1.000  Al
  Al16     1.0000 0.46600  0.36080  0.78530  Biso   1.000  Al
  O52      1.0000 0.87060  0.48480  0.08000  Biso   1.000  O
  O53      1.0000 0.83910  0.32180  0.87220  Biso   1.000  O
  O54      1.0000 0.75750  0.35470  0.05900  Biso   1.000  O
  O55      1.0000 0.86530  0.22440  0.11540  Biso   1.000  O
  O56      1.0000 0.91490  0.68170  0.85330  Biso   1.000  O
  O57      1.0000 0.91130  0.75480  0.61620  Biso   1.000  O
  O58      1.0000 0.03090  0.68000  0.73570  Biso   1.000  O
  O59      1.0000 0.93470  0.50100  0.66990  Biso   1.000  O
  O60      1.0000 0.51330  0.51430  0.86410  Biso   1.000  O
  O61      1.0000 0.57270  0.66690  0.04050  Biso   1.000  O
  O62      1.0000 0.59000  0.71450  0.79300  Biso   1.000  O
  O63      1.0000 0.65020  0.50960  0.91330  Biso   1.000  O
  O64      1.0000 0.53880  0.27190  0.32710  Biso   1.000  O
  O65      1.0000 0.62090  0.30400  0.12830  Biso   1.000  O
  O66      1.0000 0.60160  0.50810  0.28950  Biso   1.000  O
  O67      1.0000 0.67140  0.30010  0.37010  Biso   1.000  O
  O68      1.0000 0.96920  0.41870  0.92080  Biso   1.000  O
