data_image0
_cell_length_a       19.2491
_cell_length_b       9.275
_cell_length_c       9.7019
_cell_angle_alpha    90
_cell_angle_beta     93.793
_cell_angle_gamma    90

_symmetry_space_group_name_H-M    "P 1"
_symmetry_int_tables_number       1

loop_
  _symmetry_equiv_pos_as_xyz
  'x, y, z'

loop_
  _atom_site_label
  _atom_site_occupancy
  _atom_site_fract_x
  _atom_site_fract_y
  _atom_site_fract_z
  _atom_site_thermal_displace_type
  _atom_site_B_iso_or_equiv
  _atom_site_type_symbol
  P1       1.0000 0.83650  0.15980  0.52270  Biso   1.000  P
  P2       1.0000 0.94810  0.84440  0.21750  Biso   1.000  P
  P3       1.0000 0.58030  0.89890  0.39720  Biso   1.000  P
  P4       1.0000 0.60080  0.15160  0.77890  Biso   1.000  P
  Al1      1.0000 0.94230  0.92230  0.51170  Biso   1.000  Al
  Al2      1.0000 0.91950  0.15720  0.26690  Biso   1.000  Al
  Al3      1.0000 0.67160  0.15100  0.49040  Biso   1.000  Al
  Al4      1.0000 0.46130  0.14420  0.30290  Biso   1.000  Al
  O1       1.0000 0.86890  0.01380  0.56610  Biso   1.000  O
  O2       1.0000 0.84060  0.17950  0.36580  Biso   1.000  O
  O3       1.0000 0.75930  0.14680  0.54080  Biso   1.000  O
  O4       1.0000 0.87120  0.28480  0.60680  Biso   1.000  O
  O5       1.0000 0.92100  0.80790  0.35880  Biso   1.000  O
  O6       1.0000 0.91830  0.73580  0.11080  Biso   1.000  O
  O7       1.0000 0.02710  0.82480  0.22540  Biso   1.000  O
  O8       1.0000 0.93810  0.99730  0.15910  Biso   1.000  O
  O9       1.0000 0.51740  0.99750  0.36690  Biso   1.000  O
  O10      1.0000 0.58200  0.83200  0.54230  Biso   1.000  O
  O11      1.0000 0.59300  0.78460  0.28690  Biso   1.000  O
  O12      1.0000 0.64520  0.99630  0.39690  Biso   1.000  O
  O13      1.0000 0.53750  0.24450  0.79800  Biso   1.000  O
  O14      1.0000 0.62130  0.18150  0.62990  Biso   1.000  O
  O15      1.0000 0.58540  0.99290  0.80960  Biso   1.000  O
  O16      1.0000 0.65700  0.19240  0.89150  Biso   1.000  O
  O17      1.0000 0.97100  0.07630  0.41070  Biso   1.000  O
  P5       1.0000 0.16350  0.65980  0.97730  Biso   1.000  P
  P6       1.0000 0.05190  0.34440  0.28250  Biso   1.000  P
  P7       1.0000 0.41970  0.39890  0.10280  Biso   1.000  P
  P8       1.0000 0.39920  0.65160  0.72110  Biso   1.000  P
  Al5      1.0000 0.05770  0.42230  0.98830  Biso   1.000  Al
  Al6      1.0000 0.08050  0.65720  0.23310  Biso   1.000  Al
  Al7      1.0000 0.32840  0.65100  0.00960  Biso   1.000  Al
  Al8      1.0000 0.53870  0.64420  0.19710  Biso   1.000  Al
  O18      1.0000 0.13110  0.51380  0.93390  Biso   1.000  O
  O19      1.0000 0.15940  0.67950  0.13420  Biso   1.000  O
  O20      1.0000 0.24070  0.64680  0.95920  Biso   1.000  O
  O21      1.0000 0.12880  0.78480  0.89320  Biso   1.000  O
  O22      1.0000 0.07900  0.30790  0.14120  Biso   1.000  O
  O23      1.0000 0.08170  0.23580  0.38920  Biso   1.000  O
  O24      1.0000 0.97290  0.32480  0.27460  Biso   1.000  O
  O25      1.0000 0.06190  0.49730  0.34090  Biso   1.000  O
  O26      1.0000 0.48260  0.49750  0.13310  Biso   1.000  O
  O27      1.0000 0.41800  0.33200  0.95770  Biso   1.000  O
  O28      1.0000 0.40700  0.28460  0.21310  Biso   1.000  O
  O29      1.0000 0.35480  0.49630  0.10310  Biso   1.000  O
  O30      1.0000 0.46250  0.74450  0.70200  Biso   1.000  O
  O31      1.0000 0.37870  0.68150  0.87010  Biso   1.000  O
  O32      1.0000 0.41460  0.49290  0.69040  Biso   1.000  O
  O33      1.0000 0.34300  0.69240  0.60850  Biso   1.000  O
  O34      1.0000 0.02900  0.57630  0.08930  Biso   1.000  O
  P9       1.0000 0.16350  0.84020  0.47730  Biso   1.000  P
  P10      1.0000 0.05190  0.15560  0.78250  Biso   1.000  P
  P11      1.0000 0.41970  0.10110  0.60280  Biso   1.000  P
  P12      1.0000 0.39920  0.84840  0.22110  Biso   1.000  P
  Al9      1.0000 0.05770  0.07770  0.48830  Biso   1.000  Al
  Al10     1.0000 0.08050  0.84280  0.73310  Biso   1.000  Al
  Al11     1.0000 0.32840  0.84900  0.50960  Biso   1.000  Al
  Al12     1.0000 0.53870  0.85580  0.69710  Biso   1.000  Al
  O35      1.0000 0.13110  0.98620  0.43390  Biso   1.000  O
  O36      1.0000 0.15940  0.82050  0.63420  Biso   1.000  O
  O37      1.0000 0.24070  0.85320  0.45920  Biso   1.000  O
  O38      1.0000 0.12880  0.71520  0.39320  Biso   1.000  O
  O39      1.0000 0.07900  0.19210  0.64120  Biso   1.000  O
  O40      1.0000 0.08170  0.26420  0.88920  Biso   1.000  O
  O41      1.0000 0.97290  0.17520  0.77460  Biso   1.000  O
  O42      1.0000 0.06190  0.00270  0.84090  Biso   1.000  O
  O43      1.0000 0.48260  0.00250  0.63310  Biso   1.000  O
  O44      1.0000 0.41800  0.16800  0.45770  Biso   1.000  O
  O45      1.0000 0.40700  0.21540  0.71310  Biso   1.000  O
  O46      1.0000 0.35480  0.00370  0.60310  Biso   1.000  O
  O47      1.0000 0.46250  0.75550  0.20200  Biso   1.000  O
  O48      1.0000 0.37870  0.81850  0.37010  Biso   1.000  O
  O49      1.0000 0.41460  0.00710  0.19040  Biso   1.000  O
  O50      1.0000 0.34300  0.80760  0.10850  Biso   1.000  O
  O51      1.0000 0.02900  0.92370  0.58930  Biso   1.000  O
  P13      1.0000 0.83650  0.34020  0.02270  Biso   1.000  P
  P14      1.0000 0.94810  0.65560  0.71750  Biso   1.000  P
  P15      1.0000 0.58030  0.60110  0.89720  Biso   1.000  P
  P16      1.0000 0.60080  0.34840  0.27890  Biso   1.000  P
  Al13     1.0000 0.94230  0.57770  0.01170  Biso   1.000  Al
  Al14     1.0000 0.91950  0.34280  0.76690  Biso   1.000  Al
  Al15     1.0000 0.67160  0.34900  0.99040  Biso   1.000  Al
  Al16     1.0000 0.46130  0.35580  0.80290  Biso   1.000  Al
  O52      1.0000 0.86890  0.48620  0.06610  Biso   1.000  O
  O53      1.0000 0.84060  0.32050  0.86580  Biso   1.000  O
  O54      1.0000 0.75930  0.35320  0.04080  Biso   1.000  O
  O55      1.0000 0.87120  0.21520  0.10680  Biso   1.000  O
  O56      1.0000 0.92100  0.69210  0.85880  Biso   1.000  O
  O57      1.0000 0.91830  0.76420  0.61080  Biso   1.000  O
  O58      1.0000 0.02710  0.67520  0.72540  Biso   1.000  O
  O59      1.0000 0.93810  0.50270  0.65910  Biso   1.000  O
  O60      1.0000 0.51740  0.50250  0.86690  Biso   1.000  O
  O61      1.0000 0.58200  0.66800  0.04230  Biso   1.000  O
  O62      1.0000 0.59300  0.71540  0.78690  Biso   1.000  O
  O63      1.0000 0.64520  0.50370  0.89690  Biso   1.000  O
  O64      1.0000 0.53750  0.25550  0.29800  Biso   1.000  O
  O65      1.0000 0.62130  0.31850  0.12990  Biso   1.000  O
  O66      1.0000 0.58540  0.50710  0.30960  Biso   1.000  O
  O67      1.0000 0.65700  0.30760  0.39150  Biso   1.000  O
  O68      1.0000 0.97100  0.42370  0.91070  Biso   1.000  O
