data_image0
_cell_length_a       7.5174
_cell_length_b       14.3676
_cell_length_c       16.35
_cell_angle_alpha    76.831
_cell_angle_beta     84.282
_cell_angle_gamma    89.965

_symmetry_space_group_name_H-M    "P 1"
_symmetry_int_tables_number       1

loop_
  _symmetry_equiv_pos_as_xyz
  'x, y, z'

loop_
  _atom_site_label
  _atom_site_occupancy
  _atom_site_fract_x
  _atom_site_fract_y
  _atom_site_fract_z
  _atom_site_thermal_displace_type
  _atom_site_B_iso_or_equiv
  _atom_site_type_symbol
  Pt1      1.0000 0.49365  0.23890  0.03256  Biso   1.000  Pt
  N1       1.0000 0.02000  0.10040  0.87620  Biso   1.000  N
  N2       1.0000 0.19100  0.08650  0.03530  Biso   1.000  N
  N3       1.0000 0.79900  0.39070  0.02010  Biso   1.000  N
  N4       1.0000 0.20400  0.39790  0.00700  Biso   1.000  N
  N5       1.0000 0.99300  0.47600  0.13740  Biso   1.000  N
  N6       1.0000 0.78800  0.08230  0.03870  Biso   1.000  N
  C1       1.0000 0.04300  0.06570  0.80920  Biso   1.000  C
  H1       1.0000 0.05380  0.00020  0.81450  Biso   1.000  H
  C2       1.0000 0.05300  0.12830  0.72790  Biso   1.000  C
  H2       1.0000 0.07440  0.10340  0.68020  Biso   1.000  H
  C3       1.0000 0.03000  0.22850  0.71830  Biso   1.000  C
  C4       1.0000 0.01300  0.26170  0.79160  Biso   1.000  C
  H3       1.0000 0.00570  0.32690  0.78900  Biso   1.000  H
  C5       1.0000 0.00600  0.19760  0.86820  Biso   1.000  C
  H4       1.0000 0.99120  0.22090  0.91700  Biso   1.000  H
  C6       1.0000 0.03100  0.29300  0.63510  Biso   1.000  C
  C7       1.0000 0.01600  0.33400  0.56340  Biso   1.000  C
  C8       1.0000 0.30100  0.14220  0.03750  Biso   1.000  C
  C9       1.0000 0.68800  0.33640  0.02590  Biso   1.000  C
  C10      1.0000 0.31000  0.34060  0.01810  Biso   1.000  C
  C11      1.0000 0.68000  0.13830  0.04120  Biso   1.000  C
  C12      1.0000 0.14800  0.48700  0.17190  Biso   1.000  C
  H5       1.0000 0.25250  0.50650  0.13650  Biso   1.000  H
  C13      1.0000 0.15300  0.46800  0.26170  Biso   1.000  C
  H6       1.0000 0.25800  0.47540  0.28540  Biso   1.000  H
  C14      1.0000 0.99000  0.43600  0.31320  Biso   1.000  C
  C15      1.0000 0.83700  0.43200  0.27730  Biso   1.000  C
  H7       1.0000 0.72930  0.41690  0.31130  Biso   1.000  H
  C16      1.0000 0.83800  0.45100  0.18750  Biso   1.000  C
  H8       1.0000 0.73250  0.44710  0.16350  Biso   1.000  H
  C17      1.0000 0.99500  0.40700  0.40450  Biso   1.000  C
  C18      1.0000 0.00600  0.38140  0.47770  Biso   1.000  C
  Pt2      1.0000 0.50635  0.76110  0.96744  Biso   1.000  Pt
  N7       1.0000 0.98000  0.89960  0.12380  Biso   1.000  N
  N8       1.0000 0.80900  0.91350  0.96470  Biso   1.000  N
  N9       1.0000 0.20100  0.60930  0.97990  Biso   1.000  N
  N10      1.0000 0.79600  0.60210  0.99300  Biso   1.000  N
  N11      1.0000 0.00700  0.52400  0.86260  Biso   1.000  N
  N12      1.0000 0.21200  0.91770  0.96130  Biso   1.000  N
  C19      1.0000 0.95700  0.93430  0.19080  Biso   1.000  C
  H9       1.0000 0.94620  0.99980  0.18550  Biso   1.000  H
  C20      1.0000 0.94700  0.87170  0.27210  Biso   1.000  C
  H10      1.0000 0.92560  0.89660  0.31980  Biso   1.000  H
  C21      1.0000 0.97000  0.77150  0.28170  Biso   1.000  C
  C22      1.0000 0.98700  0.73830  0.20840  Biso   1.000  C
  H11      1.0000 0.99430  0.67310  0.21100  Biso   1.000  H
  C23      1.0000 0.99400  0.80240  0.13180  Biso   1.000  C
  H12      1.0000 0.00880  0.77910  0.08300  Biso   1.000  H
  C24      1.0000 0.96900  0.70700  0.36490  Biso   1.000  C
  C25      1.0000 0.98400  0.66600  0.43660  Biso   1.000  C
  C26      1.0000 0.69900  0.85780  0.96250  Biso   1.000  C
  C27      1.0000 0.31200  0.66360  0.97410  Biso   1.000  C
  C28      1.0000 0.69000  0.65940  0.98190  Biso   1.000  C
  C29      1.0000 0.32000  0.86170  0.95880  Biso   1.000  C
  C30      1.0000 0.85200  0.51300  0.82810  Biso   1.000  C
  H13      1.0000 0.74750  0.49350  0.86350  Biso   1.000  H
  C31      1.0000 0.84700  0.53200  0.73830  Biso   1.000  C
  H14      1.0000 0.74200  0.52460  0.71460  Biso   1.000  H
  C32      1.0000 0.01000  0.56400  0.68680  Biso   1.000  C
  C33      1.0000 0.16300  0.56800  0.72270  Biso   1.000  C
  H15      1.0000 0.27070  0.58310  0.68870  Biso   1.000  H
  C34      1.0000 0.16200  0.54900  0.81250  Biso   1.000  C
  H16      1.0000 0.26750  0.55290  0.83650  Biso   1.000  H
  C35      1.0000 0.00500  0.59300  0.59550  Biso   1.000  C
  C36      1.0000 0.99400  0.61860  0.52230  Biso   1.000  C
  Fe1      1.0000 0.00000  0.50000  0.00000  Biso   1.000  Fe
  Fe2      1.0000 0.00000  0.00000  0.00000  Biso   1.000  Fe
