data_image0
_cell_length_a       7.2443
_cell_length_b       13.8127
_cell_length_c       15.4746
_cell_angle_alpha    80.352
_cell_angle_beta     87.669
_cell_angle_gamma    89.842

_symmetry_space_group_name_H-M    "P 1"
_symmetry_int_tables_number       1

loop_
  _symmetry_equiv_pos_as_xyz
  'x, y, z'

loop_
  _atom_site_label
  _atom_site_occupancy
  _atom_site_fract_x
  _atom_site_fract_y
  _atom_site_fract_z
  _atom_site_thermal_displace_type
  _atom_site_B_iso_or_equiv
  _atom_site_type_symbol
  Pt1      1.0000 0.00288  0.26061  0.46287  Biso   1.000  Pt
  N1       1.0000 0.50820  0.58950  0.38400  Biso   1.000  N
  N2       1.0000 0.69370  0.41890  0.46100  Biso   1.000  N
  N3       1.0000 0.31100  0.09990  0.48990  Biso   1.000  N
  N4       1.0000 0.68990  0.10050  0.48610  Biso   1.000  N
  N5       1.0000 0.49670  0.99320  0.63000  Biso   1.000  N
  N6       1.0000 0.31250  0.41850  0.46250  Biso   1.000  N
  C1       1.0000 0.51470  0.55380  0.30680  Biso   1.000  C
  H1       1.0000 0.51820  0.48610  0.30910  Biso   1.000  H
  C2       1.0000 0.51630  0.61220  0.22700  Biso   1.000  C
  H2       1.0000 0.52020  0.58440  0.17620  Biso   1.000  H
  C3       1.0000 0.51210  0.71490  0.22140  Biso   1.000  C
  C4       1.0000 0.50750  0.75190  0.30020  Biso   1.000  C
  H3       1.0000 0.50600  0.81940  0.29930  Biso   1.000  H
  C5       1.0000 0.50520  0.68900  0.37880  Biso   1.000  C
  H4       1.0000 0.50150  0.71520  0.43050  Biso   1.000  H
  C6       1.0000 0.51100  0.77830  0.13750  Biso   1.000  C
  C7       1.0000 0.50750  0.82610  0.06600  Biso   1.000  C
  C8       1.0000 0.50150  0.87630  0.98150  Biso   1.000  C
  C9       1.0000 0.80820  0.36320  0.45490  Biso   1.000  C
  C10      1.0000 0.65520  0.98550  0.67380  Biso   1.000  C
  H5       1.0000 0.76690  0.99440  0.64160  Biso   1.000  H
  C11      1.0000 0.65870  0.96500  0.76430  Biso   1.000  C
  H6       1.0000 0.77070  0.96150  0.79200  Biso   1.000  H
  C12      1.0000 0.49350  0.94970  0.81360  Biso   1.000  C
  C13      1.0000 0.32980  0.96320  0.77000  Biso   1.000  C
  H7       1.0000 0.21700  0.95790  0.80140  Biso   1.000  H
  C14      1.0000 0.33590  0.98510  0.67810  Biso   1.000  C
  H8       1.0000 0.22550  0.99430  0.64930  Biso   1.000  H
  C15      1.0000 0.49710  0.91510  0.90660  Biso   1.000  C
  C16      1.0000 0.19660  0.15800  0.47990  Biso   1.000  C
  C17      1.0000 0.80550  0.15850  0.47720  Biso   1.000  C
  C18      1.0000 0.19650  0.36280  0.45700  Biso   1.000  C
  Pt2      1.0000 0.99712  0.73939  0.53713  Biso   1.000  Pt
  N7       1.0000 0.49180  0.41050  0.61600  Biso   1.000  N
  N8       1.0000 0.30630  0.58110  0.53900  Biso   1.000  N
  N9       1.0000 0.68900  0.90010  0.51010  Biso   1.000  N
  N10      1.0000 0.31010  0.89950  0.51390  Biso   1.000  N
  N11      1.0000 0.50330  0.00680  0.37000  Biso   1.000  N
  N12      1.0000 0.68750  0.58150  0.53750  Biso   1.000  N
  C19      1.0000 0.48530  0.44620  0.69320  Biso   1.000  C
  H9       1.0000 0.48180  0.51390  0.69090  Biso   1.000  H
  C20      1.0000 0.48370  0.38780  0.77300  Biso   1.000  C
  H10      1.0000 0.47980  0.41560  0.82380  Biso   1.000  H
  C21      1.0000 0.48790  0.28510  0.77860  Biso   1.000  C
  C22      1.0000 0.49250  0.24810  0.69980  Biso   1.000  C
  H11      1.0000 0.49400  0.18060  0.70070  Biso   1.000  H
  C23      1.0000 0.49480  0.31100  0.62120  Biso   1.000  C
  H12      1.0000 0.49850  0.28480  0.56950  Biso   1.000  H
  C24      1.0000 0.48900  0.22170  0.86250  Biso   1.000  C
  C25      1.0000 0.49250  0.17390  0.93400  Biso   1.000  C
  C26      1.0000 0.49850  0.12370  0.01850  Biso   1.000  C
  C27      1.0000 0.19180  0.63680  0.54510  Biso   1.000  C
  C28      1.0000 0.34480  0.01450  0.32620  Biso   1.000  C
  H13      1.0000 0.23310  0.00560  0.35840  Biso   1.000  H
  C29      1.0000 0.34130  0.03500  0.23570  Biso   1.000  C
  H14      1.0000 0.22930  0.03850  0.20800  Biso   1.000  H
  C30      1.0000 0.50650  0.05030  0.18640  Biso   1.000  C
  C31      1.0000 0.67020  0.03680  0.23000  Biso   1.000  C
  H15      1.0000 0.78300  0.04210  0.19860  Biso   1.000  H
  C32      1.0000 0.66410  0.01490  0.32190  Biso   1.000  C
  H16      1.0000 0.77450  0.00570  0.35070  Biso   1.000  H
  C33      1.0000 0.50290  0.08490  0.09340  Biso   1.000  C
  C34      1.0000 0.80340  0.84200  0.52010  Biso   1.000  C
  C35      1.0000 0.19450  0.84150  0.52280  Biso   1.000  C
  C36      1.0000 0.80350  0.63720  0.54300  Biso   1.000  C
  Fe1      1.0000 0.50000  0.50000  0.50000  Biso   1.000  Fe
  Fe2      1.0000 0.50000  0.00000  0.50000  Biso   1.000  Fe
