data_image0
_cell_length_a       7.4872
_cell_length_b       14.3024
_cell_length_c       15.0203
_cell_angle_alpha    86.393
_cell_angle_beta     84.502
_cell_angle_gamma    89.936

_symmetry_space_group_name_H-M    "P 1"
_symmetry_int_tables_number       1

loop_
  _symmetry_equiv_pos_as_xyz
  'x, y, z'

loop_
  _atom_site_label
  _atom_site_occupancy
  _atom_site_fract_x
  _atom_site_fract_y
  _atom_site_fract_z
  _atom_site_thermal_displace_type
  _atom_site_B_iso_or_equiv
  _atom_site_type_symbol
  Pt1      1.0000 0.00681  0.25891  0.46230  Biso   1.000  Pt
  N1       1.0000 0.51860  0.59410  0.37790  Biso   1.000  N
  N2       1.0000 0.71660  0.41470  0.44360  Biso   1.000  N
  N3       1.0000 0.48800  0.00070  0.64900  Biso   1.000  N
  N4       1.0000 0.29530  0.10650  0.49690  Biso   1.000  N
  N5       1.0000 0.70600  0.10540  0.48710  Biso   1.000  N
  N6       1.0000 0.30630  0.41330  0.44840  Biso   1.000  N
  C1       1.0000 0.53200  0.55270  0.29240  Biso   1.000  C
  C2       1.0000 0.53500  0.61340  0.21810  Biso   1.000  C
  C3       1.0000 0.52500  0.71010  0.22100  Biso   1.000  C
  C4       1.0000 0.52400  0.74700  0.30350  Biso   1.000  C
  C5       1.0000 0.51700  0.68680  0.37980  Biso   1.000  C
  C6       1.0000 0.52800  0.76600  0.14190  Biso   1.000  C
  C7       1.0000 0.51400  0.81480  0.07090  Biso   1.000  C
  C8       1.0000 0.49700  0.86800  0.99640  Biso   1.000  C
  C9       1.0000 0.82250  0.35730  0.44560  Biso   1.000  C
  C10      1.0000 0.63800  0.99080  0.68890  Biso   1.000  C
  C11      1.0000 0.63600  0.96620  0.78050  Biso   1.000  C
  C12      1.0000 0.48700  0.95200  0.83100  Biso   1.000  C
  C13      1.0000 0.33700  0.95940  0.79580  Biso   1.000  C
  C14      1.0000 0.33000  0.99150  0.70080  Biso   1.000  C
  C15      1.0000 0.49300  0.91100  0.92500  Biso   1.000  C
  C16      1.0000 0.19260  0.16260  0.48390  Biso   1.000  C
  C17      1.0000 0.81350  0.16250  0.47960  Biso   1.000  C
  C18      1.0000 0.19790  0.35710  0.44850  Biso   1.000  C
  Pt2      1.0000 0.99319  0.74109  0.53770  Biso   1.000  Pt
  N7       1.0000 0.48140  0.40590  0.62210  Biso   1.000  N
  N8       1.0000 0.28340  0.58530  0.55640  Biso   1.000  N
  N9       1.0000 0.51200  0.99930  0.35100  Biso   1.000  N
  N10      1.0000 0.70470  0.89350  0.50310  Biso   1.000  N
  N11      1.0000 0.29400  0.89460  0.51290  Biso   1.000  N
  N12      1.0000 0.69370  0.58670  0.55160  Biso   1.000  N
  C19      1.0000 0.46800  0.44730  0.70760  Biso   1.000  C
  C20      1.0000 0.46500  0.38660  0.78190  Biso   1.000  C
  C21      1.0000 0.47500  0.28990  0.77900  Biso   1.000  C
  C22      1.0000 0.47600  0.25300  0.69650  Biso   1.000  C
  C23      1.0000 0.48300  0.31320  0.62020  Biso   1.000  C
  C24      1.0000 0.47200  0.23400  0.85810  Biso   1.000  C
  C25      1.0000 0.48600  0.18520  0.92910  Biso   1.000  C
  C26      1.0000 0.50300  0.13200  0.00360  Biso   1.000  C
  C27      1.0000 0.17750  0.64270  0.55440  Biso   1.000  C
  C28      1.0000 0.36200  0.00920  0.31110  Biso   1.000  C
  C29      1.0000 0.36400  0.03380  0.21950  Biso   1.000  C
  C30      1.0000 0.51300  0.04800  0.16900  Biso   1.000  C
  C31      1.0000 0.66300  0.04060  0.20420  Biso   1.000  C
  C32      1.0000 0.67000  0.00850  0.29920  Biso   1.000  C
  C33      1.0000 0.50700  0.08900  0.07500  Biso   1.000  C
  C34      1.0000 0.80740  0.83740  0.51610  Biso   1.000  C
  C35      1.0000 0.18650  0.83750  0.52040  Biso   1.000  C
  C36      1.0000 0.80210  0.64290  0.55150  Biso   1.000  C
  Fe1      1.0000 0.50000  0.50000  0.50000  Biso   1.000  Fe
  Fe2      1.0000 0.50000  0.00000  0.50000  Biso   1.000  Fe
