data_image0
_cell_length_a       7.3635
_cell_length_b       14.1112
_cell_length_c       16.3906
_cell_angle_alpha    74.663
_cell_angle_beta     82.349
_cell_angle_gamma    89.878

_symmetry_space_group_name_H-M    "P 1"
_symmetry_int_tables_number       1

loop_
  _symmetry_equiv_pos_as_xyz
  'x, y, z'

loop_
  _atom_site_label
  _atom_site_occupancy
  _atom_site_fract_x
  _atom_site_fract_y
  _atom_site_fract_z
  _atom_site_thermal_displace_type
  _atom_site_B_iso_or_equiv
  _atom_site_type_symbol
  Pt1      1.0000 0.49172  0.22837  0.03450  Biso   1.000  Pt
  N1       1.0000 0.02130  0.09424  0.88385  Biso   1.000  N
  N2       1.0000 0.17890  0.08126  0.02915  Biso   1.000  N
  N3       1.0000 0.79920  0.38447  0.02452  Biso   1.000  N
  N4       1.0000 0.21080  0.39621  0.00416  Biso   1.000  N
  N5       1.0000 0.99460  0.48017  0.13980  Biso   1.000  N
  N6       1.0000 0.79860  0.07500  0.03587  Biso   1.000  N
  C1       1.0000 0.04210  0.06127  0.81365  Biso   1.000  C
  H1       1.0000 0.05280  0.99410  0.82020  Biso   1.000  H
  C2       1.0000 0.04850  0.12210  0.73235  Biso   1.000  C
  H2       1.0000 0.06380  0.09610  0.68540  Biso   1.000  H
  C3       1.0000 0.03180  0.22250  0.72096  Biso   1.000  C
  C4       1.0000 0.01410  0.25680  0.79300  Biso   1.000  C
  H3       1.0000 0.00510  0.32380  0.78780  Biso   1.000  H
  C5       1.0000 0.00970  0.19184  0.87254  Biso   1.000  C
  H4       1.0000 0.99820  0.21640  0.92020  Biso   1.000  H
  C6       1.0000 0.02880  0.28630  0.63701  Biso   1.000  C
  C7       1.0000 0.02100  0.33190  0.56528  Biso   1.000  C
  C8       1.0000 0.29420  0.13261  0.03515  Biso   1.000  C
  C9       1.0000 0.68610  0.32595  0.02987  Biso   1.000  C
  C10      1.0000 0.31320  0.33441  0.01620  Biso   1.000  C
  C11      1.0000 0.68020  0.12674  0.04247  Biso   1.000  C
  C12      1.0000 0.14540  0.49270  0.17307  Biso   1.000  C
  H5       1.0000 0.25230  0.51600  0.13600  Biso   1.000  H
  C13      1.0000 0.15120  0.47290  0.25948  Biso   1.000  C
  H6       1.0000 0.25940  0.48350  0.27970  Biso   1.000  H
  C14      1.0000 0.99400  0.43710  0.31613  Biso   1.000  C
  C15      1.0000 0.83620  0.42480  0.28215  Biso   1.000  C
  H7       1.0000 0.72740  0.40170  0.31780  Biso   1.000  H
  C16      1.0000 0.84280  0.44740  0.19444  Biso   1.000  C
  H8       1.0000 0.73570  0.43930  0.17230  Biso   1.000  H
  C17      1.0000 0.99840  0.40860  0.40690  Biso   1.000  C
  C18      1.0000 0.00840  0.37690  0.48072  Biso   1.000  C
  Pt2      1.0000 0.50828  0.77163  0.96550  Biso   1.000  Pt
  N7       1.0000 0.97870  0.90576  0.11615  Biso   1.000  N
  N8       1.0000 0.82110  0.91874  0.97085  Biso   1.000  N
  N9       1.0000 0.20080  0.61553  0.97548  Biso   1.000  N
  N10      1.0000 0.78920  0.60379  0.99584  Biso   1.000  N
  N11      1.0000 0.00540  0.51983  0.86020  Biso   1.000  N
  N12      1.0000 0.20140  0.92500  0.96413  Biso   1.000  N
  C19      1.0000 0.95790  0.93873  0.18635  Biso   1.000  C
  H9       1.0000 0.94720  0.00590  0.17980  Biso   1.000  H
  C20      1.0000 0.95150  0.87790  0.26765  Biso   1.000  C
  H10      1.0000 0.93620  0.90390  0.31460  Biso   1.000  H
  C21      1.0000 0.96820  0.77750  0.27904  Biso   1.000  C
  C22      1.0000 0.98590  0.74320  0.20700  Biso   1.000  C
  H11      1.0000 0.99490  0.67620  0.21220  Biso   1.000  H
  C23      1.0000 0.99030  0.80816  0.12746  Biso   1.000  C
  H12      1.0000 0.00180  0.78360  0.07980  Biso   1.000  H
  C24      1.0000 0.97120  0.71370  0.36299  Biso   1.000  C
  C25      1.0000 0.97900  0.66810  0.43472  Biso   1.000  C
  C26      1.0000 0.70580  0.86739  0.96485  Biso   1.000  C
  C27      1.0000 0.31390  0.67405  0.97013  Biso   1.000  C
  C28      1.0000 0.68680  0.66559  0.98380  Biso   1.000  C
  C29      1.0000 0.31980  0.87326  0.95753  Biso   1.000  C
  C30      1.0000 0.85460  0.50730  0.82693  Biso   1.000  C
  H13      1.0000 0.74770  0.48400  0.86400  Biso   1.000  H
  C31      1.0000 0.84880  0.52710  0.74052  Biso   1.000  C
  H14      1.0000 0.74060  0.51650  0.72030  Biso   1.000  H
  C32      1.0000 0.00600  0.56290  0.68387  Biso   1.000  C
  C33      1.0000 0.16380  0.57520  0.71785  Biso   1.000  C
  H15      1.0000 0.27260  0.59830  0.68220  Biso   1.000  H
  C34      1.0000 0.15720  0.55260  0.80556  Biso   1.000  C
  H16      1.0000 0.26430  0.56070  0.82770  Biso   1.000  H
  C35      1.0000 0.00160  0.59140  0.59310  Biso   1.000  C
  C36      1.0000 0.99160  0.62310  0.51928  Biso   1.000  C
  Fe1      1.0000 0.00000  0.50000  0.00000  Biso   1.000  Fe
  Fe2      1.0000 0.00000  0.00000  0.00000  Biso   1.000  Fe
