data_image0
_cell_length_a       14.9927
_cell_length_b       17.2321
_cell_length_c       24.798
_cell_angle_alpha    90
_cell_angle_beta     90
_cell_angle_gamma    90

_symmetry_space_group_name_H-M    "P 1"
_symmetry_int_tables_number       1

loop_
  _symmetry_equiv_pos_as_xyz
  'x, y, z'

loop_
  _atom_site_label
  _atom_site_occupancy
  _atom_site_fract_x
  _atom_site_fract_y
  _atom_site_fract_z
  _atom_site_thermal_displace_type
  _atom_site_B_iso_or_equiv
  _atom_site_type_symbol
  O1       1.0000 0.85710  0.21670  0.44174  Biso   1.000  O
  O2       1.0000 0.30920  0.03270  0.06131  Biso   1.000  O
  O3       1.0000 0.24650  0.14850  0.05876  Biso   1.000  O
  C1       1.0000 0.07560  0.02310  0.20663  Biso   1.000  C
  C2       1.0000 0.97610  0.06680  0.28504  Biso   1.000  C
  C3       1.0000 0.19320  0.06220  0.12290  Biso   1.000  C
  C4       1.0000 0.14870  0.97730  0.19560  Biso   1.000  C
  H1       1.0000 0.15920  0.93340  0.21650  Biso   1.000  H
  C5       1.0000 0.12350  0.10870  0.13500  Biso   1.000  C
  H2       1.0000 0.11570  0.15480  0.11610  Biso   1.000  H
  C6       1.0000 0.20690  0.99530  0.15390  Biso   1.000  C
  H3       1.0000 0.25500  0.96300  0.14660  Biso   1.000  H
  C7       1.0000 0.06330  0.08880  0.17500  Biso   1.000  C
  H4       1.0000 0.01370  0.12010  0.18090  Biso   1.000  H
  O4       1.0000 0.97260  0.28840  0.41590  Biso   1.000  O
  C8       1.0000 0.89810  0.05990  0.31630  Biso   1.000  C
  H5       1.0000 0.85790  0.01990  0.30960  Biso   1.000  H
  C9       1.0000 0.88140  0.11320  0.35720  Biso   1.000  C
  H6       1.0000 0.83010  0.10860  0.37810  Biso   1.000  H
  C10      1.0000 0.25610  0.08320  0.07750  Biso   1.000  C
  C11      1.0000 0.94060  0.17280  0.36700  Biso   1.000  C
  C12      1.0000 0.03180  0.12760  0.29480  Biso   1.000  C
  H7       1.0000 0.08260  0.13400  0.27370  Biso   1.000  H
  C13      1.0000 0.01380  0.17940  0.33520  Biso   1.000  C
  H8       1.0000 0.05300  0.22040  0.34100  Biso   1.000  H
  C14      1.0000 0.91990  0.22940  0.41230  Biso   1.000  C
  O5       1.0000 0.14290  0.78330  0.44174  Biso   1.000  O
  O6       1.0000 0.69080  0.96730  0.06131  Biso   1.000  O
  O7       1.0000 0.75350  0.85150  0.05876  Biso   1.000  O
  C15      1.0000 0.92440  0.97690  0.20663  Biso   1.000  C
  C16      1.0000 0.02390  0.93320  0.28504  Biso   1.000  C
  C17      1.0000 0.80680  0.93780  0.12290  Biso   1.000  C
  C18      1.0000 0.85130  0.02270  0.19560  Biso   1.000  C
  H9       1.0000 0.84080  0.06660  0.21650  Biso   1.000  H
  C19      1.0000 0.87650  0.89130  0.13500  Biso   1.000  C
  H10      1.0000 0.88430  0.84520  0.11610  Biso   1.000  H
  C20      1.0000 0.79310  0.00470  0.15390  Biso   1.000  C
  H11      1.0000 0.74500  0.03700  0.14660  Biso   1.000  H
  C21      1.0000 0.93670  0.91120  0.17500  Biso   1.000  C
  H12      1.0000 0.98630  0.87990  0.18090  Biso   1.000  H
  O8       1.0000 0.02740  0.71160  0.41590  Biso   1.000  O
  C22      1.0000 0.10190  0.94010  0.31630  Biso   1.000  C
  H13      1.0000 0.14210  0.98010  0.30960  Biso   1.000  H
  C23      1.0000 0.11860  0.88680  0.35720  Biso   1.000  C
  H14      1.0000 0.16990  0.89140  0.37810  Biso   1.000  H
  C24      1.0000 0.74390  0.91680  0.07750  Biso   1.000  C
  C25      1.0000 0.05940  0.82720  0.36700  Biso   1.000  C
  C26      1.0000 0.96820  0.87240  0.29480  Biso   1.000  C
  H15      1.0000 0.91740  0.86600  0.27370  Biso   1.000  H
  C27      1.0000 0.98620  0.82060  0.33520  Biso   1.000  C
  H16      1.0000 0.94700  0.77960  0.34100  Biso   1.000  H
  C28      1.0000 0.08010  0.77060  0.41230  Biso   1.000  C
  O9       1.0000 0.64290  0.71670  0.05826  Biso   1.000  O
  O10      1.0000 0.19080  0.53270  0.43869  Biso   1.000  O
  O11      1.0000 0.25350  0.64850  0.44124  Biso   1.000  O
  C29      1.0000 0.42440  0.52310  0.29337  Biso   1.000  C
  C30      1.0000 0.52390  0.56680  0.21496  Biso   1.000  C
  C31      1.0000 0.30680  0.56220  0.37710  Biso   1.000  C
  C32      1.0000 0.35130  0.47730  0.30440  Biso   1.000  C
  H17      1.0000 0.34080  0.43340  0.28350  Biso   1.000  H
  C33      1.0000 0.37650  0.60870  0.36500  Biso   1.000  C
  H18      1.0000 0.38430  0.65480  0.38390  Biso   1.000  H
  C34      1.0000 0.29310  0.49530  0.34610  Biso   1.000  C
  H19      1.0000 0.24500  0.46300  0.35340  Biso   1.000  H
  C35      1.0000 0.43670  0.58880  0.32500  Biso   1.000  C
  H20      1.0000 0.48630  0.62010  0.31910  Biso   1.000  H
  O12      1.0000 0.52740  0.78840  0.08410  Biso   1.000  O
  C36      1.0000 0.60190  0.55990  0.18370  Biso   1.000  C
  H21      1.0000 0.64210  0.51990  0.19040  Biso   1.000  H
  C37      1.0000 0.61860  0.61320  0.14280  Biso   1.000  C
  H22      1.0000 0.66990  0.60860  0.12190  Biso   1.000  H
  C38      1.0000 0.24390  0.58320  0.42250  Biso   1.000  C
  C39      1.0000 0.55940  0.67280  0.13300  Biso   1.000  C
  C40      1.0000 0.46820  0.62760  0.20520  Biso   1.000  C
  H23      1.0000 0.41740  0.63400  0.22630  Biso   1.000  H
  C41      1.0000 0.48620  0.67940  0.16480  Biso   1.000  C
  H24      1.0000 0.44700  0.72040  0.15900  Biso   1.000  H
  C42      1.0000 0.58010  0.72940  0.08770  Biso   1.000  C
  O13      1.0000 0.35710  0.28330  0.05826  Biso   1.000  O
  O14      1.0000 0.80920  0.46730  0.43869  Biso   1.000  O
  O15      1.0000 0.74650  0.35150  0.44124  Biso   1.000  O
  C43      1.0000 0.57560  0.47690  0.29337  Biso   1.000  C
  C44      1.0000 0.47610  0.43320  0.21496  Biso   1.000  C
  C45      1.0000 0.69320  0.43780  0.37710  Biso   1.000  C
  C46      1.0000 0.64870  0.52270  0.30440  Biso   1.000  C
  H25      1.0000 0.65920  0.56660  0.28350  Biso   1.000  H
  C47      1.0000 0.62350  0.39130  0.36500  Biso   1.000  C
  H26      1.0000 0.61570  0.34520  0.38390  Biso   1.000  H
  C48      1.0000 0.70690  0.50470  0.34610  Biso   1.000  C
  H27      1.0000 0.75500  0.53700  0.35340  Biso   1.000  H
  C49      1.0000 0.56330  0.41120  0.32500  Biso   1.000  C
  H28      1.0000 0.51370  0.37990  0.31910  Biso   1.000  H
  O16      1.0000 0.47260  0.21160  0.08410  Biso   1.000  O
  C50      1.0000 0.39810  0.44010  0.18370  Biso   1.000  C
  H29      1.0000 0.35790  0.48010  0.19040  Biso   1.000  H
  C51      1.0000 0.38140  0.38680  0.14280  Biso   1.000  C
  H30      1.0000 0.33010  0.39140  0.12190  Biso   1.000  H
  C52      1.0000 0.75610  0.41680  0.42250  Biso   1.000  C
  C53      1.0000 0.44060  0.32720  0.13300  Biso   1.000  C
  C54      1.0000 0.53180  0.37240  0.20520  Biso   1.000  C
  H31      1.0000 0.58260  0.36600  0.22630  Biso   1.000  H
  C55      1.0000 0.51380  0.32060  0.16480  Biso   1.000  C
  H32      1.0000 0.55300  0.27960  0.15900  Biso   1.000  H
  C56      1.0000 0.41990  0.27060  0.08770  Biso   1.000  C
  O17      1.0000 0.14290  0.78330  0.55826  Biso   1.000  O
  O18      1.0000 0.69080  0.96730  0.93869  Biso   1.000  O
  O19      1.0000 0.75350  0.85150  0.94124  Biso   1.000  O
  C57      1.0000 0.92440  0.97690  0.79337  Biso   1.000  C
  C58      1.0000 0.02390  0.93320  0.71496  Biso   1.000  C
  C59      1.0000 0.80680  0.93780  0.87710  Biso   1.000  C
  C60      1.0000 0.85130  0.02270  0.80440  Biso   1.000  C
  H33      1.0000 0.84080  0.06660  0.78350  Biso   1.000  H
  C61      1.0000 0.87650  0.89130  0.86500  Biso   1.000  C
  H34      1.0000 0.88430  0.84520  0.88390  Biso   1.000  H
  C62      1.0000 0.79310  0.00470  0.84610  Biso   1.000  C
  H35      1.0000 0.74500  0.03700  0.85340  Biso   1.000  H
  C63      1.0000 0.93670  0.91120  0.82500  Biso   1.000  C
  H36      1.0000 0.98630  0.87990  0.81910  Biso   1.000  H
  O20      1.0000 0.02740  0.71160  0.58410  Biso   1.000  O
  C64      1.0000 0.10190  0.94010  0.68370  Biso   1.000  C
  H37      1.0000 0.14210  0.98010  0.69040  Biso   1.000  H
  C65      1.0000 0.11860  0.88680  0.64280  Biso   1.000  C
  H38      1.0000 0.16990  0.89140  0.62190  Biso   1.000  H
  C66      1.0000 0.74390  0.91680  0.92250  Biso   1.000  C
  C67      1.0000 0.05940  0.82720  0.63300  Biso   1.000  C
  C68      1.0000 0.96820  0.87240  0.70520  Biso   1.000  C
  H39      1.0000 0.91740  0.86600  0.72630  Biso   1.000  H
  C69      1.0000 0.98620  0.82060  0.66480  Biso   1.000  C
  H40      1.0000 0.94700  0.77960  0.65900  Biso   1.000  H
  C70      1.0000 0.08010  0.77060  0.58770  Biso   1.000  C
  O21      1.0000 0.85710  0.21670  0.55826  Biso   1.000  O
  O22      1.0000 0.30920  0.03270  0.93869  Biso   1.000  O
  O23      1.0000 0.24650  0.14850  0.94124  Biso   1.000  O
  C71      1.0000 0.07560  0.02310  0.79337  Biso   1.000  C
  C72      1.0000 0.97610  0.06680  0.71496  Biso   1.000  C
  C73      1.0000 0.19320  0.06220  0.87710  Biso   1.000  C
  C74      1.0000 0.14870  0.97730  0.80440  Biso   1.000  C
  H41      1.0000 0.15920  0.93340  0.78350  Biso   1.000  H
  C75      1.0000 0.12350  0.10870  0.86500  Biso   1.000  C
  H42      1.0000 0.11570  0.15480  0.88390  Biso   1.000  H
  C76      1.0000 0.20690  0.99530  0.84610  Biso   1.000  C
  H43      1.0000 0.25500  0.96300  0.85340  Biso   1.000  H
  C77      1.0000 0.06330  0.08880  0.82500  Biso   1.000  C
  H44      1.0000 0.01370  0.12010  0.81910  Biso   1.000  H
  O24      1.0000 0.97260  0.28840  0.58410  Biso   1.000  O
  C78      1.0000 0.89810  0.05990  0.68370  Biso   1.000  C
  H45      1.0000 0.85790  0.01990  0.69040  Biso   1.000  H
  C79      1.0000 0.88140  0.11320  0.64280  Biso   1.000  C
  H46      1.0000 0.83010  0.10860  0.62190  Biso   1.000  H
  C80      1.0000 0.25610  0.08320  0.92250  Biso   1.000  C
  C81      1.0000 0.94060  0.17280  0.63300  Biso   1.000  C
  C82      1.0000 0.03180  0.12760  0.70520  Biso   1.000  C
  H47      1.0000 0.08260  0.13400  0.72630  Biso   1.000  H
  C83      1.0000 0.01380  0.17940  0.66480  Biso   1.000  C
  H48      1.0000 0.05300  0.22040  0.65900  Biso   1.000  H
  C84      1.0000 0.91990  0.22940  0.58770  Biso   1.000  C
  O25      1.0000 0.35710  0.28330  0.94174  Biso   1.000  O
  O26      1.0000 0.80920  0.46730  0.56131  Biso   1.000  O
  O27      1.0000 0.74650  0.35150  0.55876  Biso   1.000  O
  C85      1.0000 0.57560  0.47690  0.70663  Biso   1.000  C
  C86      1.0000 0.47610  0.43320  0.78504  Biso   1.000  C
  C87      1.0000 0.69320  0.43780  0.62290  Biso   1.000  C
  C88      1.0000 0.64870  0.52270  0.69560  Biso   1.000  C
  H49      1.0000 0.65920  0.56660  0.71650  Biso   1.000  H
  C89      1.0000 0.62350  0.39130  0.63500  Biso   1.000  C
  H50      1.0000 0.61570  0.34520  0.61610  Biso   1.000  H
  C90      1.0000 0.70690  0.50470  0.65390  Biso   1.000  C
  H51      1.0000 0.75500  0.53700  0.64660  Biso   1.000  H
  C91      1.0000 0.56330  0.41120  0.67500  Biso   1.000  C
  H52      1.0000 0.51370  0.37990  0.68090  Biso   1.000  H
  O28      1.0000 0.47260  0.21160  0.91590  Biso   1.000  O
  C92      1.0000 0.39810  0.44010  0.81630  Biso   1.000  C
  H53      1.0000 0.35790  0.48010  0.80960  Biso   1.000  H
  C93      1.0000 0.38140  0.38680  0.85720  Biso   1.000  C
  H54      1.0000 0.33010  0.39140  0.87810  Biso   1.000  H
  C94      1.0000 0.75610  0.41680  0.57750  Biso   1.000  C
  C95      1.0000 0.44060  0.32720  0.86700  Biso   1.000  C
  C96      1.0000 0.53180  0.37240  0.79480  Biso   1.000  C
  H55      1.0000 0.58260  0.36600  0.77370  Biso   1.000  H
  C97      1.0000 0.51380  0.32060  0.83520  Biso   1.000  C
  H56      1.0000 0.55300  0.27960  0.84100  Biso   1.000  H
  C98      1.0000 0.41990  0.27060  0.91230  Biso   1.000  C
  O29      1.0000 0.64290  0.71670  0.94174  Biso   1.000  O
  O30      1.0000 0.19080  0.53270  0.56131  Biso   1.000  O
  O31      1.0000 0.25350  0.64850  0.55876  Biso   1.000  O
  C99      1.0000 0.42440  0.52310  0.70663  Biso   1.000  C
  C100     1.0000 0.52390  0.56680  0.78504  Biso   1.000  C
  C101     1.0000 0.30680  0.56220  0.62290  Biso   1.000  C
  C102     1.0000 0.35130  0.47730  0.69560  Biso   1.000  C
  H57      1.0000 0.34080  0.43340  0.71650  Biso   1.000  H
  C103     1.0000 0.37650  0.60870  0.63500  Biso   1.000  C
  H58      1.0000 0.38430  0.65480  0.61610  Biso   1.000  H
  C104     1.0000 0.29310  0.49530  0.65390  Biso   1.000  C
  H59      1.0000 0.24500  0.46300  0.64660  Biso   1.000  H
  C105     1.0000 0.43670  0.58880  0.67500  Biso   1.000  C
  H60      1.0000 0.48630  0.62010  0.68090  Biso   1.000  H
  O32      1.0000 0.52740  0.78840  0.91590  Biso   1.000  O
  C106     1.0000 0.60190  0.55990  0.81630  Biso   1.000  C
  H61      1.0000 0.64210  0.51990  0.80960  Biso   1.000  H
  C107     1.0000 0.61860  0.61320  0.85720  Biso   1.000  C
  H62      1.0000 0.66990  0.60860  0.87810  Biso   1.000  H
  C108     1.0000 0.24390  0.58320  0.57750  Biso   1.000  C
  C109     1.0000 0.55940  0.67280  0.86700  Biso   1.000  C
  C110     1.0000 0.46820  0.62760  0.79480  Biso   1.000  C
  H63      1.0000 0.41740  0.63400  0.77370  Biso   1.000  H
  C111     1.0000 0.48620  0.67940  0.83520  Biso   1.000  C
  H64      1.0000 0.44700  0.72040  0.84100  Biso   1.000  H
  C112     1.0000 0.58010  0.72940  0.91230  Biso   1.000  C
  Ni1      1.0000 0.30544  0.21086  0.00000  Biso   1.000  Ni
  Ni2      1.0000 0.39507  0.02422  0.00000  Biso   1.000  Ni
  O33      1.0000 0.42070  0.14060  0.00000  Biso   1.000  O
  Ni3      1.0000 0.69456  0.78914  0.00000  Biso   1.000  Ni
  Ni4      1.0000 0.60493  0.97578  0.00000  Biso   1.000  Ni
  O34      1.0000 0.57930  0.85940  0.00000  Biso   1.000  O
  Ni5      1.0000 0.19456  0.71086  0.50000  Biso   1.000  Ni
  Ni6      1.0000 0.10493  0.52422  0.50000  Biso   1.000  Ni
  O35      1.0000 0.07930  0.64060  0.50000  Biso   1.000  O
  Ni7      1.0000 0.80544  0.28914  0.50000  Biso   1.000  Ni
  Ni8      1.0000 0.89507  0.47578  0.50000  Biso   1.000  Ni
  O36      1.0000 0.92070  0.35940  0.50000  Biso   1.000  O
  C113     1.0000 0.00000  0.00000  0.24590  Biso   1.000  C
  C114     1.0000 0.50000  0.50000  0.25410  Biso   1.000  C
  C115     1.0000 0.00000  0.00000  0.75410  Biso   1.000  C
  C116     1.0000 0.50000  0.50000  0.74590  Biso   1.000  C
  O37      1.0000 0.50000  0.00000  0.05620  Biso   1.000  O
  O38      1.0000 0.00000  0.50000  0.44380  Biso   1.000  O
  O39      1.0000 0.50000  0.00000  0.94380  Biso   1.000  O
  O40      1.0000 0.00000  0.50000  0.55620  Biso   1.000  O
