data_image0
_cell_length_a       11.081
_cell_length_b       11.081
_cell_length_c       19.2801
_cell_angle_alpha    90
_cell_angle_beta     90
_cell_angle_gamma    120

_symmetry_space_group_name_H-M    "P 1"
_symmetry_int_tables_number       1

loop_
  _symmetry_equiv_pos_as_xyz
  'x, y, z'

loop_
  _atom_site_label
  _atom_site_occupancy
  _atom_site_fract_x
  _atom_site_fract_y
  _atom_site_fract_z
  _atom_site_thermal_displace_type
  _atom_site_B_iso_or_equiv
  _atom_site_type_symbol
  O1       1.0000 0.65260  0.55260  0.82550  Biso   1.000  O
  C1       1.0000 0.39420  0.37920  0.96610  Biso   1.000  C
  N1       1.0000 0.26100  0.28300  0.92760  Biso   1.000  N
  O2       1.0000 0.44740  0.10000  0.82550  Biso   1.000  O
  C2       1.0000 0.62080  0.01500  0.96610  Biso   1.000  C
  N2       1.0000 0.71700  0.97800  0.92760  Biso   1.000  N
  O3       1.0000 0.90000  0.34740  0.82550  Biso   1.000  O
  C3       1.0000 0.98500  0.60580  0.96610  Biso   1.000  C
  N3       1.0000 0.02200  0.73900  0.92760  Biso   1.000  N
  O4       1.0000 0.34740  0.44740  0.32550  Biso   1.000  O
  C4       1.0000 0.60580  0.62080  0.46610  Biso   1.000  C
  N4       1.0000 0.73900  0.71700  0.42760  Biso   1.000  N
  O5       1.0000 0.55260  0.90000  0.32550  Biso   1.000  O
  C5       1.0000 0.37920  0.98500  0.46610  Biso   1.000  C
  N5       1.0000 0.28300  0.02200  0.42760  Biso   1.000  N
  O6       1.0000 0.10000  0.65260  0.32550  Biso   1.000  O
  C6       1.0000 0.01500  0.39420  0.46610  Biso   1.000  C
  N6       1.0000 0.97800  0.26100  0.42760  Biso   1.000  N
  O7       1.0000 0.55260  0.65260  0.17450  Biso   1.000  O
  C7       1.0000 0.37920  0.39420  0.03390  Biso   1.000  C
  N7       1.0000 0.28300  0.26100  0.07240  Biso   1.000  N
  O8       1.0000 0.10000  0.44740  0.17450  Biso   1.000  O
  C8       1.0000 0.01500  0.62080  0.03390  Biso   1.000  C
  N8       1.0000 0.97800  0.71700  0.07240  Biso   1.000  N
  O9       1.0000 0.34740  0.90000  0.17450  Biso   1.000  O
  C9       1.0000 0.60580  0.98500  0.03390  Biso   1.000  C
  N9       1.0000 0.73900  0.02200  0.07240  Biso   1.000  N
  O10      1.0000 0.44740  0.34740  0.67450  Biso   1.000  O
  C10      1.0000 0.62080  0.60580  0.53390  Biso   1.000  C
  N10      1.0000 0.71700  0.73900  0.57240  Biso   1.000  N
  O11      1.0000 0.90000  0.55260  0.67450  Biso   1.000  O
  C11      1.0000 0.98500  0.37920  0.53390  Biso   1.000  C
  N11      1.0000 0.02200  0.28300  0.57240  Biso   1.000  N
  O12      1.0000 0.65260  0.10000  0.67450  Biso   1.000  O
  C12      1.0000 0.39420  0.01500  0.53390  Biso   1.000  C
  N12      1.0000 0.26100  0.97800  0.57240  Biso   1.000  N
  O13      1.0000 0.34740  0.44740  0.17450  Biso   1.000  O
  C13      1.0000 0.60580  0.62080  0.03390  Biso   1.000  C
  N13      1.0000 0.73900  0.71700  0.07240  Biso   1.000  N
  O14      1.0000 0.55260  0.90000  0.17450  Biso   1.000  O
  C14      1.0000 0.37920  0.98500  0.03390  Biso   1.000  C
  N14      1.0000 0.28300  0.02200  0.07240  Biso   1.000  N
  O15      1.0000 0.10000  0.65260  0.17450  Biso   1.000  O
  C15      1.0000 0.01500  0.39420  0.03390  Biso   1.000  C
  N15      1.0000 0.97800  0.26100  0.07240  Biso   1.000  N
  O16      1.0000 0.65260  0.55260  0.67450  Biso   1.000  O
  C16      1.0000 0.39420  0.37920  0.53390  Biso   1.000  C
  N16      1.0000 0.26100  0.28300  0.57240  Biso   1.000  N
  O17      1.0000 0.44740  0.10000  0.67450  Biso   1.000  O
  C17      1.0000 0.62080  0.01500  0.53390  Biso   1.000  C
  N17      1.0000 0.71700  0.97800  0.57240  Biso   1.000  N
  O18      1.0000 0.90000  0.34740  0.67450  Biso   1.000  O
  C18      1.0000 0.98500  0.60580  0.53390  Biso   1.000  C
  N18      1.0000 0.02200  0.73900  0.57240  Biso   1.000  N
  O19      1.0000 0.44740  0.34740  0.82550  Biso   1.000  O
  C19      1.0000 0.62080  0.60580  0.96610  Biso   1.000  C
  N19      1.0000 0.71700  0.73900  0.92760  Biso   1.000  N
  O20      1.0000 0.90000  0.55260  0.82550  Biso   1.000  O
  C20      1.0000 0.98500  0.37920  0.96610  Biso   1.000  C
  N20      1.0000 0.02200  0.28300  0.92760  Biso   1.000  N
  O21      1.0000 0.65260  0.10000  0.82550  Biso   1.000  O
  C21      1.0000 0.39420  0.01500  0.96610  Biso   1.000  C
  N21      1.0000 0.26100  0.97800  0.92760  Biso   1.000  N
  O22      1.0000 0.55260  0.65260  0.32550  Biso   1.000  O
  C22      1.0000 0.37920  0.39420  0.46610  Biso   1.000  C
  N22      1.0000 0.28300  0.26100  0.42760  Biso   1.000  N
  O23      1.0000 0.10000  0.44740  0.32550  Biso   1.000  O
  C23      1.0000 0.01500  0.62080  0.46610  Biso   1.000  C
  N23      1.0000 0.97800  0.71700  0.42760  Biso   1.000  N
  O24      1.0000 0.34740  0.90000  0.32550  Biso   1.000  O
  C24      1.0000 0.60580  0.98500  0.46610  Biso   1.000  C
  N24      1.0000 0.73900  0.02200  0.42760  Biso   1.000  N
  Fe1      1.0000 0.76720  0.53440  0.75000  Biso   1.000  Fe
  Fe2      1.0000 0.46560  0.23280  0.75000  Biso   1.000  Fe
  Fe3      1.0000 0.76720  0.23280  0.75000  Biso   1.000  Fe
  Fe4      1.0000 0.23280  0.46560  0.25000  Biso   1.000  Fe
  Fe5      1.0000 0.53440  0.76720  0.25000  Biso   1.000  Fe
  Fe6      1.0000 0.23280  0.76720  0.25000  Biso   1.000  Fe
  O25      1.0000 0.66667  0.33333  0.75000  Biso   1.000  O
  O26      1.0000 0.33333  0.66667  0.25000  Biso   1.000  O
  C25      1.0000 0.53990  0.46010  0.85550  Biso   1.000  C
  C26      1.0000 0.51220  0.48780  0.92780  Biso   1.000  C
  C27      1.0000 0.53990  0.07980  0.85550  Biso   1.000  C
  C28      1.0000 0.51220  0.02440  0.92780  Biso   1.000  C
  C29      1.0000 0.92020  0.46010  0.85550  Biso   1.000  C
  C30      1.0000 0.97560  0.48780  0.92780  Biso   1.000  C
  C31      1.0000 0.46010  0.53990  0.35550  Biso   1.000  C
  C32      1.0000 0.48780  0.51220  0.42780  Biso   1.000  C
  C33      1.0000 0.46010  0.92020  0.35550  Biso   1.000  C
  C34      1.0000 0.48780  0.97560  0.42780  Biso   1.000  C
  C35      1.0000 0.07980  0.53990  0.35550  Biso   1.000  C
  C36      1.0000 0.02440  0.51220  0.42780  Biso   1.000  C
  C37      1.0000 0.46010  0.53990  0.14450  Biso   1.000  C
  C38      1.0000 0.48780  0.51220  0.07220  Biso   1.000  C
  C39      1.0000 0.07980  0.53990  0.14450  Biso   1.000  C
  C40      1.0000 0.02440  0.51220  0.07220  Biso   1.000  C
  C41      1.0000 0.46010  0.92020  0.14450  Biso   1.000  C
  C42      1.0000 0.48780  0.97560  0.07220  Biso   1.000  C
  C43      1.0000 0.53990  0.46010  0.64450  Biso   1.000  C
  C44      1.0000 0.51220  0.48780  0.57220  Biso   1.000  C
  C45      1.0000 0.92020  0.46010  0.64450  Biso   1.000  C
  C46      1.0000 0.97560  0.48780  0.57220  Biso   1.000  C
  C47      1.0000 0.53990  0.07980  0.64450  Biso   1.000  C
  C48      1.0000 0.51220  0.02440  0.57220  Biso   1.000  C
