data_image0
_cell_length_a       13.7249
_cell_length_b       13.7249
_cell_length_c       15.3316
_cell_angle_alpha    90
_cell_angle_beta     90
_cell_angle_gamma    120

_symmetry_space_group_name_H-M    "P 1"
_symmetry_int_tables_number       1

loop_
  _symmetry_equiv_pos_as_xyz
  'x, y, z'

loop_
  _atom_site_label
  _atom_site_occupancy
  _atom_site_fract_x
  _atom_site_fract_y
  _atom_site_fract_z
  _atom_site_thermal_displace_type
  _atom_site_B_iso_or_equiv
  _atom_site_type_symbol
  Zn1      1.0000 0.24140  0.21390  0.09320  Biso   1.000  Zn
  P1       1.0000 0.02000  0.22550  0.10530  Biso   1.000  P
  O1       1.0000 0.13540  0.25410  0.13900  Biso   1.000  O
  O2       1.0000 0.03080  0.29620  0.02520  Biso   1.000  O
  O3       1.0000 0.95680  0.24440  0.17670  Biso   1.000  O
  O4       1.0000 0.95330  0.09990  0.07860  Biso   1.000  O
  Zn2      1.0000 0.90807  0.54723  0.42653  Biso   1.000  Zn
  P2       1.0000 0.68667  0.55883  0.43863  Biso   1.000  P
  O5       1.0000 0.80207  0.58743  0.47233  Biso   1.000  O
  O6       1.0000 0.69747  0.62953  0.35853  Biso   1.000  O
  O7       1.0000 0.62347  0.57773  0.51003  Biso   1.000  O
  O8       1.0000 0.61997  0.43323  0.41193  Biso   1.000  O
  Zn3      1.0000 0.57473  0.88057  0.75987  Biso   1.000  Zn
  P3       1.0000 0.35333  0.89217  0.77197  Biso   1.000  P
  O9       1.0000 0.46873  0.92077  0.80567  Biso   1.000  O
  O10      1.0000 0.36413  0.96287  0.69187  Biso   1.000  O
  O11      1.0000 0.29013  0.91107  0.84337  Biso   1.000  O
  O12      1.0000 0.28663  0.76657  0.74527  Biso   1.000  O
  Zn4      1.0000 0.78610  0.02750  0.09320  Biso   1.000  Zn
  P4       1.0000 0.77450  0.79450  0.10530  Biso   1.000  P
  O13      1.0000 0.74590  0.88130  0.13900  Biso   1.000  O
  O14      1.0000 0.70380  0.73460  0.02520  Biso   1.000  O
  O15      1.0000 0.75560  0.71240  0.17670  Biso   1.000  O
  O16      1.0000 0.90010  0.85340  0.07860  Biso   1.000  O
  Zn5      1.0000 0.45277  0.36083  0.42653  Biso   1.000  Zn
  P5       1.0000 0.44117  0.12783  0.43863  Biso   1.000  P
  O17      1.0000 0.41257  0.21463  0.47233  Biso   1.000  O
  O18      1.0000 0.37047  0.06793  0.35853  Biso   1.000  O
  O19      1.0000 0.42227  0.04573  0.51003  Biso   1.000  O
  O20      1.0000 0.56677  0.18673  0.41193  Biso   1.000  O
  Zn6      1.0000 0.11943  0.69417  0.75987  Biso   1.000  Zn
  P6       1.0000 0.10783  0.46117  0.77197  Biso   1.000  P
  O21      1.0000 0.07923  0.54797  0.80567  Biso   1.000  O
  O22      1.0000 0.03713  0.40127  0.69187  Biso   1.000  O
  O23      1.0000 0.08893  0.37907  0.84337  Biso   1.000  O
  O24      1.0000 0.23343  0.52007  0.74527  Biso   1.000  O
  Zn7      1.0000 0.97250  0.75860  0.09320  Biso   1.000  Zn
  P7       1.0000 0.20550  0.98000  0.10530  Biso   1.000  P
  O25      1.0000 0.11870  0.86460  0.13900  Biso   1.000  O
  O26      1.0000 0.26540  0.96920  0.02520  Biso   1.000  O
  O27      1.0000 0.28760  0.04320  0.17670  Biso   1.000  O
  O28      1.0000 0.14660  0.04670  0.07860  Biso   1.000  O
  Zn8      1.0000 0.63917  0.09193  0.42653  Biso   1.000  Zn
  P8       1.0000 0.87217  0.31333  0.43863  Biso   1.000  P
  O29      1.0000 0.78537  0.19793  0.47233  Biso   1.000  O
  O30      1.0000 0.93207  0.30253  0.35853  Biso   1.000  O
  O31      1.0000 0.95427  0.37653  0.51003  Biso   1.000  O
  O32      1.0000 0.81327  0.38003  0.41193  Biso   1.000  O
  Zn9      1.0000 0.30583  0.42527  0.75987  Biso   1.000  Zn
  P9       1.0000 0.53883  0.64667  0.77197  Biso   1.000  P
  O33      1.0000 0.45203  0.53127  0.80567  Biso   1.000  O
  O34      1.0000 0.59873  0.63587  0.69187  Biso   1.000  O
  O35      1.0000 0.62093  0.70987  0.84337  Biso   1.000  O
  O36      1.0000 0.47993  0.71337  0.74527  Biso   1.000  O
  Zn10     1.0000 0.75860  0.78610  0.90680  Biso   1.000  Zn
  P10      1.0000 0.98000  0.77450  0.89470  Biso   1.000  P
  O37      1.0000 0.86460  0.74590  0.86100  Biso   1.000  O
  O38      1.0000 0.96920  0.70380  0.97480  Biso   1.000  O
  O39      1.0000 0.04320  0.75560  0.82330  Biso   1.000  O
  O40      1.0000 0.04670  0.90010  0.92140  Biso   1.000  O
  Zn11     1.0000 0.42527  0.11943  0.24013  Biso   1.000  Zn
  P11      1.0000 0.64667  0.10783  0.22803  Biso   1.000  P
  O41      1.0000 0.53127  0.07923  0.19433  Biso   1.000  O
  O42      1.0000 0.63587  0.03713  0.30813  Biso   1.000  O
  O43      1.0000 0.70987  0.08893  0.15663  Biso   1.000  O
  O44      1.0000 0.71337  0.23343  0.25473  Biso   1.000  O
  Zn12     1.0000 0.09193  0.45277  0.57347  Biso   1.000  Zn
  P12      1.0000 0.31333  0.44117  0.56137  Biso   1.000  P
  O45      1.0000 0.19793  0.41257  0.52767  Biso   1.000  O
  O46      1.0000 0.30253  0.37047  0.64147  Biso   1.000  O
  O47      1.0000 0.37653  0.42227  0.48997  Biso   1.000  O
  O48      1.0000 0.38003  0.56677  0.58807  Biso   1.000  O
  Zn13     1.0000 0.21390  0.97250  0.90680  Biso   1.000  Zn
  P13      1.0000 0.22550  0.20550  0.89470  Biso   1.000  P
  O49      1.0000 0.25410  0.11870  0.86100  Biso   1.000  O
  O50      1.0000 0.29620  0.26540  0.97480  Biso   1.000  O
  O51      1.0000 0.24440  0.28760  0.82330  Biso   1.000  O
  O52      1.0000 0.09990  0.14660  0.92140  Biso   1.000  O
  Zn14     1.0000 0.88057  0.30583  0.24013  Biso   1.000  Zn
  P14      1.0000 0.89217  0.53883  0.22803  Biso   1.000  P
  O53      1.0000 0.92077  0.45203  0.19433  Biso   1.000  O
  O54      1.0000 0.96287  0.59873  0.30813  Biso   1.000  O
  O55      1.0000 0.91107  0.62093  0.15663  Biso   1.000  O
  O56      1.0000 0.76657  0.47993  0.25473  Biso   1.000  O
  Zn15     1.0000 0.54723  0.63917  0.57347  Biso   1.000  Zn
  P15      1.0000 0.55883  0.87217  0.56137  Biso   1.000  P
  O57      1.0000 0.58743  0.78537  0.52767  Biso   1.000  O
  O58      1.0000 0.62953  0.93207  0.64147  Biso   1.000  O
  O59      1.0000 0.57773  0.95427  0.48997  Biso   1.000  O
  O60      1.0000 0.43323  0.81327  0.58807  Biso   1.000  O
  Zn16     1.0000 0.02750  0.24140  0.90680  Biso   1.000  Zn
  P16      1.0000 0.79450  0.02000  0.89470  Biso   1.000  P
  O61      1.0000 0.88130  0.13540  0.86100  Biso   1.000  O
  O62      1.0000 0.73460  0.03080  0.97480  Biso   1.000  O
  O63      1.0000 0.71240  0.95680  0.82330  Biso   1.000  O
  O64      1.0000 0.85340  0.95330  0.92140  Biso   1.000  O
  Zn17     1.0000 0.69417  0.57473  0.24013  Biso   1.000  Zn
  P17      1.0000 0.46117  0.35333  0.22803  Biso   1.000  P
  O65      1.0000 0.54797  0.46873  0.19433  Biso   1.000  O
  O66      1.0000 0.40127  0.36413  0.30813  Biso   1.000  O
  O67      1.0000 0.37907  0.29013  0.15663  Biso   1.000  O
  O68      1.0000 0.52007  0.28663  0.25473  Biso   1.000  O
  Zn18     1.0000 0.36083  0.90807  0.57347  Biso   1.000  Zn
  P18      1.0000 0.12783  0.68667  0.56137  Biso   1.000  P
  O69      1.0000 0.21463  0.80207  0.52767  Biso   1.000  O
  O70      1.0000 0.06793  0.69747  0.64147  Biso   1.000  O
  O71      1.0000 0.04573  0.62347  0.48997  Biso   1.000  O
  O72      1.0000 0.18673  0.61997  0.58807  Biso   1.000  O
  Zn19     1.0000 0.00000  0.00000  0.00000  Biso   1.000  Zn
  Zn20     1.0000 0.66667  0.33333  0.33333  Biso   1.000  Zn
  Zn21     1.0000 0.33333  0.66667  0.66667  Biso   1.000  Zn
