data_image0
_cell_length_a       5.2697
_cell_length_b       12.14
_cell_length_c       13.9161
_cell_angle_alpha    115.439
_cell_angle_beta     98.392
_cell_angle_gamma    91.157

_symmetry_space_group_name_H-M    "P 1"
_symmetry_int_tables_number       1

loop_
  _symmetry_equiv_pos_as_xyz
  'x, y, z'

loop_
  _atom_site_label
  _atom_site_occupancy
  _atom_site_fract_x
  _atom_site_fract_y
  _atom_site_fract_z
  _atom_site_thermal_displace_type
  _atom_site_B_iso_or_equiv
  _atom_site_type_symbol
  Zn1      1.0000 0.50970  0.39760  0.16730  Biso   1.000  Zn
  Zn2      1.0000 0.04760  0.30350  0.95460  Biso   1.000  Zn
  Zn3      1.0000 0.44130  0.11410  0.15350  Biso   1.000  Zn
  Zn4      1.0000 0.22690  0.49180  0.38190  Biso   1.000  Zn
  P1       1.0000 0.03190  0.53710  0.17740  Biso   1.000  P
  P2       1.0000 0.69960  0.33700  0.36220  Biso   1.000  P
  P3       1.0000 0.53650  0.16860  0.95970  Biso   1.000  P
  O1       1.0000 0.15020  0.41510  0.11100  Biso   1.000  O
  O2       1.0000 0.10460  0.63460  0.14270  Biso   1.000  O
  O3       1.0000 0.74110  0.51270  0.15910  Biso   1.000  O
  O4       1.0000 0.15910  0.58240  0.29550  Biso   1.000  O
  O5       1.0000 0.52100  0.40780  0.31270  Biso   1.000  O
  O6       1.0000 0.62130  0.20070  0.30060  Biso   1.000  O
  O7       1.0000 0.66250  0.38010  0.47840  Biso   1.000  O
  O8       1.0000 0.97640  0.36310  0.35280  Biso   1.000  O
  O9       1.0000 0.53660  0.22070  0.08420  Biso   1.000  O
  O10      1.0000 0.40930  0.03810  0.90780  Biso   1.000  O
  O11      1.0000 0.81460  0.17010  0.94110  Biso   1.000  O
  O12      1.0000 0.37980  0.24920  0.91920  Biso   1.000  O
  Zn5      1.0000 0.49030  0.60240  0.83270  Biso   1.000  Zn
  Zn6      1.0000 0.95240  0.69650  0.04540  Biso   1.000  Zn
  Zn7      1.0000 0.55870  0.88590  0.84650  Biso   1.000  Zn
  Zn8      1.0000 0.77310  0.50820  0.61810  Biso   1.000  Zn
  P4       1.0000 0.96810  0.46290  0.82260  Biso   1.000  P
  P5       1.0000 0.30040  0.66300  0.63780  Biso   1.000  P
  P6       1.0000 0.46350  0.83140  0.04030  Biso   1.000  P
  O13      1.0000 0.84980  0.58490  0.88900  Biso   1.000  O
  O14      1.0000 0.89540  0.36540  0.85730  Biso   1.000  O
  O15      1.0000 0.25890  0.48730  0.84090  Biso   1.000  O
  O16      1.0000 0.84090  0.41760  0.70450  Biso   1.000  O
  O17      1.0000 0.47900  0.59220  0.68730  Biso   1.000  O
  O18      1.0000 0.37870  0.79930  0.69940  Biso   1.000  O
  O19      1.0000 0.33750  0.61990  0.52160  Biso   1.000  O
  O20      1.0000 0.02360  0.63690  0.64720  Biso   1.000  O
  O21      1.0000 0.46340  0.77930  0.91580  Biso   1.000  O
  O22      1.0000 0.59070  0.96190  0.09220  Biso   1.000  O
  O23      1.0000 0.18540  0.82990  0.05890  Biso   1.000  O
  O24      1.0000 0.62020  0.75080  0.08080  Biso   1.000  O
