data_image0
_cell_length_a       10.7455
_cell_length_b       6.3469
_cell_length_c       20.48
_cell_angle_alpha    90
_cell_angle_beta     104.286
_cell_angle_gamma    90

_symmetry_space_group_name_H-M    "P 1"
_symmetry_int_tables_number       1

loop_
  _symmetry_equiv_pos_as_xyz
  'x, y, z'

loop_
  _atom_site_label
  _atom_site_occupancy
  _atom_site_fract_x
  _atom_site_fract_y
  _atom_site_fract_z
  _atom_site_thermal_displace_type
  _atom_site_B_iso_or_equiv
  _atom_site_type_symbol
  Ti1      1.0000 0.89060  0.03510  0.20030  Biso   1.000  Ti
  Ti2      1.0000 0.09670  0.54300  0.39350  Biso   1.000  Ti
  P1       1.0000 0.17230  0.17160  0.17770  Biso   1.000  P
  P2       1.0000 0.88380  0.53770  0.24300  Biso   1.000  P
  P3       1.0000 0.02520  0.04880  0.36650  Biso   1.000  P
  P4       1.0000 0.67980  0.08160  0.05320  Biso   1.000  P
  O1       1.0000 0.88840  0.72960  0.19900  Biso   1.000  O
  O2       1.0000 0.80220  0.02890  0.10560  Biso   1.000  O
  O3       1.0000 0.88770  0.34290  0.20050  Biso   1.000  O
  O4       1.0000 0.99710  0.03100  0.29150  Biso   1.000  O
  O5       1.0000 0.76530  0.53800  0.27000  Biso   1.000  O
  O6       1.0000 0.04970  0.04600  0.17100  Biso   1.000  O
  O7       1.0000 0.00250  0.54030  0.30280  Biso   1.000  O
  O8       1.0000 0.08650  0.84830  0.40120  Biso   1.000  O
  O9       1.0000 0.68780  0.96810  0.98890  Biso   1.000  O
  O10      1.0000 0.11380  0.23560  0.39190  Biso   1.000  O
  O11      1.0000 0.24430  0.06990  0.12990  Biso   1.000  O
  O12      1.0000 0.56560  0.01320  0.07820  Biso   1.000  O
  O13      1.0000 0.25340  0.17570  0.25090  Biso   1.000  O
  O14      1.0000 0.14580  0.40130  0.15720  Biso   1.000  O
  O15      1.0000 0.89760  0.08450  0.38700  Biso   1.000  O
  O16      1.0000 0.67550  0.31840  0.03690  Biso   1.000  O
  H1       1.0000 0.31880  0.24470  0.25310  Biso   1.000  H
  H2       1.0000 0.86380  0.19330  0.36950  Biso   1.000  H
  H3       1.0000 0.64970  0.38340  0.06560  Biso   1.000  H
  Ti3      1.0000 0.60940  0.53510  0.29970  Biso   1.000  Ti
  Ti4      1.0000 0.40330  0.04300  0.10650  Biso   1.000  Ti
  P5       1.0000 0.32770  0.67160  0.32230  Biso   1.000  P
  P6       1.0000 0.61620  0.03770  0.25700  Biso   1.000  P
  P7       1.0000 0.47480  0.54880  0.13350  Biso   1.000  P
  P8       1.0000 0.82020  0.58160  0.44680  Biso   1.000  P
  O17      1.0000 0.61160  0.22960  0.30100  Biso   1.000  O
  O18      1.0000 0.69780  0.52890  0.39440  Biso   1.000  O
  O19      1.0000 0.61230  0.84290  0.29950  Biso   1.000  O
  O20      1.0000 0.50290  0.53100  0.20850  Biso   1.000  O
  O21      1.0000 0.73470  0.03800  0.23000  Biso   1.000  O
  O22      1.0000 0.45030  0.54600  0.32900  Biso   1.000  O
  O23      1.0000 0.49750  0.04030  0.19720  Biso   1.000  O
  O24      1.0000 0.41350  0.34830  0.09880  Biso   1.000  O
  O25      1.0000 0.81220  0.46810  0.51110  Biso   1.000  O
  O26      1.0000 0.38620  0.73560  0.10810  Biso   1.000  O
  O27      1.0000 0.25570  0.56990  0.37010  Biso   1.000  O
  O28      1.0000 0.93440  0.51320  0.42180  Biso   1.000  O
  O29      1.0000 0.24660  0.67570  0.24910  Biso   1.000  O
  O30      1.0000 0.35420  0.90130  0.34280  Biso   1.000  O
  O31      1.0000 0.60240  0.58450  0.11300  Biso   1.000  O
  O32      1.0000 0.82450  0.81840  0.46310  Biso   1.000  O
  H4       1.0000 0.18120  0.74470  0.24690  Biso   1.000  H
  H5       1.0000 0.63620  0.69330  0.13050  Biso   1.000  H
  H6       1.0000 0.85030  0.88340  0.43440  Biso   1.000  H
  Ti5      1.0000 0.10940  0.96490  0.79970  Biso   1.000  Ti
  Ti6      1.0000 0.90330  0.45700  0.60650  Biso   1.000  Ti
  P9       1.0000 0.82770  0.82840  0.82230  Biso   1.000  P
  P10      1.0000 0.11620  0.46230  0.75700  Biso   1.000  P
  P11      1.0000 0.97480  0.95120  0.63350  Biso   1.000  P
  P12      1.0000 0.32020  0.91840  0.94680  Biso   1.000  P
  O33      1.0000 0.11160  0.27040  0.80100  Biso   1.000  O
  O34      1.0000 0.19780  0.97110  0.89440  Biso   1.000  O
  O35      1.0000 0.11230  0.65710  0.79950  Biso   1.000  O
  O36      1.0000 0.00290  0.96900  0.70850  Biso   1.000  O
  O37      1.0000 0.23470  0.46200  0.73000  Biso   1.000  O
  O38      1.0000 0.95030  0.95400  0.82900  Biso   1.000  O
  O39      1.0000 0.99750  0.45970  0.69720  Biso   1.000  O
  O40      1.0000 0.91350  0.15170  0.59880  Biso   1.000  O
  O41      1.0000 0.31220  0.03190  0.01110  Biso   1.000  O
  O42      1.0000 0.88620  0.76440  0.60810  Biso   1.000  O
  O43      1.0000 0.75570  0.93010  0.87010  Biso   1.000  O
  O44      1.0000 0.43440  0.98680  0.92180  Biso   1.000  O
  O45      1.0000 0.74660  0.82430  0.74910  Biso   1.000  O
  O46      1.0000 0.85420  0.59870  0.84280  Biso   1.000  O
  O47      1.0000 0.10240  0.91550  0.61300  Biso   1.000  O
  O48      1.0000 0.32450  0.68160  0.96310  Biso   1.000  O
  H7       1.0000 0.68120  0.75530  0.74690  Biso   1.000  H
  H8       1.0000 0.13620  0.80670  0.63050  Biso   1.000  H
  H9       1.0000 0.35030  0.61660  0.93440  Biso   1.000  H
  Ti7      1.0000 0.39060  0.46490  0.70030  Biso   1.000  Ti
  Ti8      1.0000 0.59670  0.95700  0.89350  Biso   1.000  Ti
  P13      1.0000 0.67230  0.32840  0.67770  Biso   1.000  P
  P14      1.0000 0.38380  0.96230  0.74300  Biso   1.000  P
  P15      1.0000 0.52520  0.45120  0.86650  Biso   1.000  P
  P16      1.0000 0.17980  0.41840  0.55320  Biso   1.000  P
  O49      1.0000 0.38840  0.77040  0.69900  Biso   1.000  O
  O50      1.0000 0.30220  0.47110  0.60560  Biso   1.000  O
  O51      1.0000 0.38770  0.15710  0.70050  Biso   1.000  O
  O52      1.0000 0.49710  0.46900  0.79150  Biso   1.000  O
  O53      1.0000 0.26530  0.96200  0.77000  Biso   1.000  O
  O54      1.0000 0.54970  0.45400  0.67100  Biso   1.000  O
  O55      1.0000 0.50250  0.95970  0.80280  Biso   1.000  O
  O56      1.0000 0.58650  0.65170  0.90120  Biso   1.000  O
  O57      1.0000 0.18780  0.53190  0.48890  Biso   1.000  O
  O58      1.0000 0.61380  0.26440  0.89190  Biso   1.000  O
  O59      1.0000 0.74430  0.43010  0.62990  Biso   1.000  O
  O60      1.0000 0.06560  0.48680  0.57820  Biso   1.000  O
  O61      1.0000 0.75340  0.32430  0.75090  Biso   1.000  O
  O62      1.0000 0.64580  0.09870  0.65720  Biso   1.000  O
  O63      1.0000 0.39760  0.41550  0.88700  Biso   1.000  O
  O64      1.0000 0.17550  0.18160  0.53690  Biso   1.000  O
  H10      1.0000 0.81880  0.25530  0.75310  Biso   1.000  H
  H11      1.0000 0.36380  0.30670  0.86950  Biso   1.000  H
  H12      1.0000 0.14970  0.11660  0.56560  Biso   1.000  H
