data_image0
_cell_length_a       15.371
_cell_length_b       15.371
_cell_length_c       15.371
_cell_angle_alpha    90
_cell_angle_beta     90
_cell_angle_gamma    90

_symmetry_space_group_name_H-M    "P 1"
_symmetry_int_tables_number       1

loop_
  _symmetry_equiv_pos_as_xyz
  'x, y, z'

loop_
  _atom_site_label
  _atom_site_occupancy
  _atom_site_fract_x
  _atom_site_fract_y
  _atom_site_fract_z
  _atom_site_thermal_displace_type
  _atom_site_B_iso_or_equiv
  _atom_site_type_symbol
  O1       1.0000 0.98890  0.63630  0.87890  Biso   1.000  O
  O2       1.0000 0.48890  0.13630  0.37890  Biso   1.000  O
  O3       1.0000 0.51110  0.36370  0.37890  Biso   1.000  O
  O4       1.0000 0.01110  0.86370  0.87890  Biso   1.000  O
  O5       1.0000 0.01110  0.13630  0.62110  Biso   1.000  O
  O6       1.0000 0.51110  0.63630  0.12110  Biso   1.000  O
  O7       1.0000 0.48890  0.86370  0.12110  Biso   1.000  O
  O8       1.0000 0.98890  0.36370  0.62110  Biso   1.000  O
  O9       1.0000 0.87890  0.98890  0.63630  Biso   1.000  O
  O10      1.0000 0.37890  0.48890  0.13630  Biso   1.000  O
  O11      1.0000 0.37890  0.51110  0.36370  Biso   1.000  O
  O12      1.0000 0.87890  0.01110  0.86370  Biso   1.000  O
  O13      1.0000 0.62110  0.01110  0.13630  Biso   1.000  O
  O14      1.0000 0.12110  0.51110  0.63630  Biso   1.000  O
  O15      1.0000 0.12110  0.48890  0.86370  Biso   1.000  O
  O16      1.0000 0.62110  0.98890  0.36370  Biso   1.000  O
  O17      1.0000 0.63630  0.87890  0.98890  Biso   1.000  O
  O18      1.0000 0.13630  0.37890  0.48890  Biso   1.000  O
  O19      1.0000 0.36370  0.37890  0.51110  Biso   1.000  O
  O20      1.0000 0.86370  0.87890  0.01110  Biso   1.000  O
  O21      1.0000 0.13630  0.62110  0.01110  Biso   1.000  O
  O22      1.0000 0.63630  0.12110  0.51110  Biso   1.000  O
  O23      1.0000 0.86370  0.12110  0.48890  Biso   1.000  O
  O24      1.0000 0.36370  0.62110  0.98890  Biso   1.000  O
  O25      1.0000 0.38630  0.23890  0.37110  Biso   1.000  O
  O26      1.0000 0.88630  0.73890  0.87110  Biso   1.000  O
  O27      1.0000 0.11370  0.76110  0.87110  Biso   1.000  O
  O28      1.0000 0.61370  0.26110  0.37110  Biso   1.000  O
  O29      1.0000 0.88630  0.26110  0.62890  Biso   1.000  O
  O30      1.0000 0.38630  0.76110  0.12890  Biso   1.000  O
  O31      1.0000 0.61370  0.73890  0.12890  Biso   1.000  O
  O32      1.0000 0.11370  0.23890  0.62890  Biso   1.000  O
  O33      1.0000 0.73890  0.12890  0.61370  Biso   1.000  O
  O34      1.0000 0.23890  0.62890  0.11370  Biso   1.000  O
  O35      1.0000 0.26110  0.62890  0.88630  Biso   1.000  O
  O36      1.0000 0.76110  0.12890  0.38630  Biso   1.000  O
  O37      1.0000 0.76110  0.87110  0.11370  Biso   1.000  O
  O38      1.0000 0.26110  0.37110  0.61370  Biso   1.000  O
  O39      1.0000 0.23890  0.37110  0.38630  Biso   1.000  O
  O40      1.0000 0.73890  0.87110  0.88630  Biso   1.000  O
  O41      1.0000 0.62890  0.88630  0.26110  Biso   1.000  O
  O42      1.0000 0.12890  0.38630  0.76110  Biso   1.000  O
  O43      1.0000 0.12890  0.61370  0.73890  Biso   1.000  O
  O44      1.0000 0.62890  0.11370  0.23890  Biso   1.000  O
  O45      1.0000 0.37110  0.38630  0.23890  Biso   1.000  O
  O46      1.0000 0.87110  0.88630  0.73890  Biso   1.000  O
  O47      1.0000 0.87110  0.11370  0.76110  Biso   1.000  O
  O48      1.0000 0.37110  0.61370  0.26110  Biso   1.000  O
  Zn1      1.0000 0.12500  0.62500  0.87500  Biso   1.000  Zn
  Zn2      1.0000 0.62500  0.12500  0.37500  Biso   1.000  Zn
  Zn3      1.0000 0.37500  0.37500  0.37500  Biso   1.000  Zn
  Zn4      1.0000 0.87500  0.87500  0.87500  Biso   1.000  Zn
  Zn5      1.0000 0.87500  0.12500  0.62500  Biso   1.000  Zn
  Zn6      1.0000 0.37500  0.62500  0.12500  Biso   1.000  Zn
  Zn7      1.0000 0.62500  0.87500  0.12500  Biso   1.000  Zn
  Zn8      1.0000 0.12500  0.37500  0.62500  Biso   1.000  Zn
  C1       1.0000 0.96330  0.71330  0.87500  Biso   1.000  C
  C2       1.0000 0.53670  0.28670  0.37500  Biso   1.000  C
  C3       1.0000 0.03670  0.21330  0.62500  Biso   1.000  C
  C4       1.0000 0.46330  0.78670  0.12500  Biso   1.000  C
  C5       1.0000 0.87500  0.96330  0.71330  Biso   1.000  C
  C6       1.0000 0.37500  0.53670  0.28670  Biso   1.000  C
  C7       1.0000 0.62500  0.03670  0.21330  Biso   1.000  C
  C8       1.0000 0.12500  0.46330  0.78670  Biso   1.000  C
  C9       1.0000 0.71330  0.87500  0.96330  Biso   1.000  C
  C10      1.0000 0.28670  0.37500  0.53670  Biso   1.000  C
  C11      1.0000 0.21330  0.62500  0.03670  Biso   1.000  C
  C12      1.0000 0.78670  0.12500  0.46330  Biso   1.000  C
  C13      1.0000 0.46330  0.21330  0.37500  Biso   1.000  C
  C14      1.0000 0.03670  0.78670  0.87500  Biso   1.000  C
  C15      1.0000 0.96330  0.28670  0.62500  Biso   1.000  C
  C16      1.0000 0.53670  0.71330  0.12500  Biso   1.000  C
  C17      1.0000 0.71330  0.12500  0.53670  Biso   1.000  C
  C18      1.0000 0.28670  0.62500  0.96330  Biso   1.000  C
  C19      1.0000 0.78670  0.87500  0.03670  Biso   1.000  C
  C20      1.0000 0.21330  0.37500  0.46330  Biso   1.000  C
  C21      1.0000 0.62500  0.96330  0.28670  Biso   1.000  C
  C22      1.0000 0.12500  0.53670  0.71330  Biso   1.000  C
  C23      1.0000 0.37500  0.46330  0.21330  Biso   1.000  C
  C24      1.0000 0.87500  0.03670  0.78670  Biso   1.000  C
