data_image0
_cell_length_a       6.991
_cell_length_b       10.031
_cell_length_c       16.238
_cell_angle_alpha    90
_cell_angle_beta     98.5
_cell_angle_gamma    90

_symmetry_space_group_name_H-M    "P 1"
_symmetry_int_tables_number       1

loop_
  _symmetry_equiv_pos_as_xyz
  'x, y, z'

loop_
  _atom_site_label
  _atom_site_occupancy
  _atom_site_fract_x
  _atom_site_fract_y
  _atom_site_fract_z
  _atom_site_thermal_displace_type
  _atom_site_B_iso_or_equiv
  _atom_site_type_symbol
  Co1      1.0000 0.15296  0.63614  0.29260  Biso   1.000  Co
  O1       1.0000 0.22170  0.44490  0.25280  Biso   1.000  O
  O2       1.0000 0.12310  0.23370  0.24690  Biso   1.000  O
  O3       1.0000 0.98110  0.66740  0.17920  Biso   1.000  O
  O4       1.0000 0.71890  0.59720  0.09910  Biso   1.000  O
  O5       1.0000 0.02180  0.77210  0.36250  Biso   1.000  O
  O6       1.0000 0.85240  0.78480  0.46630  Biso   1.000  O
  N1       1.0000 0.89930  0.52420  0.31560  Biso   1.000  N
  C1       1.0000 0.96180  0.38480  0.32510  Biso   1.000  C
  C2       1.0000 0.11390  0.35230  0.26970  Biso   1.000  C
  C3       1.0000 0.75190  0.54060  0.24150  Biso   1.000  C
  C4       1.0000 0.82420  0.60410  0.16730  Biso   1.000  C
  C5       1.0000 0.83700  0.58070  0.39090  Biso   1.000  C
  C6       1.0000 0.90840  0.72350  0.40710  Biso   1.000  C
  H1       1.0000 0.02100  0.37000  0.38400  Biso   1.000  H
  H2       1.0000 0.85400  0.32500  0.31600  Biso   1.000  H
  H3       1.0000 0.70200  0.45800  0.22500  Biso   1.000  H
  H4       1.0000 0.64500  0.58800  0.25500  Biso   1.000  H
  H5       1.0000 0.70300  0.58100  0.39100  Biso   1.000  H
  H6       1.0000 0.88600  0.52700  0.43900  Biso   1.000  H
  Co2      1.0000 0.34704  0.13614  0.20740  Biso   1.000  Co
  O7       1.0000 0.27830  0.94490  0.24720  Biso   1.000  O
  O8       1.0000 0.37690  0.73370  0.25310  Biso   1.000  O
  O9       1.0000 0.51890  0.16740  0.32080  Biso   1.000  O
  O10      1.0000 0.78110  0.09720  0.40090  Biso   1.000  O
  O11      1.0000 0.47820  0.27210  0.13750  Biso   1.000  O
  O12      1.0000 0.64760  0.28480  0.03370  Biso   1.000  O
  N2       1.0000 0.60070  0.02420  0.18440  Biso   1.000  N
  C7       1.0000 0.53820  0.88480  0.17490  Biso   1.000  C
  C8       1.0000 0.38610  0.85230  0.23030  Biso   1.000  C
  C9       1.0000 0.74810  0.04060  0.25850  Biso   1.000  C
  C10      1.0000 0.67580  0.10410  0.33270  Biso   1.000  C
  C11      1.0000 0.66300  0.08070  0.10910  Biso   1.000  C
  C12      1.0000 0.59160  0.22350  0.09290  Biso   1.000  C
  H7       1.0000 0.47900  0.87000  0.11600  Biso   1.000  H
  H8       1.0000 0.64600  0.82500  0.18400  Biso   1.000  H
  H9       1.0000 0.79800  0.95800  0.27500  Biso   1.000  H
  H10      1.0000 0.85500  0.08800  0.24500  Biso   1.000  H
  H11      1.0000 0.79700  0.08100  0.10900  Biso   1.000  H
  H12      1.0000 0.61400  0.02700  0.06100  Biso   1.000  H
  Co3      1.0000 0.84704  0.36386  0.70740  Biso   1.000  Co
  O13      1.0000 0.77830  0.55510  0.74720  Biso   1.000  O
  O14      1.0000 0.87690  0.76630  0.75310  Biso   1.000  O
  O15      1.0000 0.01890  0.33260  0.82080  Biso   1.000  O
  O16      1.0000 0.28110  0.40280  0.90090  Biso   1.000  O
  O17      1.0000 0.97820  0.22790  0.63750  Biso   1.000  O
  O18      1.0000 0.14760  0.21520  0.53370  Biso   1.000  O
  N3       1.0000 0.10070  0.47580  0.68440  Biso   1.000  N
  C13      1.0000 0.03820  0.61520  0.67490  Biso   1.000  C
  C14      1.0000 0.88610  0.64770  0.73030  Biso   1.000  C
  C15      1.0000 0.24810  0.45940  0.75850  Biso   1.000  C
  C16      1.0000 0.17580  0.39590  0.83270  Biso   1.000  C
  C17      1.0000 0.16300  0.41930  0.60910  Biso   1.000  C
  C18      1.0000 0.09160  0.27650  0.59290  Biso   1.000  C
  H13      1.0000 0.97900  0.63000  0.61600  Biso   1.000  H
  H14      1.0000 0.14600  0.67500  0.68400  Biso   1.000  H
  H15      1.0000 0.29800  0.54200  0.77500  Biso   1.000  H
  H16      1.0000 0.35500  0.41200  0.74500  Biso   1.000  H
  H17      1.0000 0.29700  0.41900  0.60900  Biso   1.000  H
  H18      1.0000 0.11400  0.47300  0.56100  Biso   1.000  H
  Co4      1.0000 0.65296  0.86386  0.79260  Biso   1.000  Co
  O19      1.0000 0.72170  0.05510  0.75280  Biso   1.000  O
  O20      1.0000 0.62310  0.26630  0.74690  Biso   1.000  O
  O21      1.0000 0.48110  0.83260  0.67920  Biso   1.000  O
  O22      1.0000 0.21890  0.90280  0.59910  Biso   1.000  O
  O23      1.0000 0.52180  0.72790  0.86250  Biso   1.000  O
  O24      1.0000 0.35240  0.71520  0.96630  Biso   1.000  O
  N4       1.0000 0.39930  0.97580  0.81560  Biso   1.000  N
  C19      1.0000 0.46180  0.11520  0.82510  Biso   1.000  C
  C20      1.0000 0.61390  0.14770  0.76970  Biso   1.000  C
  C21      1.0000 0.25190  0.95940  0.74150  Biso   1.000  C
  C22      1.0000 0.32420  0.89590  0.66730  Biso   1.000  C
  C23      1.0000 0.33700  0.91930  0.89090  Biso   1.000  C
  C24      1.0000 0.40840  0.77650  0.90710  Biso   1.000  C
  H19      1.0000 0.52100  0.13000  0.88400  Biso   1.000  H
  H20      1.0000 0.35400  0.17500  0.81600  Biso   1.000  H
  H21      1.0000 0.20200  0.04200  0.72500  Biso   1.000  H
  H22      1.0000 0.14500  0.91200  0.75500  Biso   1.000  H
  H23      1.0000 0.20300  0.91900  0.89100  Biso   1.000  H
  H24      1.0000 0.38600  0.97300  0.93900  Biso   1.000  H
  Ca1      1.0000 0.00000  0.00000  0.50000  Biso   1.000  Ca
  Ca2      1.0000 0.50000  0.50000  0.00000  Biso   1.000  Ca
