data_image0
_cell_length_a       11.001
_cell_length_b       11.563
_cell_length_c       13.432
_cell_angle_alpha    69.358
_cell_angle_beta     79.869
_cell_angle_gamma    61.864

_symmetry_space_group_name_H-M    "P 1"
_symmetry_int_tables_number       1

loop_
  _symmetry_equiv_pos_as_xyz
  'x, y, z'

loop_
  _atom_site_label
  _atom_site_occupancy
  _atom_site_fract_x
  _atom_site_fract_y
  _atom_site_fract_z
  _atom_site_thermal_displace_type
  _atom_site_B_iso_or_equiv
  _atom_site_type_symbol
  U1       1.0000 0.63330  0.70125  0.83377  Biso   1.000  U
  La1      1.0000 0.62438  0.21280  0.77521  Biso   1.000  La
  O1       1.0000 0.85920  0.52710  0.90570  Biso   1.000  O
  O2       1.0000 0.77610  0.48340  0.79510  Biso   1.000  O
  O3       1.0000 0.86220  0.20330  0.76090  Biso   1.000  O
  O4       1.0000 0.90380  0.35500  0.62280  Biso   1.000  O
  O5       1.0000 0.42970  0.90850  0.82830  Biso   1.000  O
  O6       1.0000 0.51690  0.05840  0.77650  Biso   1.000  O
  O7       1.0000 0.47450  0.17480  0.93290  Biso   1.000  O
  O8       1.0000 0.30950  0.21720  0.05330  Biso   1.000  O
  O9       1.0000 0.50820  0.69160  0.71360  Biso   1.000  O
  O10      1.0000 0.42530  0.70160  0.57030  Biso   1.000  O
  O11      1.0000 0.73820  0.63090  0.53140  Biso   1.000  O
  O12      1.0000 0.85590  0.74970  0.47640  Biso   1.000  O
  C1       1.0000 0.01060  0.33660  0.84540  Biso   1.000  C
  C2       1.0000 0.11810  0.31030  0.90490  Biso   1.000  C
  H1       1.0000 0.09880  0.35980  0.95190  Biso   1.000  H
  C3       1.0000 0.25120  0.21400  0.89670  Biso   1.000  C
  C4       1.0000 0.28030  0.13260  0.83030  Biso   1.000  C
  C5       1.0000 0.16940  0.15330  0.77440  Biso   1.000  C
  H2       1.0000 0.18590  0.09700  0.73340  Biso   1.000  H
  C6       1.0000 0.03610  0.25650  0.78000  Biso   1.000  C
  C7       1.0000 0.62160  0.99870  0.45100  Biso   1.000  C
  H3       1.0000 0.70380  0.99810  0.41860  Biso   1.000  H
  C8       1.0000 0.61670  0.87500  0.50240  Biso   1.000  C
  C9       1.0000 0.49170  0.87600  0.55430  Biso   1.000  C
  C10      1.0000 0.87630  0.45270  0.84970  Biso   1.000  C
  C11      1.0000 0.35540  0.19970  0.96220  Biso   1.000  C
  C12      1.0000 0.41950  0.02810  0.81040  Biso   1.000  C
  C13      1.0000 0.92320  0.27600  0.71720  Biso   1.000  C
  C14      1.0000 0.47520  0.74630  0.61480  Biso   1.000  C
  C15      1.0000 0.74250  0.74410  0.50550  Biso   1.000  C
  U2       1.0000 0.36670  0.29875  0.16623  Biso   1.000  U
  La2      1.0000 0.37562  0.78720  0.22479  Biso   1.000  La
  O13      1.0000 0.14080  0.47290  0.09430  Biso   1.000  O
  O14      1.0000 0.22390  0.51660  0.20490  Biso   1.000  O
  O15      1.0000 0.13780  0.79670  0.23910  Biso   1.000  O
  O16      1.0000 0.09620  0.64500  0.37720  Biso   1.000  O
  O17      1.0000 0.57030  0.09150  0.17170  Biso   1.000  O
  O18      1.0000 0.48310  0.94160  0.22350  Biso   1.000  O
  O19      1.0000 0.52550  0.82520  0.06710  Biso   1.000  O
  O20      1.0000 0.69050  0.78280  0.94670  Biso   1.000  O
  O21      1.0000 0.49180  0.30840  0.28640  Biso   1.000  O
  O22      1.0000 0.57470  0.29840  0.42970  Biso   1.000  O
  O23      1.0000 0.26180  0.36910  0.46860  Biso   1.000  O
  O24      1.0000 0.14410  0.25030  0.52360  Biso   1.000  O
  C16      1.0000 0.98940  0.66340  0.15460  Biso   1.000  C
  C17      1.0000 0.88190  0.68970  0.09510  Biso   1.000  C
  H4       1.0000 0.90120  0.64020  0.04810  Biso   1.000  H
  C18      1.0000 0.74880  0.78600  0.10330  Biso   1.000  C
  C19      1.0000 0.71970  0.86740  0.16970  Biso   1.000  C
  C20      1.0000 0.83060  0.84670  0.22560  Biso   1.000  C
  H5       1.0000 0.81410  0.90300  0.26660  Biso   1.000  H
  C21      1.0000 0.96390  0.74350  0.22000  Biso   1.000  C
  C22      1.0000 0.37840  0.00130  0.54900  Biso   1.000  C
  H6       1.0000 0.29620  0.00190  0.58140  Biso   1.000  H
  C23      1.0000 0.38330  0.12500  0.49760  Biso   1.000  C
  C24      1.0000 0.50830  0.12400  0.44570  Biso   1.000  C
  C25      1.0000 0.12370  0.54730  0.15030  Biso   1.000  C
  C26      1.0000 0.64460  0.80030  0.03780  Biso   1.000  C
  C27      1.0000 0.58050  0.97190  0.18960  Biso   1.000  C
  C28      1.0000 0.07680  0.72400  0.28280  Biso   1.000  C
  C29      1.0000 0.52480  0.25370  0.38520  Biso   1.000  C
  C30      1.0000 0.25750  0.25590  0.49450  Biso   1.000  C
  U3       1.0000 0.00000  0.50000  0.50000  Biso   1.000  U
