data_image0
_cell_length_a       10.5626
_cell_length_b       11.4559
_cell_length_c       13.4839
_cell_angle_alpha    69.112
_cell_angle_beta     78.889
_cell_angle_gamma    63.614

_symmetry_space_group_name_H-M    "P 1"
_symmetry_int_tables_number       1

loop_
  _symmetry_equiv_pos_as_xyz
  'x, y, z'

loop_
  _atom_site_label
  _atom_site_occupancy
  _atom_site_fract_x
  _atom_site_fract_y
  _atom_site_fract_z
  _atom_site_thermal_displace_type
  _atom_site_B_iso_or_equiv
  _atom_site_type_symbol
  U1       1.0000 0.62316  0.71341  0.83667  Biso   1.000  U
  Ho1      1.0000 0.59942  0.23148  0.75050  Biso   1.000  Ho
  C1       1.0000 0.99770  0.34570  0.85000  Biso   1.000  C
  C2       1.0000 0.11300  0.31650  0.90720  Biso   1.000  C
  H1       1.0000 0.09870  0.36320  0.95530  Biso   1.000  H
  C3       1.0000 0.24830  0.21870  0.89270  Biso   1.000  C
  C4       1.0000 0.26690  0.14400  0.82260  Biso   1.000  C
  C5       1.0000 0.14700  0.16620  0.77460  Biso   1.000  C
  H2       1.0000 0.15710  0.11150  0.73410  Biso   1.000  H
  C6       1.0000 0.01460  0.26740  0.78620  Biso   1.000  C
  C7       1.0000 0.62810  0.99960  0.45010  Biso   1.000  C
  H3       1.0000 0.71380  0.99980  0.41690  Biso   1.000  H
  C8       1.0000 0.61800  0.87430  0.50570  Biso   1.000  C
  C9       1.0000 0.49100  0.87370  0.55610  Biso   1.000  C
  C10      1.0000 0.86180  0.46560  0.85410  Biso   1.000  C
  C11      1.0000 0.36340  0.19570  0.95540  Biso   1.000  C
  C12      1.0000 0.40740  0.04240  0.79780  Biso   1.000  C
  C13      1.0000 0.89430  0.29210  0.72490  Biso   1.000  C
  C14      1.0000 0.47170  0.74420  0.62200  Biso   1.000  C
  C15      1.0000 0.74430  0.74730  0.50790  Biso   1.000  C
  O1       1.0000 0.85090  0.53870  0.91190  Biso   1.000  O
  O2       1.0000 0.76220  0.49580  0.80100  Biso   1.000  O
  O3       1.0000 0.81450  0.23540  0.77090  Biso   1.000  O
  O4       1.0000 0.88720  0.36170  0.62800  Biso   1.000  O
  O5       1.0000 0.41680  0.92210  0.81750  Biso   1.000  O
  O6       1.0000 0.50230  0.08010  0.75400  Biso   1.000  O
  O7       1.0000 0.48160  0.18060  0.91510  Biso   1.000  O
  O8       1.0000 0.32700  0.19520  0.05190  Biso   1.000  O
  O9       1.0000 0.50270  0.69400  0.71840  Biso   1.000  O
  O10      1.0000 0.41700  0.69730  0.58010  Biso   1.000  O
  O11      1.0000 0.73700  0.63460  0.53680  Biso   1.000  O
  O12      1.0000 0.86590  0.75100  0.47760  Biso   1.000  O
  U2       1.0000 0.37684  0.28659  0.16333  Biso   1.000  U
  Ho2      1.0000 0.40058  0.76852  0.24950  Biso   1.000  Ho
  C16      1.0000 0.00230  0.65430  0.15000  Biso   1.000  C
  C17      1.0000 0.88700  0.68350  0.09280  Biso   1.000  C
  H4       1.0000 0.90130  0.63680  0.04470  Biso   1.000  H
  C18      1.0000 0.75170  0.78130  0.10730  Biso   1.000  C
  C19      1.0000 0.73310  0.85600  0.17740  Biso   1.000  C
  C20      1.0000 0.85300  0.83380  0.22540  Biso   1.000  C
  H5       1.0000 0.84290  0.88850  0.26590  Biso   1.000  H
  C21      1.0000 0.98540  0.73260  0.21380  Biso   1.000  C
  C22      1.0000 0.37190  0.00040  0.54990  Biso   1.000  C
  H6       1.0000 0.28620  0.00020  0.58310  Biso   1.000  H
  C23      1.0000 0.38200  0.12570  0.49430  Biso   1.000  C
  C24      1.0000 0.50900  0.12630  0.44390  Biso   1.000  C
  C25      1.0000 0.13820  0.53440  0.14590  Biso   1.000  C
  C26      1.0000 0.63660  0.80430  0.04460  Biso   1.000  C
  C27      1.0000 0.59260  0.95760  0.20220  Biso   1.000  C
  C28      1.0000 0.10570  0.70790  0.27510  Biso   1.000  C
  C29      1.0000 0.52830  0.25580  0.37800  Biso   1.000  C
  C30      1.0000 0.25570  0.25270  0.49210  Biso   1.000  C
  O13      1.0000 0.14910  0.46130  0.08810  Biso   1.000  O
  O14      1.0000 0.23780  0.50420  0.19900  Biso   1.000  O
  O15      1.0000 0.18550  0.76460  0.22910  Biso   1.000  O
  O16      1.0000 0.11280  0.63830  0.37200  Biso   1.000  O
  O17      1.0000 0.58320  0.07790  0.18250  Biso   1.000  O
  O18      1.0000 0.49770  0.91990  0.24600  Biso   1.000  O
  O19      1.0000 0.51840  0.81940  0.08490  Biso   1.000  O
  O20      1.0000 0.67300  0.80480  0.94810  Biso   1.000  O
  O21      1.0000 0.49730  0.30600  0.28160  Biso   1.000  O
  O22      1.0000 0.58300  0.30270  0.41990  Biso   1.000  O
  O23      1.0000 0.26300  0.36540  0.46320  Biso   1.000  O
  O24      1.0000 0.13410  0.24900  0.52240  Biso   1.000  O
  U3       1.0000 0.00000  0.50000  0.50000  Biso   1.000  U
