data_image0
_cell_length_a       10.5105
_cell_length_b       11.439
_cell_length_c       13.4443
_cell_angle_alpha    68.998
_cell_angle_beta     78.805
_cell_angle_gamma    63.732

_symmetry_space_group_name_H-M    "P 1"
_symmetry_int_tables_number       1

loop_
  _symmetry_equiv_pos_as_xyz
  'x, y, z'

loop_
  _atom_site_label
  _atom_site_occupancy
  _atom_site_fract_x
  _atom_site_fract_y
  _atom_site_fract_z
  _atom_site_thermal_displace_type
  _atom_site_B_iso_or_equiv
  _atom_site_type_symbol
  U1       1.0000 0.62220  0.71335  0.83679  Biso   1.000  U
  Tm1      1.0000 0.59821  0.23153  0.75042  Biso   1.000  Tm
  C1       1.0000 0.99480  0.34350  0.85360  Biso   1.000  C
  C2       1.0000 0.11200  0.31410  0.90800  Biso   1.000  C
  H1       1.0000 0.09860  0.36160  0.95530  Biso   1.000  H
  C3       1.0000 0.24850  0.21610  0.89410  Biso   1.000  C
  C4       1.0000 0.26500  0.14550  0.82310  Biso   1.000  C
  C5       1.0000 0.14620  0.16620  0.77460  Biso   1.000  C
  H2       1.0000 0.15750  0.11140  0.73370  Biso   1.000  H
  C6       1.0000 0.01280  0.26650  0.78620  Biso   1.000  C
  C7       1.0000 0.62560  0.99900  0.45210  Biso   1.000  C
  H3       1.0000 0.71220  0.99870  0.41950  Biso   1.000  H
  C8       1.0000 0.61660  0.87740  0.50450  Biso   1.000  C
  C9       1.0000 0.48990  0.87420  0.55540  Biso   1.000  C
  C10      1.0000 0.86400  0.46260  0.85720  Biso   1.000  C
  C11      1.0000 0.36280  0.19500  0.95550  Biso   1.000  C
  C12      1.0000 0.40700  0.04300  0.79540  Biso   1.000  C
  C13      1.0000 0.89450  0.29180  0.72590  Biso   1.000  C
  C14      1.0000 0.46810  0.74610  0.62010  Biso   1.000  C
  C15      1.0000 0.74530  0.74700  0.50770  Biso   1.000  C
  O1       1.0000 0.85160  0.53610  0.91480  Biso   1.000  O
  O2       1.0000 0.76050  0.49620  0.80120  Biso   1.000  O
  O3       1.0000 0.81200  0.23510  0.77120  Biso   1.000  O
  O4       1.0000 0.88610  0.36240  0.62680  Biso   1.000  O
  O5       1.0000 0.41750  0.92100  0.81850  Biso   1.000  O
  O6       1.0000 0.50300  0.08010  0.75420  Biso   1.000  O
  O7       1.0000 0.48460  0.18000  0.91520  Biso   1.000  O
  O8       1.0000 0.32900  0.19490  0.05170  Biso   1.000  O
  O9       1.0000 0.50180  0.69400  0.71720  Biso   1.000  O
  O10      1.0000 0.41220  0.69940  0.57960  Biso   1.000  O
  O11      1.0000 0.73500  0.63480  0.53490  Biso   1.000  O
  O12      1.0000 0.86570  0.75050  0.47970  Biso   1.000  O
  U2       1.0000 0.37780  0.28665  0.16321  Biso   1.000  U
  Tm2      1.0000 0.40179  0.76847  0.24958  Biso   1.000  Tm
  C16      1.0000 0.00520  0.65650  0.14640  Biso   1.000  C
  C17      1.0000 0.88800  0.68590  0.09200  Biso   1.000  C
  H4       1.0000 0.90140  0.63840  0.04470  Biso   1.000  H
  C18      1.0000 0.75150  0.78390  0.10590  Biso   1.000  C
  C19      1.0000 0.73500  0.85450  0.17690  Biso   1.000  C
  C20      1.0000 0.85380  0.83380  0.22540  Biso   1.000  C
  H5       1.0000 0.84250  0.88860  0.26630  Biso   1.000  H
  C21      1.0000 0.98720  0.73350  0.21380  Biso   1.000  C
  C22      1.0000 0.37440  0.00100  0.54790  Biso   1.000  C
  H6       1.0000 0.28780  0.00130  0.58050  Biso   1.000  H
  C23      1.0000 0.38340  0.12260  0.49550  Biso   1.000  C
  C24      1.0000 0.51010  0.12580  0.44460  Biso   1.000  C
  C25      1.0000 0.13600  0.53740  0.14280  Biso   1.000  C
  C26      1.0000 0.63720  0.80500  0.04450  Biso   1.000  C
  C27      1.0000 0.59300  0.95700  0.20460  Biso   1.000  C
  C28      1.0000 0.10550  0.70820  0.27410  Biso   1.000  C
  C29      1.0000 0.53190  0.25390  0.37990  Biso   1.000  C
  C30      1.0000 0.25470  0.25300  0.49230  Biso   1.000  C
  O13      1.0000 0.14840  0.46390  0.08520  Biso   1.000  O
  O14      1.0000 0.23950  0.50380  0.19880  Biso   1.000  O
  O15      1.0000 0.18800  0.76490  0.22880  Biso   1.000  O
  O16      1.0000 0.11390  0.63760  0.37320  Biso   1.000  O
  O17      1.0000 0.58250  0.07900  0.18150  Biso   1.000  O
  O18      1.0000 0.49700  0.91990  0.24580  Biso   1.000  O
  O19      1.0000 0.51540  0.82000  0.08480  Biso   1.000  O
  O20      1.0000 0.67100  0.80510  0.94830  Biso   1.000  O
  O21      1.0000 0.49820  0.30600  0.28280  Biso   1.000  O
  O22      1.0000 0.58780  0.30060  0.42040  Biso   1.000  O
  O23      1.0000 0.26500  0.36520  0.46510  Biso   1.000  O
  O24      1.0000 0.13430  0.24950  0.52030  Biso   1.000  O
  U3       1.0000 0.00000  0.50000  0.50000  Biso   1.000  U
