data_image0
_cell_length_a       30.242
_cell_length_b       30.242
_cell_length_c       13.406
_cell_angle_alpha    90
_cell_angle_beta     90
_cell_angle_gamma    120

_symmetry_space_group_name_H-M    "P 1"
_symmetry_int_tables_number       1

loop_
  _symmetry_equiv_pos_as_xyz
  'x, y, z'

loop_
  _atom_site_label
  _atom_site_occupancy
  _atom_site_fract_x
  _atom_site_fract_y
  _atom_site_fract_z
  _atom_site_thermal_displace_type
  _atom_site_B_iso_or_equiv
  _atom_site_type_symbol
  O1       1.0000 0.25450  0.58240  0.39390  Biso   1.000  O
  C1       1.0000 0.20400  0.48090  0.15880  Biso   1.000  C
  H1       1.0000 0.17170  0.47000  0.13100  Biso   1.000  H
  C2       1.0000 0.21860  0.51520  0.23710  Biso   1.000  C
  H2       1.0000 0.19710  0.52680  0.26150  Biso   1.000  H
  C3       1.0000 0.10870  0.35220  0.05740  Biso   1.000  C
  C4       1.0000 0.02654  0.34160  0.98200  Biso   1.000  C
  H3       1.0000 0.04480  0.36920  0.93830  Biso   1.000  H
  O2       1.0000 0.13600  0.34280  0.11440  Biso   1.000  O
  C5       1.0000 0.02668  0.28480  0.11080  Biso   1.000  C
  H4       1.0000 0.04510  0.27480  0.15240  Biso   1.000  H
  C6       1.0000 0.05180  0.32670  0.04730  Biso   1.000  C
  O3       1.0000 0.41760  0.67210  0.39390  Biso   1.000  O
  C7       1.0000 0.51910  0.72310  0.15880  Biso   1.000  C
  H5       1.0000 0.53000  0.70170  0.13100  Biso   1.000  H
  C8       1.0000 0.48480  0.70340  0.23710  Biso   1.000  C
  H6       1.0000 0.47320  0.67030  0.26150  Biso   1.000  H
  C9       1.0000 0.64780  0.75650  0.05740  Biso   1.000  C
  C10      1.0000 0.65840  0.68494  0.98200  Biso   1.000  C
  H7       1.0000 0.63080  0.67560  0.93830  Biso   1.000  H
  O4       1.0000 0.65720  0.79320  0.11440  Biso   1.000  O
  C11      1.0000 0.71520  0.74188  0.11080  Biso   1.000  C
  H8       1.0000 0.72520  0.77030  0.15240  Biso   1.000  H
  C12      1.0000 0.67330  0.72510  0.04730  Biso   1.000  C
  O5       1.0000 0.32790  0.74550  0.39390  Biso   1.000  O
  C13      1.0000 0.27690  0.79600  0.15880  Biso   1.000  C
  H9       1.0000 0.29830  0.82830  0.13100  Biso   1.000  H
  C14      1.0000 0.29660  0.78140  0.23710  Biso   1.000  C
  H10      1.0000 0.32970  0.80290  0.26150  Biso   1.000  H
  C15      1.0000 0.24350  0.89130  0.05740  Biso   1.000  C
  C16      1.0000 0.31506  0.97346  0.98200  Biso   1.000  C
  H11      1.0000 0.32440  0.95520  0.93830  Biso   1.000  H
  O6       1.0000 0.20680  0.86400  0.11440  Biso   1.000  O
  C17      1.0000 0.25812  0.97332  0.11080  Biso   1.000  C
  H12      1.0000 0.22970  0.95490  0.15240  Biso   1.000  H
  C18      1.0000 0.27490  0.94820  0.04730  Biso   1.000  C
  O7       1.0000 0.74550  0.41760  0.39390  Biso   1.000  O
  C19      1.0000 0.79600  0.51910  0.15880  Biso   1.000  C
  H13      1.0000 0.82830  0.53000  0.13100  Biso   1.000  H
  C20      1.0000 0.78140  0.48480  0.23710  Biso   1.000  C
  H14      1.0000 0.80290  0.47320  0.26150  Biso   1.000  H
  C21      1.0000 0.89130  0.64780  0.05740  Biso   1.000  C
  C22      1.0000 0.97346  0.65840  0.98200  Biso   1.000  C
  H15      1.0000 0.95520  0.63080  0.93830  Biso   1.000  H
  O8       1.0000 0.86400  0.65720  0.11440  Biso   1.000  O
  C23      1.0000 0.97332  0.71520  0.11080  Biso   1.000  C
  H16      1.0000 0.95490  0.72520  0.15240  Biso   1.000  H
  C24      1.0000 0.94820  0.67330  0.04730  Biso   1.000  C
  O9       1.0000 0.58240  0.32790  0.39390  Biso   1.000  O
  C25      1.0000 0.48090  0.27690  0.15880  Biso   1.000  C
  H17      1.0000 0.47000  0.29830  0.13100  Biso   1.000  H
  C26      1.0000 0.51520  0.29660  0.23710  Biso   1.000  C
  H18      1.0000 0.52680  0.32970  0.26150  Biso   1.000  H
  C27      1.0000 0.35220  0.24350  0.05740  Biso   1.000  C
  C28      1.0000 0.34160  0.31506  0.98200  Biso   1.000  C
  H19      1.0000 0.36920  0.32440  0.93830  Biso   1.000  H
  O10      1.0000 0.34280  0.20680  0.11440  Biso   1.000  O
  C29      1.0000 0.28480  0.25812  0.11080  Biso   1.000  C
  H20      1.0000 0.27480  0.22970  0.15240  Biso   1.000  H
  C30      1.0000 0.32670  0.27490  0.04730  Biso   1.000  C
  O11      1.0000 0.67210  0.25450  0.39390  Biso   1.000  O
  C31      1.0000 0.72310  0.20400  0.15880  Biso   1.000  C
  H21      1.0000 0.70170  0.17170  0.13100  Biso   1.000  H
  C32      1.0000 0.70340  0.21860  0.23710  Biso   1.000  C
  H22      1.0000 0.67030  0.19710  0.26150  Biso   1.000  H
  C33      1.0000 0.75650  0.10870  0.05740  Biso   1.000  C
  C34      1.0000 0.68494  0.02654  0.98200  Biso   1.000  C
  H23      1.0000 0.67560  0.04480  0.93830  Biso   1.000  H
  O12      1.0000 0.79320  0.13600  0.11440  Biso   1.000  O
  C35      1.0000 0.74188  0.02668  0.11080  Biso   1.000  C
  H24      1.0000 0.77030  0.04510  0.15240  Biso   1.000  H
  C36      1.0000 0.72510  0.05180  0.04730  Biso   1.000  C
  O13      1.0000 0.58240  0.25450  0.60610  Biso   1.000  O
  C37      1.0000 0.48090  0.20400  0.84120  Biso   1.000  C
  H25      1.0000 0.47000  0.17170  0.86900  Biso   1.000  H
  C38      1.0000 0.51520  0.21860  0.76290  Biso   1.000  C
  H26      1.0000 0.52680  0.19710  0.73850  Biso   1.000  H
  C39      1.0000 0.35220  0.10870  0.94260  Biso   1.000  C
  C40      1.0000 0.34160  0.02654  0.01800  Biso   1.000  C
  H27      1.0000 0.36920  0.04480  0.06170  Biso   1.000  H
  O14      1.0000 0.34280  0.13600  0.88560  Biso   1.000  O
  C41      1.0000 0.28480  0.02668  0.88920  Biso   1.000  C
  H28      1.0000 0.27480  0.04510  0.84760  Biso   1.000  H
  C42      1.0000 0.32670  0.05180  0.95270  Biso   1.000  C
  O15      1.0000 0.67210  0.41760  0.60610  Biso   1.000  O
  C43      1.0000 0.72310  0.51910  0.84120  Biso   1.000  C
  H29      1.0000 0.70170  0.53000  0.86900  Biso   1.000  H
  C44      1.0000 0.70340  0.48480  0.76290  Biso   1.000  C
  H30      1.0000 0.67030  0.47320  0.73850  Biso   1.000  H
  C45      1.0000 0.75650  0.64780  0.94260  Biso   1.000  C
  C46      1.0000 0.68494  0.65840  0.01800  Biso   1.000  C
  H31      1.0000 0.67560  0.63080  0.06170  Biso   1.000  H
  O16      1.0000 0.79320  0.65720  0.88560  Biso   1.000  O
  C47      1.0000 0.74188  0.71520  0.88920  Biso   1.000  C
  H32      1.0000 0.77030  0.72520  0.84760  Biso   1.000  H
  C48      1.0000 0.72510  0.67330  0.95270  Biso   1.000  C
  O17      1.0000 0.74550  0.32790  0.60610  Biso   1.000  O
  C49      1.0000 0.79600  0.27690  0.84120  Biso   1.000  C
  H33      1.0000 0.82830  0.29830  0.86900  Biso   1.000  H
  C50      1.0000 0.78140  0.29660  0.76290  Biso   1.000  C
  H34      1.0000 0.80290  0.32970  0.73850  Biso   1.000  H
  C51      1.0000 0.89130  0.24350  0.94260  Biso   1.000  C
  C52      1.0000 0.97346  0.31506  0.01800  Biso   1.000  C
  H35      1.0000 0.95520  0.32440  0.06170  Biso   1.000  H
  O18      1.0000 0.86400  0.20680  0.88560  Biso   1.000  O
  C53      1.0000 0.97332  0.25812  0.88920  Biso   1.000  C
  H36      1.0000 0.95490  0.22970  0.84760  Biso   1.000  H
  C54      1.0000 0.94820  0.27490  0.95270  Biso   1.000  C
  O19      1.0000 0.41760  0.74550  0.60610  Biso   1.000  O
  C55      1.0000 0.51910  0.79600  0.84120  Biso   1.000  C
  H37      1.0000 0.53000  0.82830  0.86900  Biso   1.000  H
  C56      1.0000 0.48480  0.78140  0.76290  Biso   1.000  C
  H38      1.0000 0.47320  0.80290  0.73850  Biso   1.000  H
  C57      1.0000 0.64780  0.89130  0.94260  Biso   1.000  C
  C58      1.0000 0.65840  0.97346  0.01800  Biso   1.000  C
  H39      1.0000 0.63080  0.95520  0.06170  Biso   1.000  H
  O20      1.0000 0.65720  0.86400  0.88560  Biso   1.000  O
  C59      1.0000 0.71520  0.97332  0.88920  Biso   1.000  C
  H40      1.0000 0.72520  0.95490  0.84760  Biso   1.000  H
  C60      1.0000 0.67330  0.94820  0.95270  Biso   1.000  C
  O21      1.0000 0.32790  0.58240  0.60610  Biso   1.000  O
  C61      1.0000 0.27690  0.48090  0.84120  Biso   1.000  C
  H41      1.0000 0.29830  0.47000  0.86900  Biso   1.000  H
  C62      1.0000 0.29660  0.51520  0.76290  Biso   1.000  C
  H42      1.0000 0.32970  0.52680  0.73850  Biso   1.000  H
  C63      1.0000 0.24350  0.35220  0.94260  Biso   1.000  C
  C64      1.0000 0.31506  0.34160  0.01800  Biso   1.000  C
  H43      1.0000 0.32440  0.36920  0.06170  Biso   1.000  H
  O22      1.0000 0.20680  0.34280  0.88560  Biso   1.000  O
  C65      1.0000 0.25812  0.28480  0.88920  Biso   1.000  C
  H44      1.0000 0.22970  0.27480  0.84760  Biso   1.000  H
  C66      1.0000 0.27490  0.32670  0.95270  Biso   1.000  C
  O23      1.0000 0.25450  0.67210  0.60610  Biso   1.000  O
  C67      1.0000 0.20400  0.72310  0.84120  Biso   1.000  C
  H45      1.0000 0.17170  0.70170  0.86900  Biso   1.000  H
  C68      1.0000 0.21860  0.70340  0.76290  Biso   1.000  C
  H46      1.0000 0.19710  0.67030  0.73850  Biso   1.000  H
  C69      1.0000 0.10870  0.75650  0.94260  Biso   1.000  C
  C70      1.0000 0.02654  0.68494  0.01800  Biso   1.000  C
  H47      1.0000 0.04480  0.67560  0.06170  Biso   1.000  H
  O24      1.0000 0.13600  0.79320  0.88560  Biso   1.000  O
  C71      1.0000 0.02668  0.74188  0.88920  Biso   1.000  C
  H48      1.0000 0.04510  0.77030  0.84760  Biso   1.000  H
  C72      1.0000 0.05180  0.72510  0.95270  Biso   1.000  C
  O25      1.0000 0.74550  0.41760  0.60610  Biso   1.000  O
  C73      1.0000 0.79600  0.51910  0.84120  Biso   1.000  C
  H49      1.0000 0.82830  0.53000  0.86900  Biso   1.000  H
  C74      1.0000 0.78140  0.48480  0.76290  Biso   1.000  C
  H50      1.0000 0.80290  0.47320  0.73850  Biso   1.000  H
  C75      1.0000 0.89130  0.64780  0.94260  Biso   1.000  C
  C76      1.0000 0.97346  0.65840  0.01800  Biso   1.000  C
  H51      1.0000 0.95520  0.63080  0.06170  Biso   1.000  H
  O26      1.0000 0.86400  0.65720  0.88560  Biso   1.000  O
  C77      1.0000 0.97332  0.71520  0.88920  Biso   1.000  C
  H52      1.0000 0.95490  0.72520  0.84760  Biso   1.000  H
  C78      1.0000 0.94820  0.67330  0.95270  Biso   1.000  C
  O27      1.0000 0.58240  0.32790  0.60610  Biso   1.000  O
  C79      1.0000 0.48090  0.27690  0.84120  Biso   1.000  C
  H53      1.0000 0.47000  0.29830  0.86900  Biso   1.000  H
  C80      1.0000 0.51520  0.29660  0.76290  Biso   1.000  C
  H54      1.0000 0.52680  0.32970  0.73850  Biso   1.000  H
  C81      1.0000 0.35220  0.24350  0.94260  Biso   1.000  C
  C82      1.0000 0.34160  0.31506  0.01800  Biso   1.000  C
  H55      1.0000 0.36920  0.32440  0.06170  Biso   1.000  H
  O28      1.0000 0.34280  0.20680  0.88560  Biso   1.000  O
  C83      1.0000 0.28480  0.25812  0.88920  Biso   1.000  C
  H56      1.0000 0.27480  0.22970  0.84760  Biso   1.000  H
  C84      1.0000 0.32670  0.27490  0.95270  Biso   1.000  C
  O29      1.0000 0.67210  0.25450  0.60610  Biso   1.000  O
  C85      1.0000 0.72310  0.20400  0.84120  Biso   1.000  C
  H57      1.0000 0.70170  0.17170  0.86900  Biso   1.000  H
  C86      1.0000 0.70340  0.21860  0.76290  Biso   1.000  C
  H58      1.0000 0.67030  0.19710  0.73850  Biso   1.000  H
  C87      1.0000 0.75650  0.10870  0.94260  Biso   1.000  C
  C88      1.0000 0.68494  0.02654  0.01800  Biso   1.000  C
  H59      1.0000 0.67560  0.04480  0.06170  Biso   1.000  H
  O30      1.0000 0.79320  0.13600  0.88560  Biso   1.000  O
  C89      1.0000 0.74188  0.02668  0.88920  Biso   1.000  C
  H60      1.0000 0.77030  0.04510  0.84760  Biso   1.000  H
  C90      1.0000 0.72510  0.05180  0.95270  Biso   1.000  C
  O31      1.0000 0.25450  0.58240  0.60610  Biso   1.000  O
  C91      1.0000 0.20400  0.48090  0.84120  Biso   1.000  C
  H61      1.0000 0.17170  0.47000  0.86900  Biso   1.000  H
  C92      1.0000 0.21860  0.51520  0.76290  Biso   1.000  C
  H62      1.0000 0.19710  0.52680  0.73850  Biso   1.000  H
  C93      1.0000 0.10870  0.35220  0.94260  Biso   1.000  C
  C94      1.0000 0.02654  0.34160  0.01800  Biso   1.000  C
  H63      1.0000 0.04480  0.36920  0.06170  Biso   1.000  H
  O32      1.0000 0.13600  0.34280  0.88560  Biso   1.000  O
  C95      1.0000 0.02668  0.28480  0.88920  Biso   1.000  C
  H64      1.0000 0.04510  0.27480  0.84760  Biso   1.000  H
  C96      1.0000 0.05180  0.32670  0.95270  Biso   1.000  C
  O33      1.0000 0.41760  0.67210  0.60610  Biso   1.000  O
  C97      1.0000 0.51910  0.72310  0.84120  Biso   1.000  C
  H65      1.0000 0.53000  0.70170  0.86900  Biso   1.000  H
  C98      1.0000 0.48480  0.70340  0.76290  Biso   1.000  C
  H66      1.0000 0.47320  0.67030  0.73850  Biso   1.000  H
  C99      1.0000 0.64780  0.75650  0.94260  Biso   1.000  C
  C100     1.0000 0.65840  0.68494  0.01800  Biso   1.000  C
  H67      1.0000 0.63080  0.67560  0.06170  Biso   1.000  H
  O34      1.0000 0.65720  0.79320  0.88560  Biso   1.000  O
  C101     1.0000 0.71520  0.74188  0.88920  Biso   1.000  C
  H68      1.0000 0.72520  0.77030  0.84760  Biso   1.000  H
  C102     1.0000 0.67330  0.72510  0.95270  Biso   1.000  C
  O35      1.0000 0.32790  0.74550  0.60610  Biso   1.000  O
  C103     1.0000 0.27690  0.79600  0.84120  Biso   1.000  C
  H69      1.0000 0.29830  0.82830  0.86900  Biso   1.000  H
  C104     1.0000 0.29660  0.78140  0.76290  Biso   1.000  C
  H70      1.0000 0.32970  0.80290  0.73850  Biso   1.000  H
  C105     1.0000 0.24350  0.89130  0.94260  Biso   1.000  C
  C106     1.0000 0.31506  0.97346  0.01800  Biso   1.000  C
  H71      1.0000 0.32440  0.95520  0.06170  Biso   1.000  H
  O36      1.0000 0.20680  0.86400  0.88560  Biso   1.000  O
  C107     1.0000 0.25812  0.97332  0.88920  Biso   1.000  C
  H72      1.0000 0.22970  0.95490  0.84760  Biso   1.000  H
  C108     1.0000 0.27490  0.94820  0.95270  Biso   1.000  C
  O37      1.0000 0.41760  0.74550  0.39390  Biso   1.000  O
  C109     1.0000 0.51910  0.79600  0.15880  Biso   1.000  C
  H73      1.0000 0.53000  0.82830  0.13100  Biso   1.000  H
  C110     1.0000 0.48480  0.78140  0.23710  Biso   1.000  C
  H74      1.0000 0.47320  0.80290  0.26150  Biso   1.000  H
  C111     1.0000 0.64780  0.89130  0.05740  Biso   1.000  C
  C112     1.0000 0.65840  0.97346  0.98200  Biso   1.000  C
  H75      1.0000 0.63080  0.95520  0.93830  Biso   1.000  H
  O38      1.0000 0.65720  0.86400  0.11440  Biso   1.000  O
  C113     1.0000 0.71520  0.97332  0.11080  Biso   1.000  C
  H76      1.0000 0.72520  0.95490  0.15240  Biso   1.000  H
  C114     1.0000 0.67330  0.94820  0.04730  Biso   1.000  C
  O39      1.0000 0.32790  0.58240  0.39390  Biso   1.000  O
  C115     1.0000 0.27690  0.48090  0.15880  Biso   1.000  C
  H77      1.0000 0.29830  0.47000  0.13100  Biso   1.000  H
  C116     1.0000 0.29660  0.51520  0.23710  Biso   1.000  C
  H78      1.0000 0.32970  0.52680  0.26150  Biso   1.000  H
  C117     1.0000 0.24350  0.35220  0.05740  Biso   1.000  C
  C118     1.0000 0.31506  0.34160  0.98200  Biso   1.000  C
  H79      1.0000 0.32440  0.36920  0.93830  Biso   1.000  H
  O40      1.0000 0.20680  0.34280  0.11440  Biso   1.000  O
  C119     1.0000 0.25812  0.28480  0.11080  Biso   1.000  C
  H80      1.0000 0.22970  0.27480  0.15240  Biso   1.000  H
  C120     1.0000 0.27490  0.32670  0.04730  Biso   1.000  C
  O41      1.0000 0.25450  0.67210  0.39390  Biso   1.000  O
  C121     1.0000 0.20400  0.72310  0.15880  Biso   1.000  C
  H81      1.0000 0.17170  0.70170  0.13100  Biso   1.000  H
  C122     1.0000 0.21860  0.70340  0.23710  Biso   1.000  C
  H82      1.0000 0.19710  0.67030  0.26150  Biso   1.000  H
  C123     1.0000 0.10870  0.75650  0.05740  Biso   1.000  C
  C124     1.0000 0.02654  0.68494  0.98200  Biso   1.000  C
  H83      1.0000 0.04480  0.67560  0.93830  Biso   1.000  H
  O42      1.0000 0.13600  0.79320  0.11440  Biso   1.000  O
  C125     1.0000 0.02668  0.74188  0.11080  Biso   1.000  C
  H84      1.0000 0.04510  0.77030  0.15240  Biso   1.000  H
  C126     1.0000 0.05180  0.72510  0.04730  Biso   1.000  C
  O43      1.0000 0.58240  0.25450  0.39390  Biso   1.000  O
  C127     1.0000 0.48090  0.20400  0.15880  Biso   1.000  C
  H85      1.0000 0.47000  0.17170  0.13100  Biso   1.000  H
  C128     1.0000 0.51520  0.21860  0.23710  Biso   1.000  C
  H86      1.0000 0.52680  0.19710  0.26150  Biso   1.000  H
  C129     1.0000 0.35220  0.10870  0.05740  Biso   1.000  C
  C130     1.0000 0.34160  0.02654  0.98200  Biso   1.000  C
  H87      1.0000 0.36920  0.04480  0.93830  Biso   1.000  H
  O44      1.0000 0.34280  0.13600  0.11440  Biso   1.000  O
  C131     1.0000 0.28480  0.02668  0.11080  Biso   1.000  C
  H88      1.0000 0.27480  0.04510  0.15240  Biso   1.000  H
  C132     1.0000 0.32670  0.05180  0.04730  Biso   1.000  C
  O45      1.0000 0.67210  0.41760  0.39390  Biso   1.000  O
  C133     1.0000 0.72310  0.51910  0.15880  Biso   1.000  C
  H89      1.0000 0.70170  0.53000  0.13100  Biso   1.000  H
  C134     1.0000 0.70340  0.48480  0.23710  Biso   1.000  C
  H90      1.0000 0.67030  0.47320  0.26150  Biso   1.000  H
  C135     1.0000 0.75650  0.64780  0.05740  Biso   1.000  C
  C136     1.0000 0.68494  0.65840  0.98200  Biso   1.000  C
  H91      1.0000 0.67560  0.63080  0.93830  Biso   1.000  H
  O46      1.0000 0.79320  0.65720  0.11440  Biso   1.000  O
  C137     1.0000 0.74188  0.71520  0.11080  Biso   1.000  C
  H92      1.0000 0.77030  0.72520  0.15240  Biso   1.000  H
  C138     1.0000 0.72510  0.67330  0.04730  Biso   1.000  C
  O47      1.0000 0.74550  0.32790  0.39390  Biso   1.000  O
  C139     1.0000 0.79600  0.27690  0.15880  Biso   1.000  C
  H93      1.0000 0.82830  0.29830  0.13100  Biso   1.000  H
  C140     1.0000 0.78140  0.29660  0.23710  Biso   1.000  C
  H94      1.0000 0.80290  0.32970  0.26150  Biso   1.000  H
  C141     1.0000 0.89130  0.24350  0.05740  Biso   1.000  C
  C142     1.0000 0.97346  0.31506  0.98200  Biso   1.000  C
  H95      1.0000 0.95520  0.32440  0.93830  Biso   1.000  H
  O48      1.0000 0.86400  0.20680  0.11440  Biso   1.000  O
  C143     1.0000 0.97332  0.25812  0.11080  Biso   1.000  C
  H96      1.0000 0.95490  0.22970  0.15240  Biso   1.000  H
  C144     1.0000 0.94820  0.27490  0.04730  Biso   1.000  C
  Zn1      1.0000 0.20631  0.41262  0.00000  Biso   1.000  Zn
  Zn2      1.0000 0.58738  0.79369  0.00000  Biso   1.000  Zn
  Zn3      1.0000 0.20631  0.79369  0.00000  Biso   1.000  Zn
  Zn4      1.0000 0.79369  0.58738  0.00000  Biso   1.000  Zn
  Zn5      1.0000 0.41262  0.20631  0.00000  Biso   1.000  Zn
  Zn6      1.0000 0.79369  0.20631  0.00000  Biso   1.000  Zn
  Cr1      1.0000 0.26023  0.63011  0.50000  Biso   1.000  Cr
  Cr2      1.0000 0.36989  0.63011  0.50000  Biso   1.000  Cr
  Cr3      1.0000 0.36989  0.73977  0.50000  Biso   1.000  Cr
  Cr4      1.0000 0.73977  0.36989  0.50000  Biso   1.000  Cr
  Cr5      1.0000 0.63011  0.36989  0.50000  Biso   1.000  Cr
  Cr6      1.0000 0.63011  0.26023  0.50000  Biso   1.000  Cr
  C145     1.0000 0.26570  0.53140  0.27720  Biso   1.000  C
  N1       1.0000 0.23085  0.46170  0.11900  Biso   1.000  N
  C146     1.0000 0.28390  0.56780  0.36120  Biso   1.000  C
  C147     1.0000 0.46860  0.73430  0.27720  Biso   1.000  C
  N2       1.0000 0.53830  0.76915  0.11900  Biso   1.000  N
  C148     1.0000 0.43220  0.71610  0.36120  Biso   1.000  C
  C149     1.0000 0.26570  0.73430  0.27720  Biso   1.000  C
  N3       1.0000 0.23085  0.76915  0.11900  Biso   1.000  N
  C150     1.0000 0.28390  0.71610  0.36120  Biso   1.000  C
  C151     1.0000 0.73430  0.46860  0.27720  Biso   1.000  C
  N4       1.0000 0.76915  0.53830  0.11900  Biso   1.000  N
  C152     1.0000 0.71610  0.43220  0.36120  Biso   1.000  C
  C153     1.0000 0.53140  0.26570  0.27720  Biso   1.000  C
  N5       1.0000 0.46170  0.23085  0.11900  Biso   1.000  N
  C154     1.0000 0.56780  0.28390  0.36120  Biso   1.000  C
  C155     1.0000 0.73430  0.26570  0.27720  Biso   1.000  C
  N6       1.0000 0.76915  0.23085  0.11900  Biso   1.000  N
  C156     1.0000 0.71610  0.28390  0.36120  Biso   1.000  C
  C157     1.0000 0.53140  0.26570  0.72280  Biso   1.000  C
  N7       1.0000 0.46170  0.23085  0.88100  Biso   1.000  N
  C158     1.0000 0.56780  0.28390  0.63880  Biso   1.000  C
  C159     1.0000 0.73430  0.46860  0.72280  Biso   1.000  C
  N8       1.0000 0.76915  0.53830  0.88100  Biso   1.000  N
  C160     1.0000 0.71610  0.43220  0.63880  Biso   1.000  C
  C161     1.0000 0.73430  0.26570  0.72280  Biso   1.000  C
  N9       1.0000 0.76915  0.23085  0.88100  Biso   1.000  N
  C162     1.0000 0.71610  0.28390  0.63880  Biso   1.000  C
  C163     1.0000 0.46860  0.73430  0.72280  Biso   1.000  C
  N10      1.0000 0.53830  0.76915  0.88100  Biso   1.000  N
  C164     1.0000 0.43220  0.71610  0.63880  Biso   1.000  C
  C165     1.0000 0.26570  0.53140  0.72280  Biso   1.000  C
  N11      1.0000 0.23085  0.46170  0.88100  Biso   1.000  N
  C166     1.0000 0.28390  0.56780  0.63880  Biso   1.000  C
  C167     1.0000 0.26570  0.73430  0.72280  Biso   1.000  C
  N12      1.0000 0.23085  0.76915  0.88100  Biso   1.000  N
  C168     1.0000 0.28390  0.71610  0.63880  Biso   1.000  C
  O49      1.0000 0.13400  0.38810  0.00000  Biso   1.000  O
  O50      1.0000 0.61190  0.74590  0.00000  Biso   1.000  O
  O51      1.0000 0.25410  0.86600  0.00000  Biso   1.000  O
  O52      1.0000 0.86600  0.61190  0.00000  Biso   1.000  O
  O53      1.0000 0.38810  0.25410  0.00000  Biso   1.000  O
  O54      1.0000 0.74590  0.13400  0.00000  Biso   1.000  O
  O55      1.0000 0.38810  0.13400  0.00000  Biso   1.000  O
  O56      1.0000 0.74590  0.61190  0.00000  Biso   1.000  O
  O57      1.0000 0.86600  0.25410  0.00000  Biso   1.000  O
  O58      1.0000 0.61190  0.86600  0.00000  Biso   1.000  O
  O59      1.0000 0.25410  0.38810  0.00000  Biso   1.000  O
  O60      1.0000 0.13400  0.74590  0.00000  Biso   1.000  O
  O61      1.0000 0.33333  0.66667  0.50000  Biso   1.000  O
  O62      1.0000 0.66667  0.33333  0.50000  Biso   1.000  O
