data_image0
_cell_length_a       6.6537
_cell_length_b       8.0998
_cell_length_c       20.179
_cell_angle_alpha    90
_cell_angle_beta     90
_cell_angle_gamma    90

_symmetry_space_group_name_H-M    "P 1"
_symmetry_int_tables_number       1

loop_
  _symmetry_equiv_pos_as_xyz
  'x, y, z'

loop_
  _atom_site_label
  _atom_site_occupancy
  _atom_site_fract_x
  _atom_site_fract_y
  _atom_site_fract_z
  _atom_site_thermal_displace_type
  _atom_site_B_iso_or_equiv
  _atom_site_type_symbol
  Y1       1.0000 0.50681  0.94595  0.11947  Biso   1.000  Y
  O1       1.0000 0.17010  0.93590  0.15590  Biso   1.000  O
  O2       1.0000 0.51060  0.58900  0.28169  Biso   1.000  O
  O3       1.0000 0.83250  0.59940  0.98053  Biso   1.000  O
  O4       1.0000 0.40070  0.22290  0.09013  Biso   1.000  O
  O5       1.0000 0.67440  0.12830  0.04277  Biso   1.000  O
  O6       1.0000 0.83870  0.95750  0.16045  Biso   1.000  O
  O7       1.0000 0.49760  0.72120  0.18650  Biso   1.000  O
  O8       1.0000 0.68680  0.73450  0.06301  Biso   1.000  O
  C1       1.0000 0.54990  0.24100  0.05256  Biso   1.000  C
  H1       1.0000 0.56840  0.34390  0.03090  Biso   1.000  H
  C2       1.0000 0.00380  0.96900  0.13083  Biso   1.000  C
  H2       1.0000 0.00200  0.00560  0.08610  Biso   1.000  H
  C3       1.0000 0.74500  0.72120  0.00448  Biso   1.000  C
  H3       1.0000 0.72040  0.81190  0.97580  Biso   1.000  H
  C4       1.0000 0.41920  0.66710  0.23804  Biso   1.000  C
  H4       1.0000 0.27990  0.68690  0.24450  Biso   1.000  H
  Y2       1.0000 0.99319  0.05405  0.61947  Biso   1.000  Y
  O9       1.0000 0.32990  0.06410  0.65590  Biso   1.000  O
  O10      1.0000 0.98940  0.41100  0.78169  Biso   1.000  O
  O11      1.0000 0.66750  0.40060  0.48053  Biso   1.000  O
  O12      1.0000 0.09930  0.77710  0.59013  Biso   1.000  O
  O13      1.0000 0.82560  0.87170  0.54277  Biso   1.000  O
  O14      1.0000 0.66130  0.04250  0.66045  Biso   1.000  O
  O15      1.0000 0.00240  0.27880  0.68650  Biso   1.000  O
  O16      1.0000 0.81320  0.26550  0.56301  Biso   1.000  O
  C5       1.0000 0.95010  0.75900  0.55256  Biso   1.000  C
  H5       1.0000 0.93160  0.65610  0.53090  Biso   1.000  H
  C6       1.0000 0.49620  0.03100  0.63083  Biso   1.000  C
  H6       1.0000 0.49800  0.99440  0.58610  Biso   1.000  H
  C7       1.0000 0.75500  0.27880  0.50448  Biso   1.000  C
  H7       1.0000 0.77960  0.18810  0.47580  Biso   1.000  H
  C8       1.0000 0.08080  0.33290  0.73804  Biso   1.000  C
  H8       1.0000 0.22010  0.31310  0.74450  Biso   1.000  H
  Y3       1.0000 0.49319  0.44595  0.38053  Biso   1.000  Y
  O17      1.0000 0.82990  0.43590  0.34410  Biso   1.000  O
  O18      1.0000 0.48940  0.08900  0.21831  Biso   1.000  O
  O19      1.0000 0.16750  0.09940  0.51947  Biso   1.000  O
  O20      1.0000 0.59930  0.72290  0.40987  Biso   1.000  O
  O21      1.0000 0.32560  0.62830  0.45723  Biso   1.000  O
  O22      1.0000 0.16130  0.45750  0.33955  Biso   1.000  O
  O23      1.0000 0.50240  0.22120  0.31350  Biso   1.000  O
  O24      1.0000 0.31320  0.23450  0.43699  Biso   1.000  O
  C9       1.0000 0.45010  0.74100  0.44744  Biso   1.000  C
  H9       1.0000 0.43160  0.84390  0.46910  Biso   1.000  H
  C10      1.0000 0.99620  0.46900  0.36917  Biso   1.000  C
  H10      1.0000 0.99800  0.50560  0.41390  Biso   1.000  H
  C11      1.0000 0.25500  0.22120  0.49552  Biso   1.000  C
  H11      1.0000 0.27960  0.31190  0.52420  Biso   1.000  H
  C12      1.0000 0.58080  0.16710  0.26196  Biso   1.000  C
  H12      1.0000 0.72010  0.18690  0.25550  Biso   1.000  H
  Y4       1.0000 0.00681  0.55405  0.88053  Biso   1.000  Y
  O25      1.0000 0.67010  0.56410  0.84410  Biso   1.000  O
  O26      1.0000 0.01060  0.91100  0.71831  Biso   1.000  O
  O27      1.0000 0.33250  0.90060  0.01947  Biso   1.000  O
  O28      1.0000 0.90070  0.27710  0.90987  Biso   1.000  O
  O29      1.0000 0.17440  0.37170  0.95723  Biso   1.000  O
  O30      1.0000 0.33870  0.54250  0.83955  Biso   1.000  O
  O31      1.0000 0.99760  0.77880  0.81350  Biso   1.000  O
  O32      1.0000 0.18680  0.76550  0.93699  Biso   1.000  O
  C13      1.0000 0.04990  0.25900  0.94744  Biso   1.000  C
  H13      1.0000 0.06840  0.15610  0.96910  Biso   1.000  H
  C14      1.0000 0.50380  0.53100  0.86917  Biso   1.000  C
  H14      1.0000 0.50200  0.49440  0.91390  Biso   1.000  H
  C15      1.0000 0.24500  0.77880  0.99552  Biso   1.000  C
  H15      1.0000 0.22040  0.68810  0.02420  Biso   1.000  H
  C16      1.0000 0.91920  0.83290  0.76196  Biso   1.000  C
  H16      1.0000 0.77990  0.81310  0.75550  Biso   1.000  H
