data_image0
_cell_length_a       19.2907
_cell_length_b       19.2907
_cell_length_c       19.2907
_cell_angle_alpha    90
_cell_angle_beta     90
_cell_angle_gamma    90

_symmetry_space_group_name_H-M    "P 1"
_symmetry_int_tables_number       1

loop_
  _symmetry_equiv_pos_as_xyz
  'x, y, z'

loop_
  _atom_site_label
  _atom_site_occupancy
  _atom_site_fract_x
  _atom_site_fract_y
  _atom_site_fract_z
  _atom_site_thermal_displace_type
  _atom_site_B_iso_or_equiv
  _atom_site_type_symbol
  V1       1.0000 0.75509  0.39102  0.14242  Biso   1.000  V
  O1       1.0000 0.80451  0.48174  0.15148  Biso   1.000  O
  O2       1.0000 0.80893  0.80864  0.13710  Biso   1.000  O
  O3       1.0000 0.74087  0.72206  0.10263  Biso   1.000  O
  O4       1.0000 0.89115  0.45975  0.22602  Biso   1.000  O
  C1       1.0000 0.79530  0.74479  0.13075  Biso   1.000  C
  C2       1.0000 0.85500  0.50048  0.18967  Biso   1.000  C
  C3       1.0000 0.84526  0.69392  0.16074  Biso   1.000  C
  C4       1.0000 0.83040  0.62343  0.15697  Biso   1.000  C
  H1       1.0000 0.79249  0.60811  0.13144  Biso   1.000  H
  C5       1.0000 0.87225  0.57596  0.19139  Biso   1.000  C
  C6       1.0000 0.92870  0.59920  0.23010  Biso   1.000  C
  H2       1.0000 0.95600  0.56750  0.25410  Biso   1.000  H
  C7       1.0000 0.90300  0.71670  0.19770  Biso   1.000  C
  H3       1.0000 0.91400  0.76360  0.19880  Biso   1.000  H
  C8       1.0000 0.94410  0.66930  0.23280  Biso   1.000  C
  H4       1.0000 0.98220  0.68450  0.25820  Biso   1.000  H
  V2       1.0000 0.74491  0.60898  0.64242  Biso   1.000  V
  O5       1.0000 0.69549  0.51826  0.65148  Biso   1.000  O
  O6       1.0000 0.69107  0.19136  0.63710  Biso   1.000  O
  O7       1.0000 0.75913  0.27794  0.60263  Biso   1.000  O
  O8       1.0000 0.60885  0.54025  0.72602  Biso   1.000  O
  C9       1.0000 0.70470  0.25521  0.63075  Biso   1.000  C
  C10      1.0000 0.64500  0.49952  0.68967  Biso   1.000  C
  C11      1.0000 0.65474  0.30608  0.66074  Biso   1.000  C
  C12      1.0000 0.66960  0.37657  0.65697  Biso   1.000  C
  H5       1.0000 0.70751  0.39189  0.63144  Biso   1.000  H
  C13      1.0000 0.62775  0.42404  0.69139  Biso   1.000  C
  C14      1.0000 0.57130  0.40080  0.73010  Biso   1.000  C
  H6       1.0000 0.54400  0.43250  0.75410  Biso   1.000  H
  C15      1.0000 0.59700  0.28330  0.69770  Biso   1.000  C
  H7       1.0000 0.58600  0.23640  0.69880  Biso   1.000  H
  C16      1.0000 0.55590  0.33070  0.73280  Biso   1.000  C
  H8       1.0000 0.51780  0.31550  0.75820  Biso   1.000  H
  V3       1.0000 0.24491  0.89102  0.35758  Biso   1.000  V
  O9       1.0000 0.19549  0.98174  0.34852  Biso   1.000  O
  O10      1.0000 0.19107  0.30864  0.36290  Biso   1.000  O
  O11      1.0000 0.25913  0.22206  0.39737  Biso   1.000  O
  O12      1.0000 0.10885  0.95975  0.27398  Biso   1.000  O
  C17      1.0000 0.20470  0.24479  0.36925  Biso   1.000  C
  C18      1.0000 0.14500  0.00048  0.31033  Biso   1.000  C
  C19      1.0000 0.15474  0.19392  0.33926  Biso   1.000  C
  C20      1.0000 0.16960  0.12343  0.34303  Biso   1.000  C
  H9       1.0000 0.20751  0.10811  0.36856  Biso   1.000  H
  C21      1.0000 0.12775  0.07596  0.30861  Biso   1.000  C
  C22      1.0000 0.07130  0.09920  0.26990  Biso   1.000  C
  H10      1.0000 0.04400  0.06750  0.24590  Biso   1.000  H
  C23      1.0000 0.09700  0.21670  0.30230  Biso   1.000  C
  H11      1.0000 0.08600  0.26360  0.30120  Biso   1.000  H
  C24      1.0000 0.05590  0.16930  0.26720  Biso   1.000  C
  H12      1.0000 0.01780  0.18450  0.24180  Biso   1.000  H
  V4       1.0000 0.25509  0.10898  0.85758  Biso   1.000  V
  O13      1.0000 0.30451  0.01826  0.84852  Biso   1.000  O
  O14      1.0000 0.30893  0.69136  0.86290  Biso   1.000  O
  O15      1.0000 0.24087  0.77794  0.89737  Biso   1.000  O
  O16      1.0000 0.39115  0.04025  0.77398  Biso   1.000  O
  C25      1.0000 0.29530  0.75521  0.86925  Biso   1.000  C
  C26      1.0000 0.35500  0.99952  0.81033  Biso   1.000  C
  C27      1.0000 0.34526  0.80608  0.83926  Biso   1.000  C
  C28      1.0000 0.33040  0.87657  0.84303  Biso   1.000  C
  H13      1.0000 0.29249  0.89189  0.86856  Biso   1.000  H
  C29      1.0000 0.37225  0.92404  0.80861  Biso   1.000  C
  C30      1.0000 0.42870  0.90080  0.76990  Biso   1.000  C
  H14      1.0000 0.45600  0.93250  0.74590  Biso   1.000  H
  C31      1.0000 0.40300  0.78330  0.80230  Biso   1.000  C
  H15      1.0000 0.41400  0.73640  0.80120  Biso   1.000  H
  C32      1.0000 0.44410  0.83070  0.76720  Biso   1.000  C
  H16      1.0000 0.48220  0.81550  0.74180  Biso   1.000  H
  V5       1.0000 0.14242  0.75509  0.39102  Biso   1.000  V
  O17      1.0000 0.15148  0.80451  0.48174  Biso   1.000  O
  O18      1.0000 0.13710  0.80893  0.80864  Biso   1.000  O
  O19      1.0000 0.10263  0.74087  0.72206  Biso   1.000  O
  O20      1.0000 0.22602  0.89115  0.45975  Biso   1.000  O
  C33      1.0000 0.13075  0.79530  0.74479  Biso   1.000  C
  C34      1.0000 0.18967  0.85500  0.50048  Biso   1.000  C
  C35      1.0000 0.16074  0.84526  0.69392  Biso   1.000  C
  C36      1.0000 0.15697  0.83040  0.62343  Biso   1.000  C
  H17      1.0000 0.13144  0.79249  0.60811  Biso   1.000  H
  C37      1.0000 0.19139  0.87225  0.57596  Biso   1.000  C
  C38      1.0000 0.23010  0.92870  0.59920  Biso   1.000  C
  H18      1.0000 0.25410  0.95600  0.56750  Biso   1.000  H
  C39      1.0000 0.19770  0.90300  0.71670  Biso   1.000  C
  H19      1.0000 0.19880  0.91400  0.76360  Biso   1.000  H
  C40      1.0000 0.23280  0.94410  0.66930  Biso   1.000  C
  H20      1.0000 0.25820  0.98220  0.68450  Biso   1.000  H
  V6       1.0000 0.64242  0.74491  0.60898  Biso   1.000  V
  O21      1.0000 0.65148  0.69549  0.51826  Biso   1.000  O
  O22      1.0000 0.63710  0.69107  0.19136  Biso   1.000  O
  O23      1.0000 0.60263  0.75913  0.27794  Biso   1.000  O
  O24      1.0000 0.72602  0.60885  0.54025  Biso   1.000  O
  C41      1.0000 0.63075  0.70470  0.25521  Biso   1.000  C
  C42      1.0000 0.68967  0.64500  0.49952  Biso   1.000  C
  C43      1.0000 0.66074  0.65474  0.30608  Biso   1.000  C
  C44      1.0000 0.65697  0.66960  0.37657  Biso   1.000  C
  H21      1.0000 0.63144  0.70751  0.39189  Biso   1.000  H
  C45      1.0000 0.69139  0.62775  0.42404  Biso   1.000  C
  C46      1.0000 0.73010  0.57130  0.40080  Biso   1.000  C
  H22      1.0000 0.75410  0.54400  0.43250  Biso   1.000  H
  C47      1.0000 0.69770  0.59700  0.28330  Biso   1.000  C
  H23      1.0000 0.69880  0.58600  0.23640  Biso   1.000  H
  C48      1.0000 0.73280  0.55590  0.33070  Biso   1.000  C
  H24      1.0000 0.75820  0.51780  0.31550  Biso   1.000  H
  V7       1.0000 0.35758  0.24491  0.89102  Biso   1.000  V
  O25      1.0000 0.34852  0.19549  0.98174  Biso   1.000  O
  O26      1.0000 0.36290  0.19107  0.30864  Biso   1.000  O
  O27      1.0000 0.39737  0.25913  0.22206  Biso   1.000  O
  O28      1.0000 0.27398  0.10885  0.95975  Biso   1.000  O
  C49      1.0000 0.36925  0.20470  0.24479  Biso   1.000  C
  C50      1.0000 0.31033  0.14500  0.00048  Biso   1.000  C
  C51      1.0000 0.33926  0.15474  0.19392  Biso   1.000  C
  C52      1.0000 0.34303  0.16960  0.12343  Biso   1.000  C
  H25      1.0000 0.36856  0.20751  0.10811  Biso   1.000  H
  C53      1.0000 0.30861  0.12775  0.07596  Biso   1.000  C
  C54      1.0000 0.26990  0.07130  0.09920  Biso   1.000  C
  H26      1.0000 0.24590  0.04400  0.06750  Biso   1.000  H
  C55      1.0000 0.30230  0.09700  0.21670  Biso   1.000  C
  H27      1.0000 0.30120  0.08600  0.26360  Biso   1.000  H
  C56      1.0000 0.26720  0.05590  0.16930  Biso   1.000  C
  H28      1.0000 0.24180  0.01780  0.18450  Biso   1.000  H
  V8       1.0000 0.85758  0.25509  0.10898  Biso   1.000  V
  O29      1.0000 0.84852  0.30451  0.01826  Biso   1.000  O
  O30      1.0000 0.86290  0.30893  0.69136  Biso   1.000  O
  O31      1.0000 0.89737  0.24087  0.77794  Biso   1.000  O
  O32      1.0000 0.77398  0.39115  0.04025  Biso   1.000  O
  C57      1.0000 0.86925  0.29530  0.75521  Biso   1.000  C
  C58      1.0000 0.81033  0.35500  0.99952  Biso   1.000  C
  C59      1.0000 0.83926  0.34526  0.80608  Biso   1.000  C
  C60      1.0000 0.84303  0.33040  0.87657  Biso   1.000  C
  H29      1.0000 0.86856  0.29249  0.89189  Biso   1.000  H
  C61      1.0000 0.80861  0.37225  0.92404  Biso   1.000  C
  C62      1.0000 0.76990  0.42870  0.90080  Biso   1.000  C
  H30      1.0000 0.74590  0.45600  0.93250  Biso   1.000  H
  C63      1.0000 0.80230  0.40300  0.78330  Biso   1.000  C
  H31      1.0000 0.80120  0.41400  0.73640  Biso   1.000  H
  C64      1.0000 0.76720  0.44410  0.83070  Biso   1.000  C
  H32      1.0000 0.74180  0.48220  0.81550  Biso   1.000  H
  V9       1.0000 0.39102  0.14242  0.75509  Biso   1.000  V
  O33      1.0000 0.48174  0.15148  0.80451  Biso   1.000  O
  O34      1.0000 0.80864  0.13710  0.80893  Biso   1.000  O
  O35      1.0000 0.72206  0.10263  0.74087  Biso   1.000  O
  O36      1.0000 0.45975  0.22602  0.89115  Biso   1.000  O
  C65      1.0000 0.74479  0.13075  0.79530  Biso   1.000  C
  C66      1.0000 0.50048  0.18967  0.85500  Biso   1.000  C
  C67      1.0000 0.69392  0.16074  0.84526  Biso   1.000  C
  C68      1.0000 0.62343  0.15697  0.83040  Biso   1.000  C
  H33      1.0000 0.60811  0.13144  0.79249  Biso   1.000  H
  C69      1.0000 0.57596  0.19139  0.87225  Biso   1.000  C
  C70      1.0000 0.59920  0.23010  0.92870  Biso   1.000  C
  H34      1.0000 0.56750  0.25410  0.95600  Biso   1.000  H
  C71      1.0000 0.71670  0.19770  0.90300  Biso   1.000  C
  H35      1.0000 0.76360  0.19880  0.91400  Biso   1.000  H
  C72      1.0000 0.66930  0.23280  0.94410  Biso   1.000  C
  H36      1.0000 0.68450  0.25820  0.98220  Biso   1.000  H
  V10      1.0000 0.60898  0.64242  0.74491  Biso   1.000  V
  O37      1.0000 0.51826  0.65148  0.69549  Biso   1.000  O
  O38      1.0000 0.19136  0.63710  0.69107  Biso   1.000  O
  O39      1.0000 0.27794  0.60263  0.75913  Biso   1.000  O
  O40      1.0000 0.54025  0.72602  0.60885  Biso   1.000  O
  C73      1.0000 0.25521  0.63075  0.70470  Biso   1.000  C
  C74      1.0000 0.49952  0.68967  0.64500  Biso   1.000  C
  C75      1.0000 0.30608  0.66074  0.65474  Biso   1.000  C
  C76      1.0000 0.37657  0.65697  0.66960  Biso   1.000  C
  H37      1.0000 0.39189  0.63144  0.70751  Biso   1.000  H
  C77      1.0000 0.42404  0.69139  0.62775  Biso   1.000  C
  C78      1.0000 0.40080  0.73010  0.57130  Biso   1.000  C
  H38      1.0000 0.43250  0.75410  0.54400  Biso   1.000  H
  C79      1.0000 0.28330  0.69770  0.59700  Biso   1.000  C
  H39      1.0000 0.23640  0.69880  0.58600  Biso   1.000  H
  C80      1.0000 0.33070  0.73280  0.55590  Biso   1.000  C
  H40      1.0000 0.31550  0.75820  0.51780  Biso   1.000  H
  V11      1.0000 0.89102  0.35758  0.24491  Biso   1.000  V
  O41      1.0000 0.98174  0.34852  0.19549  Biso   1.000  O
  O42      1.0000 0.30864  0.36290  0.19107  Biso   1.000  O
  O43      1.0000 0.22206  0.39737  0.25913  Biso   1.000  O
  O44      1.0000 0.95975  0.27398  0.10885  Biso   1.000  O
  C81      1.0000 0.24479  0.36925  0.20470  Biso   1.000  C
  C82      1.0000 0.00048  0.31033  0.14500  Biso   1.000  C
  C83      1.0000 0.19392  0.33926  0.15474  Biso   1.000  C
  C84      1.0000 0.12343  0.34303  0.16960  Biso   1.000  C
  H41      1.0000 0.10811  0.36856  0.20751  Biso   1.000  H
  C85      1.0000 0.07596  0.30861  0.12775  Biso   1.000  C
  C86      1.0000 0.09920  0.26990  0.07130  Biso   1.000  C
  H42      1.0000 0.06750  0.24590  0.04400  Biso   1.000  H
  C87      1.0000 0.21670  0.30230  0.09700  Biso   1.000  C
  H43      1.0000 0.26360  0.30120  0.08600  Biso   1.000  H
  C88      1.0000 0.16930  0.26720  0.05590  Biso   1.000  C
  H44      1.0000 0.18450  0.24180  0.01780  Biso   1.000  H
  V12      1.0000 0.10898  0.85758  0.25509  Biso   1.000  V
  O45      1.0000 0.01826  0.84852  0.30451  Biso   1.000  O
  O46      1.0000 0.69136  0.86290  0.30893  Biso   1.000  O
  O47      1.0000 0.77794  0.89737  0.24087  Biso   1.000  O
  O48      1.0000 0.04025  0.77398  0.39115  Biso   1.000  O
  C89      1.0000 0.75521  0.86925  0.29530  Biso   1.000  C
  C90      1.0000 0.99952  0.81033  0.35500  Biso   1.000  C
  C91      1.0000 0.80608  0.83926  0.34526  Biso   1.000  C
  C92      1.0000 0.87657  0.84303  0.33040  Biso   1.000  C
  H45      1.0000 0.89189  0.86856  0.29249  Biso   1.000  H
  C93      1.0000 0.92404  0.80861  0.37225  Biso   1.000  C
  C94      1.0000 0.90080  0.76990  0.42870  Biso   1.000  C
  H46      1.0000 0.93250  0.74590  0.45600  Biso   1.000  H
  C95      1.0000 0.78330  0.80230  0.40300  Biso   1.000  C
  H47      1.0000 0.73640  0.80120  0.41400  Biso   1.000  H
  C96      1.0000 0.83070  0.76720  0.44410  Biso   1.000  C
  H48      1.0000 0.81550  0.74180  0.48220  Biso   1.000  H
  V13      1.0000 0.24491  0.60898  0.85758  Biso   1.000  V
  O49      1.0000 0.19549  0.51826  0.84852  Biso   1.000  O
  O50      1.0000 0.19107  0.19136  0.86290  Biso   1.000  O
  O51      1.0000 0.25913  0.27794  0.89737  Biso   1.000  O
  O52      1.0000 0.10885  0.54025  0.77398  Biso   1.000  O
  C97      1.0000 0.20470  0.25521  0.86925  Biso   1.000  C
  C98      1.0000 0.14500  0.49952  0.81033  Biso   1.000  C
  C99      1.0000 0.15474  0.30608  0.83926  Biso   1.000  C
  C100     1.0000 0.16960  0.37657  0.84303  Biso   1.000  C
  H49      1.0000 0.20751  0.39189  0.86856  Biso   1.000  H
  C101     1.0000 0.12775  0.42404  0.80861  Biso   1.000  C
  C102     1.0000 0.07130  0.40080  0.76990  Biso   1.000  C
  H50      1.0000 0.04400  0.43250  0.74590  Biso   1.000  H
  C103     1.0000 0.09700  0.28330  0.80230  Biso   1.000  C
  H51      1.0000 0.08600  0.23640  0.80120  Biso   1.000  H
  C104     1.0000 0.05590  0.33070  0.76720  Biso   1.000  C
  H52      1.0000 0.01780  0.31550  0.74180  Biso   1.000  H
  V14      1.0000 0.25509  0.39102  0.35758  Biso   1.000  V
  O53      1.0000 0.30451  0.48174  0.34852  Biso   1.000  O
  O54      1.0000 0.30893  0.80864  0.36290  Biso   1.000  O
  O55      1.0000 0.24087  0.72206  0.39737  Biso   1.000  O
  O56      1.0000 0.39115  0.45975  0.27398  Biso   1.000  O
  C105     1.0000 0.29530  0.74479  0.36925  Biso   1.000  C
  C106     1.0000 0.35500  0.50048  0.31033  Biso   1.000  C
  C107     1.0000 0.34526  0.69392  0.33926  Biso   1.000  C
  C108     1.0000 0.33040  0.62343  0.34303  Biso   1.000  C
  H53      1.0000 0.29249  0.60811  0.36856  Biso   1.000  H
  C109     1.0000 0.37225  0.57596  0.30861  Biso   1.000  C
  C110     1.0000 0.42870  0.59920  0.26990  Biso   1.000  C
  H54      1.0000 0.45600  0.56750  0.24590  Biso   1.000  H
  C111     1.0000 0.40300  0.71670  0.30230  Biso   1.000  C
  H55      1.0000 0.41400  0.76360  0.30120  Biso   1.000  H
  C112     1.0000 0.44410  0.66930  0.26720  Biso   1.000  C
  H56      1.0000 0.48220  0.68450  0.24180  Biso   1.000  H
  V15      1.0000 0.75509  0.10898  0.64242  Biso   1.000  V
  O57      1.0000 0.80451  0.01826  0.65148  Biso   1.000  O
  O58      1.0000 0.80893  0.69136  0.63710  Biso   1.000  O
  O59      1.0000 0.74087  0.77794  0.60263  Biso   1.000  O
  O60      1.0000 0.89115  0.04025  0.72602  Biso   1.000  O
  C113     1.0000 0.79530  0.75521  0.63075  Biso   1.000  C
  C114     1.0000 0.85500  0.99952  0.68967  Biso   1.000  C
  C115     1.0000 0.84526  0.80608  0.66074  Biso   1.000  C
  C116     1.0000 0.83040  0.87657  0.65697  Biso   1.000  C
  H57      1.0000 0.79249  0.89189  0.63144  Biso   1.000  H
  C117     1.0000 0.87225  0.92404  0.69139  Biso   1.000  C
  C118     1.0000 0.92870  0.90080  0.73010  Biso   1.000  C
  H58      1.0000 0.95600  0.93250  0.75410  Biso   1.000  H
  C119     1.0000 0.90300  0.78330  0.69770  Biso   1.000  C
  H59      1.0000 0.91400  0.73640  0.69880  Biso   1.000  H
  C120     1.0000 0.94410  0.83070  0.73280  Biso   1.000  C
  H60      1.0000 0.98220  0.81550  0.75820  Biso   1.000  H
  V16      1.0000 0.74491  0.89102  0.14242  Biso   1.000  V
  O61      1.0000 0.69549  0.98174  0.15148  Biso   1.000  O
  O62      1.0000 0.69107  0.30864  0.13710  Biso   1.000  O
  O63      1.0000 0.75913  0.22206  0.10263  Biso   1.000  O
  O64      1.0000 0.60885  0.95975  0.22602  Biso   1.000  O
  C121     1.0000 0.70470  0.24479  0.13075  Biso   1.000  C
  C122     1.0000 0.64500  0.00048  0.18967  Biso   1.000  C
  C123     1.0000 0.65474  0.19392  0.16074  Biso   1.000  C
  C124     1.0000 0.66960  0.12343  0.15697  Biso   1.000  C
  H61      1.0000 0.70751  0.10811  0.13144  Biso   1.000  H
  C125     1.0000 0.62775  0.07596  0.19139  Biso   1.000  C
  C126     1.0000 0.57130  0.09920  0.23010  Biso   1.000  C
  H62      1.0000 0.54400  0.06750  0.25410  Biso   1.000  H
  C127     1.0000 0.59700  0.21670  0.19770  Biso   1.000  C
  H63      1.0000 0.58600  0.26360  0.19880  Biso   1.000  H
  C128     1.0000 0.55590  0.16930  0.23280  Biso   1.000  C
  H64      1.0000 0.51780  0.18450  0.25820  Biso   1.000  H
  V17      1.0000 0.85758  0.24491  0.60898  Biso   1.000  V
  O65      1.0000 0.84852  0.19549  0.51826  Biso   1.000  O
  O66      1.0000 0.86290  0.19107  0.19136  Biso   1.000  O
  O67      1.0000 0.89737  0.25913  0.27794  Biso   1.000  O
  O68      1.0000 0.77398  0.10885  0.54025  Biso   1.000  O
  C129     1.0000 0.86925  0.20470  0.25521  Biso   1.000  C
  C130     1.0000 0.81033  0.14500  0.49952  Biso   1.000  C
  C131     1.0000 0.83926  0.15474  0.30608  Biso   1.000  C
  C132     1.0000 0.84303  0.16960  0.37657  Biso   1.000  C
  H65      1.0000 0.86856  0.20751  0.39189  Biso   1.000  H
  C133     1.0000 0.80861  0.12775  0.42404  Biso   1.000  C
  C134     1.0000 0.76990  0.07130  0.40080  Biso   1.000  C
  H66      1.0000 0.74590  0.04400  0.43250  Biso   1.000  H
  C135     1.0000 0.80230  0.09700  0.28330  Biso   1.000  C
  H67      1.0000 0.80120  0.08600  0.23640  Biso   1.000  H
  C136     1.0000 0.76720  0.05590  0.33070  Biso   1.000  C
  H68      1.0000 0.74180  0.01780  0.31550  Biso   1.000  H
  V18      1.0000 0.35758  0.25509  0.39102  Biso   1.000  V
  O69      1.0000 0.34852  0.30451  0.48174  Biso   1.000  O
  O70      1.0000 0.36290  0.30893  0.80864  Biso   1.000  O
  O71      1.0000 0.39737  0.24087  0.72206  Biso   1.000  O
  O72      1.0000 0.27398  0.39115  0.45975  Biso   1.000  O
  C137     1.0000 0.36925  0.29530  0.74479  Biso   1.000  C
  C138     1.0000 0.31033  0.35500  0.50048  Biso   1.000  C
  C139     1.0000 0.33926  0.34526  0.69392  Biso   1.000  C
  C140     1.0000 0.34303  0.33040  0.62343  Biso   1.000  C
  H69      1.0000 0.36856  0.29249  0.60811  Biso   1.000  H
  C141     1.0000 0.30861  0.37225  0.57596  Biso   1.000  C
  C142     1.0000 0.26990  0.42870  0.59920  Biso   1.000  C
  H70      1.0000 0.24590  0.45600  0.56750  Biso   1.000  H
  C143     1.0000 0.30230  0.40300  0.71670  Biso   1.000  C
  H71      1.0000 0.30120  0.41400  0.76360  Biso   1.000  H
  C144     1.0000 0.26720  0.44410  0.66930  Biso   1.000  C
  H72      1.0000 0.24180  0.48220  0.68450  Biso   1.000  H
  V19      1.0000 0.64242  0.75509  0.10898  Biso   1.000  V
  O73      1.0000 0.65148  0.80451  0.01826  Biso   1.000  O
  O74      1.0000 0.63710  0.80893  0.69136  Biso   1.000  O
  O75      1.0000 0.60263  0.74087  0.77794  Biso   1.000  O
  O76      1.0000 0.72602  0.89115  0.04025  Biso   1.000  O
  C145     1.0000 0.63075  0.79530  0.75521  Biso   1.000  C
  C146     1.0000 0.68967  0.85500  0.99952  Biso   1.000  C
  C147     1.0000 0.66074  0.84526  0.80608  Biso   1.000  C
  C148     1.0000 0.65697  0.83040  0.87657  Biso   1.000  C
  H73      1.0000 0.63144  0.79249  0.89189  Biso   1.000  H
  C149     1.0000 0.69139  0.87225  0.92404  Biso   1.000  C
  C150     1.0000 0.73010  0.92870  0.90080  Biso   1.000  C
  H74      1.0000 0.75410  0.95600  0.93250  Biso   1.000  H
  C151     1.0000 0.69770  0.90300  0.78330  Biso   1.000  C
  H75      1.0000 0.69880  0.91400  0.73640  Biso   1.000  H
  C152     1.0000 0.73280  0.94410  0.83070  Biso   1.000  C
  H76      1.0000 0.75820  0.98220  0.81550  Biso   1.000  H
  V20      1.0000 0.14242  0.74491  0.89102  Biso   1.000  V
  O77      1.0000 0.15148  0.69549  0.98174  Biso   1.000  O
  O78      1.0000 0.13710  0.69107  0.30864  Biso   1.000  O
  O79      1.0000 0.10263  0.75913  0.22206  Biso   1.000  O
  O80      1.0000 0.22602  0.60885  0.95975  Biso   1.000  O
  C153     1.0000 0.13075  0.70470  0.24479  Biso   1.000  C
  C154     1.0000 0.18967  0.64500  0.00048  Biso   1.000  C
  C155     1.0000 0.16074  0.65474  0.19392  Biso   1.000  C
  C156     1.0000 0.15697  0.66960  0.12343  Biso   1.000  C
  H77      1.0000 0.13144  0.70751  0.10811  Biso   1.000  H
  C157     1.0000 0.19139  0.62775  0.07596  Biso   1.000  C
  C158     1.0000 0.23010  0.57130  0.09920  Biso   1.000  C
  H78      1.0000 0.25410  0.54400  0.06750  Biso   1.000  H
  C159     1.0000 0.19770  0.59700  0.21670  Biso   1.000  C
  H79      1.0000 0.19880  0.58600  0.26360  Biso   1.000  H
  C160     1.0000 0.23280  0.55590  0.16930  Biso   1.000  C
  H80      1.0000 0.25820  0.51780  0.18450  Biso   1.000  H
  V21      1.0000 0.60898  0.85758  0.24491  Biso   1.000  V
  O81      1.0000 0.51826  0.84852  0.19549  Biso   1.000  O
  O82      1.0000 0.19136  0.86290  0.19107  Biso   1.000  O
  O83      1.0000 0.27794  0.89737  0.25913  Biso   1.000  O
  O84      1.0000 0.54025  0.77398  0.10885  Biso   1.000  O
  C161     1.0000 0.25521  0.86925  0.20470  Biso   1.000  C
  C162     1.0000 0.49952  0.81033  0.14500  Biso   1.000  C
  C163     1.0000 0.30608  0.83926  0.15474  Biso   1.000  C
  C164     1.0000 0.37657  0.84303  0.16960  Biso   1.000  C
  H81      1.0000 0.39189  0.86856  0.20751  Biso   1.000  H
  C165     1.0000 0.42404  0.80861  0.12775  Biso   1.000  C
  C166     1.0000 0.40080  0.76990  0.07130  Biso   1.000  C
  H82      1.0000 0.43250  0.74590  0.04400  Biso   1.000  H
  C167     1.0000 0.28330  0.80230  0.09700  Biso   1.000  C
  H83      1.0000 0.23640  0.80120  0.08600  Biso   1.000  H
  C168     1.0000 0.33070  0.76720  0.05590  Biso   1.000  C
  H84      1.0000 0.31550  0.74180  0.01780  Biso   1.000  H
  V22      1.0000 0.39102  0.35758  0.25509  Biso   1.000  V
  O85      1.0000 0.48174  0.34852  0.30451  Biso   1.000  O
  O86      1.0000 0.80864  0.36290  0.30893  Biso   1.000  O
  O87      1.0000 0.72206  0.39737  0.24087  Biso   1.000  O
  O88      1.0000 0.45975  0.27398  0.39115  Biso   1.000  O
  C169     1.0000 0.74479  0.36925  0.29530  Biso   1.000  C
  C170     1.0000 0.50048  0.31033  0.35500  Biso   1.000  C
  C171     1.0000 0.69392  0.33926  0.34526  Biso   1.000  C
  C172     1.0000 0.62343  0.34303  0.33040  Biso   1.000  C
  H85      1.0000 0.60811  0.36856  0.29249  Biso   1.000  H
  C173     1.0000 0.57596  0.30861  0.37225  Biso   1.000  C
  C174     1.0000 0.59920  0.26990  0.42870  Biso   1.000  C
  H86      1.0000 0.56750  0.24590  0.45600  Biso   1.000  H
  C175     1.0000 0.71670  0.30230  0.40300  Biso   1.000  C
  H87      1.0000 0.76360  0.30120  0.41400  Biso   1.000  H
  C176     1.0000 0.66930  0.26720  0.44410  Biso   1.000  C
  H88      1.0000 0.68450  0.24180  0.48220  Biso   1.000  H
  V23      1.0000 0.10898  0.64242  0.75509  Biso   1.000  V
  O89      1.0000 0.01826  0.65148  0.80451  Biso   1.000  O
  O90      1.0000 0.69136  0.63710  0.80893  Biso   1.000  O
  O91      1.0000 0.77794  0.60263  0.74087  Biso   1.000  O
  O92      1.0000 0.04025  0.72602  0.89115  Biso   1.000  O
  C177     1.0000 0.75521  0.63075  0.79530  Biso   1.000  C
  C178     1.0000 0.99952  0.68967  0.85500  Biso   1.000  C
  C179     1.0000 0.80608  0.66074  0.84526  Biso   1.000  C
  C180     1.0000 0.87657  0.65697  0.83040  Biso   1.000  C
  H89      1.0000 0.89189  0.63144  0.79249  Biso   1.000  H
  C181     1.0000 0.92404  0.69139  0.87225  Biso   1.000  C
  C182     1.0000 0.90080  0.73010  0.92870  Biso   1.000  C
  H90      1.0000 0.93250  0.75410  0.95600  Biso   1.000  H
  C183     1.0000 0.78330  0.69770  0.90300  Biso   1.000  C
  H91      1.0000 0.73640  0.69880  0.91400  Biso   1.000  H
  C184     1.0000 0.83070  0.73280  0.94410  Biso   1.000  C
  H92      1.0000 0.81550  0.75820  0.98220  Biso   1.000  H
  V24      1.0000 0.89102  0.14242  0.74491  Biso   1.000  V
  O93      1.0000 0.98174  0.15148  0.69549  Biso   1.000  O
  O94      1.0000 0.30864  0.13710  0.69107  Biso   1.000  O
  O95      1.0000 0.22206  0.10263  0.75913  Biso   1.000  O
  O96      1.0000 0.95975  0.22602  0.60885  Biso   1.000  O
  C185     1.0000 0.24479  0.13075  0.70470  Biso   1.000  C
  C186     1.0000 0.00048  0.18967  0.64500  Biso   1.000  C
  C187     1.0000 0.19392  0.16074  0.65474  Biso   1.000  C
  C188     1.0000 0.12343  0.15697  0.66960  Biso   1.000  C
  H93      1.0000 0.10811  0.13144  0.70751  Biso   1.000  H
  C189     1.0000 0.07596  0.19139  0.62775  Biso   1.000  C
  C190     1.0000 0.09920  0.23010  0.57130  Biso   1.000  C
  H94      1.0000 0.06750  0.25410  0.54400  Biso   1.000  H
  C191     1.0000 0.21670  0.19770  0.59700  Biso   1.000  C
  H95      1.0000 0.26360  0.19880  0.58600  Biso   1.000  H
  C192     1.0000 0.16930  0.23280  0.55590  Biso   1.000  C
  H96      1.0000 0.18450  0.25820  0.51780  Biso   1.000  H
  O97      1.0000 0.83494  0.33494  0.16506  Biso   1.000  O
  O98      1.0000 0.66506  0.66506  0.66506  Biso   1.000  O
  O99      1.0000 0.16506  0.83494  0.33494  Biso   1.000  O
  O100     1.0000 0.33494  0.16506  0.83494  Biso   1.000  O
  O101     1.0000 0.16506  0.66506  0.83494  Biso   1.000  O
  O102     1.0000 0.33494  0.33494  0.33494  Biso   1.000  O
  O103     1.0000 0.83494  0.16506  0.66506  Biso   1.000  O
  O104     1.0000 0.66506  0.83494  0.16506  Biso   1.000  O
