data_image0
_cell_length_a       10.6646
_cell_length_b       11.0897
_cell_length_c       14.724
_cell_angle_alpha    106.806
_cell_angle_beta     95.727
_cell_angle_gamma    113.001

_symmetry_space_group_name_H-M    "P 1"
_symmetry_int_tables_number       1

loop_
  _symmetry_equiv_pos_as_xyz
  'x, y, z'

loop_
  _atom_site_label
  _atom_site_occupancy
  _atom_site_fract_x
  _atom_site_fract_y
  _atom_site_fract_z
  _atom_site_thermal_displace_type
  _atom_site_B_iso_or_equiv
  _atom_site_type_symbol
  C1       1.0000 0.10870  0.06330  0.34218  Biso   1.000  C
  C2       1.0000 0.11200  0.92390  0.31551  Biso   1.000  C
  C3       1.0000 0.07270  0.84230  0.37328  Biso   1.000  C
  C4       1.0000 0.08360  0.71650  0.35063  Biso   1.000  C
  C5       1.0000 0.12690  0.66810  0.26692  Biso   1.000  C
  C6       1.0000 0.16110  0.74970  0.20938  Biso   1.000  C
  C7       1.0000 0.15730  0.87780  0.23258  Biso   1.000  C
  C8       1.0000 0.05070  0.63170  0.41542  Biso   1.000  C
  C9       1.0000 0.69380  0.77790  0.14905  Biso   1.000  C
  C10      1.0000 0.60860  0.73860  0.22020  Biso   1.000  C
  C11      1.0000 0.49260  0.60780  0.18762  Biso   1.000  C
  C12      1.0000 0.41010  0.56810  0.25071  Biso   1.000  C
  C13      1.0000 0.44110  0.66040  0.34624  Biso   1.000  C
  C14      1.0000 0.55530  0.79010  0.37585  Biso   1.000  C
  C15      1.0000 0.64190  0.83220  0.31549  Biso   1.000  C
  C16      1.0000 0.29000  0.42440  0.21497  Biso   1.000  C
  N1       1.0000 0.58540  0.89100  0.47593  Biso   1.000  N
  N2       1.0000 0.20050  0.69540  0.11827  Biso   1.000  N
  O1       1.0000 0.14834  0.13663  0.28843  Biso   1.000  O
  O2       1.0000 0.07225  0.11076  0.41791  Biso   1.000  O
  O3       1.0000 0.96898  0.64902  0.46855  Biso   1.000  O
  O4       1.0000 0.10471  0.54886  0.41382  Biso   1.000  O
  O5       1.0000 0.19908  0.39655  0.26423  Biso   1.000  O
  O6       1.0000 0.28776  0.33805  0.13684  Biso   1.000  O
  O7       1.0000 0.80675  0.89082  0.17874  Biso   1.000  O
  O8       1.0000 0.64835  0.69821  0.05988  Biso   1.000  O
  O9       1.0000 0.97867  0.92612  0.90341  Biso   1.000  O
  O10      1.0000 0.25026  0.77666  0.07559  Biso   1.000  O
  O11      1.0000 0.18390  0.57394  0.09112  Biso   1.000  O
  O12      1.0000 0.54300  0.84430  0.53819  Biso   1.000  O
  O13      1.0000 0.65078  0.01633  0.48968  Biso   1.000  O
  U1       1.0000 0.10777  0.33038  0.38917  Biso   1.000  U
  U2       1.0000 0.84097  0.85126  0.00962  Biso   1.000  U
  H1       1.0000 0.71800  0.92900  0.34400  Biso   1.000  H
  H2       1.0000 0.47000  0.54100  0.12520  Biso   1.000  H
  H3       1.0000 0.39100  0.64700  0.39230  Biso   1.000  H
  H4       1.0000 0.04100  0.87000  0.42220  Biso   1.000  H
  H5       1.0000 0.13200  0.58700  0.24700  Biso   1.000  H
  H6       1.0000 0.18100  0.91900  0.19370  Biso   1.000  H
  C17      1.0000 0.89130  0.93670  0.65782  Biso   1.000  C
  C18      1.0000 0.88800  0.07610  0.68449  Biso   1.000  C
  C19      1.0000 0.92730  0.15770  0.62672  Biso   1.000  C
  C20      1.0000 0.91640  0.28350  0.64937  Biso   1.000  C
  C21      1.0000 0.87310  0.33190  0.73308  Biso   1.000  C
  C22      1.0000 0.83890  0.25030  0.79062  Biso   1.000  C
  C23      1.0000 0.84270  0.12220  0.76742  Biso   1.000  C
  C24      1.0000 0.94930  0.36830  0.58458  Biso   1.000  C
  C25      1.0000 0.30620  0.22210  0.85095  Biso   1.000  C
  C26      1.0000 0.39140  0.26140  0.77980  Biso   1.000  C
  C27      1.0000 0.50740  0.39220  0.81238  Biso   1.000  C
  C28      1.0000 0.58990  0.43190  0.74929  Biso   1.000  C
  C29      1.0000 0.55890  0.33960  0.65376  Biso   1.000  C
  C30      1.0000 0.44470  0.20990  0.62415  Biso   1.000  C
  C31      1.0000 0.35810  0.16780  0.68451  Biso   1.000  C
  C32      1.0000 0.71000  0.57560  0.78503  Biso   1.000  C
  N3       1.0000 0.41460  0.10900  0.52407  Biso   1.000  N
  N4       1.0000 0.79950  0.30460  0.88173  Biso   1.000  N
  O14      1.0000 0.85166  0.86337  0.71157  Biso   1.000  O
  O15      1.0000 0.92775  0.88924  0.58209  Biso   1.000  O
  O16      1.0000 0.03102  0.35098  0.53145  Biso   1.000  O
  O17      1.0000 0.89529  0.45114  0.58618  Biso   1.000  O
  O18      1.0000 0.80092  0.60345  0.73577  Biso   1.000  O
  O19      1.0000 0.71224  0.66195  0.86316  Biso   1.000  O
  O20      1.0000 0.19325  0.10918  0.82126  Biso   1.000  O
  O21      1.0000 0.35165  0.30179  0.94012  Biso   1.000  O
  O22      1.0000 0.02133  0.07388  0.09659  Biso   1.000  O
  O23      1.0000 0.74974  0.22334  0.92441  Biso   1.000  O
  O24      1.0000 0.81610  0.42606  0.90888  Biso   1.000  O
  O25      1.0000 0.45700  0.15570  0.46181  Biso   1.000  O
  O26      1.0000 0.34922  0.98367  0.51032  Biso   1.000  O
  U3       1.0000 0.89223  0.66962  0.61083  Biso   1.000  U
  U4       1.0000 0.15903  0.14874  0.99038  Biso   1.000  U
  H7       1.0000 0.28200  0.07100  0.65600  Biso   1.000  H
  H8       1.0000 0.53000  0.45900  0.87480  Biso   1.000  H
  H9       1.0000 0.60900  0.35300  0.60770  Biso   1.000  H
  H10      1.0000 0.95900  0.13000  0.57780  Biso   1.000  H
  H11      1.0000 0.86800  0.41300  0.75300  Biso   1.000  H
  H12      1.0000 0.81900  0.08100  0.80630  Biso   1.000  H
