data_image0
_cell_length_a       10.663
_cell_length_b       11.09
_cell_length_c       14.718
_cell_angle_alpha    106.88
_cell_angle_beta     95.76
_cell_angle_gamma    112.99

_symmetry_space_group_name_H-M    "P 1"
_symmetry_int_tables_number       1

loop_
  _symmetry_equiv_pos_as_xyz
  'x, y, z'

loop_
  _atom_site_label
  _atom_site_occupancy
  _atom_site_fract_x
  _atom_site_fract_y
  _atom_site_fract_z
  _atom_site_thermal_displace_type
  _atom_site_B_iso_or_equiv
  _atom_site_type_symbol
  U1       1.0000 0.60813  0.83075  0.88942  Biso   1.000  U
  U2       1.0000 0.34101  0.35138  0.50982  Biso   1.000  U
  O1       1.0000 0.64740  0.63590  0.78800  Biso   1.000  O
  O2       1.0000 0.57320  0.61220  0.91810  Biso   1.000  O
  C1       1.0000 0.60980  0.56560  0.84340  Biso   1.000  C
  C2       1.0000 0.61000  0.42150  0.81520  Biso   1.000  C
  C3       1.0000 0.65700  0.37630  0.73260  Biso   1.000  C
  H1       1.0000 0.68490  0.43120  0.69440  Biso   1.000  H
  C4       1.0000 0.66100  0.24990  0.70910  Biso   1.000  C
  C5       1.0000 0.62620  0.16670  0.76670  Biso   1.000  C
  H2       1.0000 0.63210  0.08180  0.74970  Biso   1.000  H
  C6       1.0000 0.58240  0.21500  0.85040  Biso   1.000  C
  C7       1.0000 0.57380  0.34320  0.87300  Biso   1.000  C
  H3       1.0000 0.54310  0.37500  0.92810  Biso   1.000  H
  C8       1.0000 0.55150  0.13330  0.91570  Biso   1.000  C
  O3       1.0000 0.46860  0.14980  0.96840  Biso   1.000  O
  O4       1.0000 0.60420  0.04900  0.91360  Biso   1.000  O
  N1       1.0000 0.70090  0.19670  0.61890  Biso   1.000  N
  O5       1.0000 0.68470  0.07370  0.59160  Biso   1.000  O
  O6       1.0000 0.75030  0.27590  0.57560  Biso   1.000  O
  O7       1.0000 0.69910  0.89570  0.76400  Biso   1.000  O
  O8       1.0000 0.78680  0.83640  0.63670  Biso   1.000  O
  C9       1.0000 0.78990  0.92510  0.71530  Biso   1.000  C
  C10      1.0000 0.90970  0.06690  0.75100  Biso   1.000  C
  C11      1.0000 0.93990  0.16170  0.84650  Biso   1.000  C
  H4       1.0000 0.88400  0.13810  0.88900  Biso   1.000  H
  C12      1.0000 0.05490  0.29070  0.87540  Biso   1.000  C
  C13      1.0000 0.14140  0.33140  0.81650  Biso   1.000  C
  H5       1.0000 0.21980  0.41810  0.83950  Biso   1.000  H
  C14      1.0000 0.10810  0.23780  0.72010  Biso   1.000  C
  C15      1.0000 0.99370  0.10960  0.68810  Biso   1.000  C
  H6       1.0000 0.97120  0.04960  0.62360  Biso   1.000  H
  C16      1.0000 0.19450  0.27950  0.65000  Biso   1.000  C
  O9       1.0000 0.14880  0.19800  0.56050  Biso   1.000  O
  O10      1.0000 0.30690  0.39110  0.67910  Biso   1.000  O
  N2       1.0000 0.08510  0.39010  0.97570  Biso   1.000  N
  O11      1.0000 0.15100  0.51760  0.99010  Biso   1.000  O
  O12      1.0000 0.04440  0.34540  0.03880  Biso   1.000  O
  O13      1.0000 0.52100  0.57320  0.59590  Biso   1.000  O
  H7       1.0000 0.56900  0.57140  0.64120  Biso   1.000  H
  H8       1.0000 0.48900  0.62680  0.61740  Biso   1.000  H
  U3       1.0000 0.39187  0.16925  0.11058  Biso   1.000  U
  U4       1.0000 0.65899  0.64862  0.49018  Biso   1.000  U
  O14      1.0000 0.35260  0.36410  0.21200  Biso   1.000  O
  O15      1.0000 0.42680  0.38780  0.08190  Biso   1.000  O
  C17      1.0000 0.39020  0.43440  0.15660  Biso   1.000  C
  C18      1.0000 0.39000  0.57850  0.18480  Biso   1.000  C
  C19      1.0000 0.34300  0.62370  0.26740  Biso   1.000  C
  H9       1.0000 0.31510  0.56880  0.30560  Biso   1.000  H
  C20      1.0000 0.33900  0.75010  0.29090  Biso   1.000  C
  C21      1.0000 0.37380  0.83330  0.23330  Biso   1.000  C
  H10      1.0000 0.36790  0.91820  0.25030  Biso   1.000  H
  C22      1.0000 0.41760  0.78500  0.14960  Biso   1.000  C
  C23      1.0000 0.42620  0.65680  0.12700  Biso   1.000  C
  H11      1.0000 0.45690  0.62500  0.07190  Biso   1.000  H
  C24      1.0000 0.44850  0.86670  0.08430  Biso   1.000  C
  O16      1.0000 0.53140  0.85020  0.03160  Biso   1.000  O
  O17      1.0000 0.39580  0.95100  0.08640  Biso   1.000  O
  N3       1.0000 0.29910  0.80330  0.38110  Biso   1.000  N
  O18      1.0000 0.31530  0.92630  0.40840  Biso   1.000  O
  O19      1.0000 0.24970  0.72410  0.42440  Biso   1.000  O
  O20      1.0000 0.30090  0.10430  0.23600  Biso   1.000  O
  O21      1.0000 0.21320  0.16360  0.36330  Biso   1.000  O
  C25      1.0000 0.21010  0.07490  0.28470  Biso   1.000  C
  C26      1.0000 0.09030  0.93310  0.24900  Biso   1.000  C
  C27      1.0000 0.06010  0.83830  0.15350  Biso   1.000  C
  H12      1.0000 0.11600  0.86190  0.11100  Biso   1.000  H
  C28      1.0000 0.94510  0.70930  0.12460  Biso   1.000  C
  C29      1.0000 0.85860  0.66860  0.18350  Biso   1.000  C
  H13      1.0000 0.78020  0.58190  0.16050  Biso   1.000  H
  C30      1.0000 0.89190  0.76220  0.27990  Biso   1.000  C
  C31      1.0000 0.00630  0.89040  0.31190  Biso   1.000  C
  H14      1.0000 0.02880  0.95040  0.37640  Biso   1.000  H
  C32      1.0000 0.80550  0.72050  0.35000  Biso   1.000  C
  O22      1.0000 0.85120  0.80200  0.43950  Biso   1.000  O
  O23      1.0000 0.69310  0.60890  0.32090  Biso   1.000  O
  N4       1.0000 0.91490  0.60990  0.02430  Biso   1.000  N
  O24      1.0000 0.84900  0.48240  0.00990  Biso   1.000  O
  O25      1.0000 0.95560  0.65460  0.96120  Biso   1.000  O
  O26      1.0000 0.47900  0.42680  0.40410  Biso   1.000  O
  H15      1.0000 0.43100  0.42860  0.35880  Biso   1.000  H
  H16      1.0000 0.51100  0.37320  0.38260  Biso   1.000  H
