data_XOFTIW_clean
_audit_creation_date              2014-07-02
_audit_creation_method            'Materials Studio'
_symmetry_space_group_name_H-M    'P1'
_symmetry_Int_Tables_number       1
_symmetry_cell_setting            triclinic
loop_
_symmetry_equiv_pos_as_xyz
  x,y,z
_cell_length_a                    7.1054
_cell_length_b                    18.2419
_cell_length_c                    24.9477
_cell_angle_alpha                 90.0000
_cell_angle_beta                  90.0000
_cell_angle_gamma                 99.5220
loop_
_atom_site_label
_atom_site_type_symbol
_atom_site_fract_x
_atom_site_fract_y
_atom_site_fract_z
_atom_site_U_iso_or_equiv
_atom_site_adp_type
_atom_site_occupancy
Ce1    Ce    0.77882   0.98380   0.59859   0.01267  Uiso   1.00
Ce2    Ce    0.22118   0.01620   0.09859   0.01267  Uiso   1.00
Ce3    Ce    0.22118   0.01620   0.40141   0.01267  Uiso   1.00
Ce4    Ce    0.77882   0.98380   0.90141   0.01267  Uiso   1.00
Cu1    Cu    0.25102   0.55361   0.68316   0.01267  Uiso   1.00
Cu2    Cu    0.17371   0.43896   0.58014   0.01267  Uiso   1.00
Cu3    Cu    0.37816   0.54422   0.49231   0.01267  Uiso   1.00
Cu4    Cu    0.74898   0.44639   0.18316   0.01267  Uiso   1.00
Cu5    Cu    0.82629   0.56104   0.08014   0.01267  Uiso   1.00
Cu6    Cu    0.62184   0.45578   0.99231   0.01267  Uiso   1.00
Cu7    Cu    0.74898   0.44639   0.31684   0.01267  Uiso   1.00
Cu8    Cu    0.82629   0.56104   0.41986   0.01267  Uiso   1.00
Cu9    Cu    0.62184   0.45578   0.50769   0.01267  Uiso   1.00
Cu10   Cu    0.25102   0.55361   0.81684   0.01267  Uiso   1.00
Cu11   Cu    0.17371   0.43896   0.91986   0.01267  Uiso   1.00
Cu12   Cu    0.37816   0.54422   0.00769   0.01267  Uiso   1.00
Cu13   Cu    0.23017   0.43386   0.75000   0.01267  Uiso   1.00
Cu14   Cu    0.76983   0.56614   0.25000   0.01267  Uiso   1.00
H1     H     0.29890   0.82730   0.65900   0.01267  Uiso   1.00
H2     H     0.40490   0.71720   0.67470   0.01267  Uiso   1.00
H3     H     0.89410   0.60610   0.65570   0.01267  Uiso   1.00
H4     H     0.77480   0.71300   0.63980   0.01267  Uiso   1.00
H5     H     0.19420   0.21720   0.46540   0.01267  Uiso   1.00
H6     H     0.19370   0.33990   0.48530   0.01267  Uiso   1.00
H7     H     0.11260   0.29340   0.63660   0.01267  Uiso   1.00
H8     H     0.09990   0.16920   0.62030   0.01267  Uiso   1.00
H9     H     0.69480   0.19550   0.47300   0.01267  Uiso   1.00
H10    H     0.67950   0.31770   0.45430   0.01267  Uiso   1.00
H11    H     0.58800   0.35820   0.60430   0.01267  Uiso   1.00
H12    H     0.61000   0.23840   0.62770   0.01267  Uiso   1.00
H13    H     0.70110   0.17270   0.15900   0.01267  Uiso   1.00
H14    H     0.59510   0.28280   0.17470   0.01267  Uiso   1.00
H15    H     0.10590   0.39390   0.15570   0.01267  Uiso   1.00
H16    H     0.22520   0.28700   0.13980   0.01267  Uiso   1.00
H17    H     0.80580   0.78280   0.96540   0.01267  Uiso   1.00
H18    H     0.80630   0.66010   0.98530   0.01267  Uiso   1.00
H19    H     0.88740   0.70660   0.13660   0.01267  Uiso   1.00
H20    H     0.90010   0.83080   0.12030   0.01267  Uiso   1.00
H21    H     0.30520   0.80450   0.97300   0.01267  Uiso   1.00
H22    H     0.32050   0.68230   0.95430   0.01267  Uiso   1.00
H23    H     0.41200   0.64180   0.10430   0.01267  Uiso   1.00
H24    H     0.39000   0.76160   0.12770   0.01267  Uiso   1.00
H25    H     0.70110   0.17270   0.34100   0.01267  Uiso   1.00
H26    H     0.59510   0.28280   0.32530   0.01267  Uiso   1.00
H27    H     0.10590   0.39390   0.34430   0.01267  Uiso   1.00
H28    H     0.22520   0.28700   0.36020   0.01267  Uiso   1.00
H29    H     0.80580   0.78280   0.53460   0.01267  Uiso   1.00
H30    H     0.80630   0.66010   0.51470   0.01267  Uiso   1.00
H31    H     0.88740   0.70660   0.36340   0.01267  Uiso   1.00
H32    H     0.90010   0.83080   0.37970   0.01267  Uiso   1.00
H33    H     0.30520   0.80450   0.52700   0.01267  Uiso   1.00
H34    H     0.32050   0.68230   0.54570   0.01267  Uiso   1.00
H35    H     0.41200   0.64180   0.39570   0.01267  Uiso   1.00
H36    H     0.39000   0.76160   0.37230   0.01267  Uiso   1.00
H37    H     0.29890   0.82730   0.84100   0.01267  Uiso   1.00
H38    H     0.40490   0.71720   0.82530   0.01267  Uiso   1.00
H39    H     0.89410   0.60610   0.84430   0.01267  Uiso   1.00
H40    H     0.77480   0.71300   0.86020   0.01267  Uiso   1.00
H41    H     0.19420   0.21720   0.03460   0.01267  Uiso   1.00
H42    H     0.19370   0.33990   0.01470   0.01267  Uiso   1.00
H43    H     0.11260   0.29340   0.86340   0.01267  Uiso   1.00
H44    H     0.09990   0.16920   0.87970   0.01267  Uiso   1.00
H45    H     0.69480   0.19550   0.02700   0.01267  Uiso   1.00
H46    H     0.67950   0.31770   0.04570   0.01267  Uiso   1.00
H47    H     0.58800   0.35820   0.89570   0.01267  Uiso   1.00
H48    H     0.61000   0.23840   0.87230   0.01267  Uiso   1.00
H49    H     0.76540   0.29120   0.75000   0.01267  Uiso   1.00
H50    H     0.61730   0.39270   0.75000   0.01267  Uiso   1.00
H51    H     0.11960   0.26670   0.75000   0.01267  Uiso   1.00
H52    H     0.25700   0.16200   0.75000   0.01267  Uiso   1.00
H53    H     0.23460   0.70880   0.25000   0.01267  Uiso   1.00
H54    H     0.38270   0.60730   0.25000   0.01267  Uiso   1.00
H55    H     0.88040   0.73330   0.25000   0.01267  Uiso   1.00
H56    H     0.74300   0.83800   0.25000   0.01267  Uiso   1.00
C1     C     0.94650   0.85420   0.63760   0.01267  Uiso   1.00
C2     C     0.02420   0.78300   0.64860   0.01267  Uiso   1.00
C3     C     0.21310   0.78290   0.65850   0.01267  Uiso   1.00
C4     C     0.27590   0.71620   0.66780   0.01267  Uiso   1.00
C5     C     0.97690   0.65130   0.65670   0.01267  Uiso   1.00
C6     C     0.90390   0.71520   0.64720   0.01267  Uiso   1.00
C7     C     0.14410   0.09760   0.52840   0.01267  Uiso   1.00
C8     C     0.14690   0.17890   0.54057   0.01267  Uiso   1.00
C9     C     0.17560   0.23130   0.50050   0.01267  Uiso   1.00
C10    C     0.17650   0.30510   0.51290   0.01267  Uiso   1.00
C11    C     0.12740   0.27780   0.60160   0.01267  Uiso   1.00
C12    C     0.12120   0.20310   0.59220   0.01267  Uiso   1.00
C13    C     0.67250   0.12460   0.56710   0.01267  Uiso   1.00
C14    C     0.65390   0.20310   0.55240   0.01267  Uiso   1.00
C15    C     0.67380   0.22780   0.50040   0.01267  Uiso   1.00
C16    C     0.66230   0.30100   0.48940   0.01267  Uiso   1.00
C17    C     0.60980   0.32500   0.57770   0.01267  Uiso   1.00
C18    C     0.62240   0.25320   0.59200   0.01267  Uiso   1.00
C19    C     0.05350   0.14580   0.13760   0.01267  Uiso   1.00
C20    C     0.97580   0.21700   0.14860   0.01267  Uiso   1.00
C21    C     0.78690   0.21710   0.15850   0.01267  Uiso   1.00
C22    C     0.72410   0.28380   0.16780   0.01267  Uiso   1.00
C23    C     0.02310   0.34870   0.15670   0.01267  Uiso   1.00
C24    C     0.09610   0.28480   0.14720   0.01267  Uiso   1.00
C25    C     0.85590   0.90240   0.02840   0.01267  Uiso   1.00
C26    C     0.85310   0.82110   0.04057   0.01267  Uiso   1.00
C27    C     0.82440   0.76870   0.00050   0.01267  Uiso   1.00
C28    C     0.82350   0.69490   0.01290   0.01267  Uiso   1.00
C29    C     0.87260   0.72220   0.10160   0.01267  Uiso   1.00
C30    C     0.87880   0.79690   0.09220   0.01267  Uiso   1.00
C31    C     0.32750   0.87540   0.06710   0.01267  Uiso   1.00
C32    C     0.34610   0.79690   0.05240   0.01267  Uiso   1.00
C33    C     0.32620   0.77220   0.00040   0.01267  Uiso   1.00
C34    C     0.33770   0.69900   0.98940   0.01267  Uiso   1.00
C35    C     0.39020   0.67500   0.07770   0.01267  Uiso   1.00
C36    C     0.37760   0.74680   0.09200   0.01267  Uiso   1.00
C37    C     0.05350   0.14580   0.36240   0.01267  Uiso   1.00
C38    C     0.97580   0.21700   0.35140   0.01267  Uiso   1.00
C39    C     0.78690   0.21710   0.34150   0.01267  Uiso   1.00
C40    C     0.72410   0.28380   0.33220   0.01267  Uiso   1.00
C41    C     0.02310   0.34870   0.34330   0.01267  Uiso   1.00
C42    C     0.09610   0.28480   0.35280   0.01267  Uiso   1.00
C43    C     0.85590   0.90240   0.47160   0.01267  Uiso   1.00
C44    C     0.85310   0.82110   0.45943   0.01267  Uiso   1.00
C45    C     0.82440   0.76870   0.49950   0.01267  Uiso   1.00
C46    C     0.82350   0.69490   0.48710   0.01267  Uiso   1.00
C47    C     0.87260   0.72220   0.39840   0.01267  Uiso   1.00
C48    C     0.87880   0.79690   0.40780   0.01267  Uiso   1.00
C49    C     0.32750   0.87540   0.43290   0.01267  Uiso   1.00
C50    C     0.34610   0.79690   0.44760   0.01267  Uiso   1.00
C51    C     0.32620   0.77220   0.49960   0.01267  Uiso   1.00
C52    C     0.33770   0.69900   0.51060   0.01267  Uiso   1.00
C53    C     0.39020   0.67500   0.42230   0.01267  Uiso   1.00
C54    C     0.37760   0.74680   0.40800   0.01267  Uiso   1.00
C55    C     0.94650   0.85420   0.86240   0.01267  Uiso   1.00
C56    C     0.02420   0.78300   0.85140   0.01267  Uiso   1.00
C57    C     0.21310   0.78290   0.84150   0.01267  Uiso   1.00
C58    C     0.27590   0.71620   0.83220   0.01267  Uiso   1.00
C59    C     0.97690   0.65130   0.84330   0.01267  Uiso   1.00
C60    C     0.90390   0.71520   0.85280   0.01267  Uiso   1.00
C61    C     0.14410   0.09760   0.97160   0.01267  Uiso   1.00
C62    C     0.14690   0.17890   0.95943   0.01267  Uiso   1.00
C63    C     0.17560   0.23130   0.99950   0.01267  Uiso   1.00
C64    C     0.17650   0.30510   0.98710   0.01267  Uiso   1.00
C65    C     0.12740   0.27780   0.89840   0.01267  Uiso   1.00
C66    C     0.12120   0.20310   0.90780   0.01267  Uiso   1.00
C67    C     0.67250   0.12460   0.93290   0.01267  Uiso   1.00
C68    C     0.65390   0.20310   0.94760   0.01267  Uiso   1.00
C69    C     0.67380   0.22780   0.99960   0.01267  Uiso   1.00
C70    C     0.66230   0.30100   0.01060   0.01267  Uiso   1.00
C71    C     0.60980   0.32500   0.92230   0.01267  Uiso   1.00
C72    C     0.62240   0.25320   0.90800   0.01267  Uiso   1.00
C73    C     0.63010   0.14550   0.75000   0.01267  Uiso   1.00
C74    C     0.52910   0.21340   0.75000   0.01267  Uiso   1.00
C75    C     0.63280   0.28460   0.75000   0.01267  Uiso   1.00
C76    C     0.54290   0.34570   0.75000   0.01267  Uiso   1.00
C77    C     0.25210   0.27210   0.75000   0.01267  Uiso   1.00
C78    C     0.33420   0.20840   0.75000   0.01267  Uiso   1.00
C79    C     0.36990   0.85450   0.25000   0.01267  Uiso   1.00
C80    C     0.47090   0.78660   0.25000   0.01267  Uiso   1.00
C81    C     0.36720   0.71540   0.25000   0.01267  Uiso   1.00
C82    C     0.45710   0.65430   0.25000   0.01267  Uiso   1.00
C83    C     0.74790   0.72790   0.25000   0.01267  Uiso   1.00
C84    C     0.66580   0.79160   0.25000   0.01267  Uiso   1.00
I1     I     0.98170   0.44286   0.67015   0.01267  Uiso   1.00
I2     I     0.50922   0.52958   0.58924   0.01267  Uiso   1.00
I3     I     0.01830   0.55714   0.17015   0.01267  Uiso   1.00
I4     I     0.49078   0.47042   0.08924   0.01267  Uiso   1.00
I5     I     0.01830   0.55714   0.32985   0.01267  Uiso   1.00
I6     I     0.49078   0.47042   0.41076   0.01267  Uiso   1.00
I7     I     0.98170   0.44286   0.82985   0.01267  Uiso   1.00
I8     I     0.50922   0.52958   0.91076   0.01267  Uiso   1.00
I9     I     0.52523   0.55811   0.75000   0.01267  Uiso   1.00
I10    I     0.47477   0.44189   0.25000   0.01267  Uiso   1.00
I11    I     0.00000   0.50000   0.50000   0.01267  Uiso   1.00
I12    I     0.00000   0.50000   0.00000   0.01267  Uiso   1.00
N1     N     0.16160   0.65070   0.66740   0.01267  Uiso   1.00
N2     N     0.15360   0.32880   0.56290   0.01267  Uiso   1.00
N3     N     0.62750   0.34900   0.52728   0.01267  Uiso   1.00
N4     N     0.83840   0.34930   0.16740   0.01267  Uiso   1.00
N5     N     0.84640   0.67120   0.06290   0.01267  Uiso   1.00
N6     N     0.37250   0.65100   0.02728   0.01267  Uiso   1.00
N7     N     0.83840   0.34930   0.33260   0.01267  Uiso   1.00
N8     N     0.84640   0.67120   0.43710   0.01267  Uiso   1.00
N9     N     0.37250   0.65100   0.47272   0.01267  Uiso   1.00
N10    N     0.16160   0.65070   0.83260   0.01267  Uiso   1.00
N11    N     0.15360   0.32880   0.93710   0.01267  Uiso   1.00
N12    N     0.62750   0.34900   0.97272   0.01267  Uiso   1.00
N13    N     0.35200   0.34050   0.75000   0.01267  Uiso   1.00
N14    N     0.64800   0.65950   0.25000   0.01267  Uiso   1.00
O1     O     0.05970   0.91280   0.62970   0.01267  Uiso   1.00
O2     O     0.76930   0.85080   0.63590   0.01267  Uiso   1.00
O3     O     0.20920   0.08310   0.48348   0.01267  Uiso   1.00
O4     O     0.07930   0.05058   0.56302   0.01267  Uiso   1.00
O5     O     0.69880   0.08011   0.53045   0.01267  Uiso   1.00
O6     O     0.66650   0.10680   0.61552   0.01267  Uiso   1.00
O7     O     0.94030   0.08720   0.12970   0.01267  Uiso   1.00
O8     O     0.23070   0.14920   0.13590   0.01267  Uiso   1.00
O9     O     0.79080   0.91690   0.98348   0.01267  Uiso   1.00
O10    O     0.92070   0.94942   0.06302   0.01267  Uiso   1.00
O11    O     0.30120   0.91989   0.03045   0.01267  Uiso   1.00
O12    O     0.33350   0.89320   0.11552   0.01267  Uiso   1.00
O13    O     0.94030   0.08720   0.37030   0.01267  Uiso   1.00
O14    O     0.23070   0.14920   0.36410   0.01267  Uiso   1.00
O15    O     0.79080   0.91690   0.51652   0.01267  Uiso   1.00
O16    O     0.92070   0.94942   0.43698   0.01267  Uiso   1.00
O17    O     0.30120   0.91989   0.46955   0.01267  Uiso   1.00
O18    O     0.33350   0.89320   0.38448   0.01267  Uiso   1.00
O19    O     0.05970   0.91280   0.87030   0.01267  Uiso   1.00
O20    O     0.76930   0.85080   0.86410   0.01267  Uiso   1.00
O21    O     0.20920   0.08310   0.01652   0.01267  Uiso   1.00
O22    O     0.07930   0.05058   0.93698   0.01267  Uiso   1.00
O23    O     0.69880   0.08011   0.96955   0.01267  Uiso   1.00
O24    O     0.66650   0.10680   0.88448   0.01267  Uiso   1.00
O25    O     0.80500   0.15530   0.75000   0.01267  Uiso   1.00
O26    O     0.52540   0.08360   0.75000   0.01267  Uiso   1.00
O27    O     0.19500   0.84470   0.25000   0.01267  Uiso   1.00
O28    O     0.47460   0.91640   0.25000   0.01267  Uiso   1.00
