data_XOFTOC_clean
_audit_creation_date              2014-07-02
_audit_creation_method            'Materials Studio'
_symmetry_space_group_name_H-M    'P1'
_symmetry_Int_Tables_number       1
_symmetry_cell_setting            triclinic
loop_
_symmetry_equiv_pos_as_xyz
  x,y,z
_cell_length_a                    7.0807
_cell_length_b                    18.1874
_cell_length_c                    24.8237
_cell_angle_alpha                 90.0000
_cell_angle_beta                  90.0000
_cell_angle_gamma                 99.0220
loop_
_atom_site_label
_atom_site_type_symbol
_atom_site_fract_x
_atom_site_fract_y
_atom_site_fract_z
_atom_site_U_iso_or_equiv
_atom_site_adp_type
_atom_site_occupancy
Sm1    Sm    0.78245   0.98433   0.59738   0.01267  Uiso   1.00
Sm2    Sm    0.21755   0.01567   0.09738   0.01267  Uiso   1.00
Sm3    Sm    0.21755   0.01567   0.40262   0.01267  Uiso   1.00
Sm4    Sm    0.78245   0.98433   0.90262   0.01267  Uiso   1.00
Cu1    Cu    0.24945   0.55362   0.68351   0.01267  Uiso   1.00
Cu2    Cu    0.17511   0.43904   0.58043   0.01267  Uiso   1.00
Cu3    Cu    0.37790   0.54483   0.49216   0.01267  Uiso   1.00
Cu4    Cu    0.75055   0.44638   0.18351   0.01267  Uiso   1.00
Cu5    Cu    0.82489   0.56096   0.08043   0.01267  Uiso   1.00
Cu6    Cu    0.62210   0.45517   0.99216   0.01267  Uiso   1.00
Cu7    Cu    0.75055   0.44638   0.31649   0.01267  Uiso   1.00
Cu8    Cu    0.82489   0.56096   0.41957   0.01267  Uiso   1.00
Cu9    Cu    0.62210   0.45517   0.50784   0.01267  Uiso   1.00
Cu10   Cu    0.24945   0.55362   0.81649   0.01267  Uiso   1.00
Cu11   Cu    0.17511   0.43904   0.91957   0.01267  Uiso   1.00
Cu12   Cu    0.37790   0.54483   0.00784   0.01267  Uiso   1.00
Cu13   Cu    0.23019   0.43285   0.75000   0.01267  Uiso   1.00
Cu14   Cu    0.76981   0.56715   0.25000   0.01267  Uiso   1.00
H1     H     0.30010   0.82860   0.65830   0.01267  Uiso   1.00
H2     H     0.40530   0.71690   0.67470   0.01267  Uiso   1.00
H3     H     0.89260   0.60820   0.65590   0.01267  Uiso   1.00
H4     H     0.77430   0.71520   0.63990   0.01267  Uiso   1.00
H5     H     0.19700   0.21710   0.46510   0.01267  Uiso   1.00
H6     H     0.19680   0.33950   0.48530   0.01267  Uiso   1.00
H7     H     0.11210   0.29300   0.63630   0.01267  Uiso   1.00
H8     H     0.10040   0.16880   0.62100   0.01267  Uiso   1.00
H9     H     0.69760   0.19400   0.47240   0.01267  Uiso   1.00
H10    H     0.68080   0.31650   0.45370   0.01267  Uiso   1.00
H11    H     0.58740   0.35680   0.60430   0.01267  Uiso   1.00
H12    H     0.61250   0.23680   0.62760   0.01267  Uiso   1.00
H13    H     0.69990   0.17140   0.15830   0.01267  Uiso   1.00
H14    H     0.59470   0.28310   0.17470   0.01267  Uiso   1.00
H15    H     0.10740   0.39180   0.15590   0.01267  Uiso   1.00
H16    H     0.22570   0.28480   0.13990   0.01267  Uiso   1.00
H17    H     0.80300   0.78290   0.96510   0.01267  Uiso   1.00
H18    H     0.80320   0.66050   0.98530   0.01267  Uiso   1.00
H19    H     0.88790   0.70700   0.13630   0.01267  Uiso   1.00
H20    H     0.89960   0.83120   0.12100   0.01267  Uiso   1.00
H21    H     0.30240   0.80600   0.97240   0.01267  Uiso   1.00
H22    H     0.31920   0.68350   0.95370   0.01267  Uiso   1.00
H23    H     0.41260   0.64320   0.10430   0.01267  Uiso   1.00
H24    H     0.38750   0.76320   0.12760   0.01267  Uiso   1.00
H25    H     0.69990   0.17140   0.34170   0.01267  Uiso   1.00
H26    H     0.59470   0.28310   0.32530   0.01267  Uiso   1.00
H27    H     0.10740   0.39180   0.34410   0.01267  Uiso   1.00
H28    H     0.22570   0.28480   0.36010   0.01267  Uiso   1.00
H29    H     0.80300   0.78290   0.53490   0.01267  Uiso   1.00
H30    H     0.80320   0.66050   0.51470   0.01267  Uiso   1.00
H31    H     0.88790   0.70700   0.36370   0.01267  Uiso   1.00
H32    H     0.89960   0.83120   0.37900   0.01267  Uiso   1.00
H33    H     0.30240   0.80600   0.52760   0.01267  Uiso   1.00
H34    H     0.31920   0.68350   0.54630   0.01267  Uiso   1.00
H35    H     0.41260   0.64320   0.39570   0.01267  Uiso   1.00
H36    H     0.38750   0.76320   0.37240   0.01267  Uiso   1.00
H37    H     0.30010   0.82860   0.84170   0.01267  Uiso   1.00
H38    H     0.40530   0.71690   0.82530   0.01267  Uiso   1.00
H39    H     0.89260   0.60820   0.84410   0.01267  Uiso   1.00
H40    H     0.77430   0.71520   0.86010   0.01267  Uiso   1.00
H41    H     0.19700   0.21710   0.03490   0.01267  Uiso   1.00
H42    H     0.19680   0.33950   0.01470   0.01267  Uiso   1.00
H43    H     0.11210   0.29300   0.86370   0.01267  Uiso   1.00
H44    H     0.10040   0.16880   0.87900   0.01267  Uiso   1.00
H45    H     0.69760   0.19400   0.02760   0.01267  Uiso   1.00
H46    H     0.68080   0.31650   0.04630   0.01267  Uiso   1.00
H47    H     0.58740   0.35680   0.89570   0.01267  Uiso   1.00
H48    H     0.61250   0.23680   0.87240   0.01267  Uiso   1.00
H49    H     0.77030   0.28940   0.75000   0.01267  Uiso   1.00
H50    H     0.61730   0.39130   0.75000   0.01267  Uiso   1.00
H51    H     0.12130   0.26510   0.75000   0.01267  Uiso   1.00
H52    H     0.26100   0.16010   0.75000   0.01267  Uiso   1.00
H53    H     0.22970   0.71060   0.25000   0.01267  Uiso   1.00
H54    H     0.38270   0.60870   0.25000   0.01267  Uiso   1.00
H55    H     0.87870   0.73490   0.25000   0.01267  Uiso   1.00
H56    H     0.73900   0.83990   0.25000   0.01267  Uiso   1.00
C1     C     0.94710   0.85620   0.63550   0.01267  Uiso   1.00
C2     C     0.02460   0.78510   0.64780   0.01267  Uiso   1.00
C3     C     0.21390   0.78440   0.65790   0.01267  Uiso   1.00
C4     C     0.27610   0.71660   0.66770   0.01267  Uiso   1.00
C5     C     0.97620   0.65300   0.65680   0.01267  Uiso   1.00
C6     C     0.90390   0.71710   0.64700   0.01267  Uiso   1.00
C7     C     0.14050   0.09650   0.52750   0.01267  Uiso   1.00
C8     C     0.14550   0.17780   0.54050   0.01267  Uiso   1.00
C9     C     0.17700   0.23100   0.50040   0.01267  Uiso   1.00
C10    C     0.17880   0.30470   0.51300   0.01267  Uiso   1.00
C11    C     0.12810   0.27740   0.60120   0.01267  Uiso   1.00
C12    C     0.12110   0.20240   0.59250   0.01267  Uiso   1.00
C13    C     0.67360   0.12250   0.56690   0.01267  Uiso   1.00
C14    C     0.65460   0.20130   0.55210   0.01267  Uiso   1.00
C15    C     0.67570   0.22620   0.50000   0.01267  Uiso   1.00
C16    C     0.66400   0.29970   0.48900   0.01267  Uiso   1.00
C17    C     0.61060   0.32370   0.57750   0.01267  Uiso   1.00
C18    C     0.62390   0.25150   0.59180   0.01267  Uiso   1.00
C19    C     0.05290   0.14380   0.13550   0.01267  Uiso   1.00
C20    C     0.97540   0.21490   0.14780   0.01267  Uiso   1.00
C21    C     0.78610   0.21560   0.15790   0.01267  Uiso   1.00
C22    C     0.72390   0.28340   0.16770   0.01267  Uiso   1.00
C23    C     0.02380   0.34700   0.15680   0.01267  Uiso   1.00
C24    C     0.09610   0.28290   0.14700   0.01267  Uiso   1.00
C25    C     0.85950   0.90350   0.02750   0.01267  Uiso   1.00
C26    C     0.85450   0.82220   0.04050   0.01267  Uiso   1.00
C27    C     0.82300   0.76900   0.00040   0.01267  Uiso   1.00
C28    C     0.82120   0.69530   0.01300   0.01267  Uiso   1.00
C29    C     0.87190   0.72260   0.10120   0.01267  Uiso   1.00
C30    C     0.87890   0.79760   0.09250   0.01267  Uiso   1.00
C31    C     0.32640   0.87750   0.06690   0.01267  Uiso   1.00
C32    C     0.34540   0.79870   0.05210   0.01267  Uiso   1.00
C33    C     0.32430   0.77380   0.00000   0.01267  Uiso   1.00
C34    C     0.33600   0.70030   0.98900   0.01267  Uiso   1.00
C35    C     0.38940   0.67630   0.07750   0.01267  Uiso   1.00
C36    C     0.37610   0.74850   0.09180   0.01267  Uiso   1.00
C37    C     0.05290   0.14380   0.36450   0.01267  Uiso   1.00
C38    C     0.97540   0.21490   0.35220   0.01267  Uiso   1.00
C39    C     0.78610   0.21560   0.34210   0.01267  Uiso   1.00
C40    C     0.72390   0.28340   0.33230   0.01267  Uiso   1.00
C41    C     0.02380   0.34700   0.34320   0.01267  Uiso   1.00
C42    C     0.09610   0.28290   0.35300   0.01267  Uiso   1.00
C43    C     0.85950   0.90350   0.47250   0.01267  Uiso   1.00
C44    C     0.85450   0.82220   0.45950   0.01267  Uiso   1.00
C45    C     0.82300   0.76900   0.49960   0.01267  Uiso   1.00
C46    C     0.82120   0.69530   0.48700   0.01267  Uiso   1.00
C47    C     0.87190   0.72260   0.39880   0.01267  Uiso   1.00
C48    C     0.87890   0.79760   0.40750   0.01267  Uiso   1.00
C49    C     0.32640   0.87750   0.43310   0.01267  Uiso   1.00
C50    C     0.34540   0.79870   0.44790   0.01267  Uiso   1.00
C51    C     0.32430   0.77380   0.50000   0.01267  Uiso   1.00
C52    C     0.33600   0.70030   0.51100   0.01267  Uiso   1.00
C53    C     0.38940   0.67630   0.42250   0.01267  Uiso   1.00
C54    C     0.37610   0.74850   0.40820   0.01267  Uiso   1.00
C55    C     0.94710   0.85620   0.86450   0.01267  Uiso   1.00
C56    C     0.02460   0.78510   0.85220   0.01267  Uiso   1.00
C57    C     0.21390   0.78440   0.84210   0.01267  Uiso   1.00
C58    C     0.27610   0.71660   0.83230   0.01267  Uiso   1.00
C59    C     0.97620   0.65300   0.84320   0.01267  Uiso   1.00
C60    C     0.90390   0.71710   0.85300   0.01267  Uiso   1.00
C61    C     0.14050   0.09650   0.97250   0.01267  Uiso   1.00
C62    C     0.14550   0.17780   0.95950   0.01267  Uiso   1.00
C63    C     0.17700   0.23100   0.99960   0.01267  Uiso   1.00
C64    C     0.17880   0.30470   0.98700   0.01267  Uiso   1.00
C65    C     0.12810   0.27740   0.89880   0.01267  Uiso   1.00
C66    C     0.12110   0.20240   0.90750   0.01267  Uiso   1.00
C67    C     0.67360   0.12250   0.93310   0.01267  Uiso   1.00
C68    C     0.65460   0.20130   0.94790   0.01267  Uiso   1.00
C69    C     0.67570   0.22620   0.00000   0.01267  Uiso   1.00
C70    C     0.66400   0.29970   0.01100   0.01267  Uiso   1.00
C71    C     0.61060   0.32370   0.92250   0.01267  Uiso   1.00
C72    C     0.62390   0.25150   0.90820   0.01267  Uiso   1.00
C73    C     0.63620   0.14320   0.75000   0.01267  Uiso   1.00
C74    C     0.53380   0.21220   0.75000   0.01267  Uiso   1.00
C75    C     0.63740   0.28290   0.75000   0.01267  Uiso   1.00
C76    C     0.54430   0.34410   0.75000   0.01267  Uiso   1.00
C77    C     0.25410   0.27050   0.75000   0.01267  Uiso   1.00
C78    C     0.33730   0.20670   0.75000   0.01267  Uiso   1.00
C79    C     0.36380   0.85680   0.25000   0.01267  Uiso   1.00
C80    C     0.46620   0.78780   0.25000   0.01267  Uiso   1.00
C81    C     0.36260   0.71710   0.25000   0.01267  Uiso   1.00
C82    C     0.45570   0.65590   0.25000   0.01267  Uiso   1.00
C83    C     0.74590   0.72950   0.25000   0.01267  Uiso   1.00
C84    C     0.66270   0.79330   0.25000   0.01267  Uiso   1.00
I1     I     0.98055   0.44317   0.67020   0.01267  Uiso   1.00
I2     I     0.50937   0.52974   0.58947   0.01267  Uiso   1.00
I3     I     0.01945   0.55683   0.17020   0.01267  Uiso   1.00
I4     I     0.49063   0.47026   0.08947   0.01267  Uiso   1.00
I5     I     0.01945   0.55683   0.32980   0.01267  Uiso   1.00
I6     I     0.49063   0.47026   0.41053   0.01267  Uiso   1.00
I7     I     0.98055   0.44317   0.82980   0.01267  Uiso   1.00
I8     I     0.50937   0.52974   0.91053   0.01267  Uiso   1.00
I9     I     0.52586   0.55746   0.75000   0.01267  Uiso   1.00
I10    I     0.47414   0.44254   0.25000   0.01267  Uiso   1.00
I11    I     0.00000   0.50000   0.50000   0.01267  Uiso   1.00
I12    I     0.00000   0.50000   0.00000   0.01267  Uiso   1.00
N1     N     0.16050   0.65130   0.66750   0.01267  Uiso   1.00
N2     N     0.15590   0.32880   0.56330   0.01267  Uiso   1.00
N3     N     0.62940   0.34790   0.52720   0.01267  Uiso   1.00
N4     N     0.83950   0.34870   0.16750   0.01267  Uiso   1.00
N5     N     0.84410   0.67120   0.06330   0.01267  Uiso   1.00
N6     N     0.37060   0.65210   0.02720   0.01267  Uiso   1.00
N7     N     0.83950   0.34870   0.33250   0.01267  Uiso   1.00
N8     N     0.84410   0.67120   0.43670   0.01267  Uiso   1.00
N9     N     0.37060   0.65210   0.47280   0.01267  Uiso   1.00
N10    N     0.16050   0.65130   0.83250   0.01267  Uiso   1.00
N11    N     0.15590   0.32880   0.93670   0.01267  Uiso   1.00
N12    N     0.62940   0.34790   0.97280   0.01267  Uiso   1.00
N13    N     0.35140   0.33860   0.75000   0.01267  Uiso   1.00
N14    N     0.64860   0.66140   0.25000   0.01267  Uiso   1.00
O1     O     0.06050   0.91410   0.62630   0.01267  Uiso   1.00
O2     O     0.76900   0.85360   0.63360   0.01267  Uiso   1.00
O3     O     0.20700   0.08170   0.48268   0.01267  Uiso   1.00
O4     O     0.07470   0.04970   0.56224   0.01267  Uiso   1.00
O5     O     0.69790   0.07740   0.52971   0.01267  Uiso   1.00
O6     O     0.67330   0.10430   0.61494   0.01267  Uiso   1.00
O7     O     0.93950   0.08590   0.12630   0.01267  Uiso   1.00
O8     O     0.23100   0.14640   0.13360   0.01267  Uiso   1.00
O9     O     0.79300   0.91830   0.98268   0.01267  Uiso   1.00
O10    O     0.92530   0.95030   0.06224   0.01267  Uiso   1.00
O11    O     0.30210   0.92260   0.02971   0.01267  Uiso   1.00
O12    O     0.32670   0.89570   0.11494   0.01267  Uiso   1.00
O13    O     0.93950   0.08590   0.37370   0.01267  Uiso   1.00
O14    O     0.23100   0.14640   0.36640   0.01267  Uiso   1.00
O15    O     0.79300   0.91830   0.51732   0.01267  Uiso   1.00
O16    O     0.92530   0.95030   0.43776   0.01267  Uiso   1.00
O17    O     0.30210   0.92260   0.47029   0.01267  Uiso   1.00
O18    O     0.32670   0.89570   0.38506   0.01267  Uiso   1.00
O19    O     0.06050   0.91410   0.87370   0.01267  Uiso   1.00
O20    O     0.76900   0.85360   0.86640   0.01267  Uiso   1.00
O21    O     0.20700   0.08170   0.01732   0.01267  Uiso   1.00
O22    O     0.07470   0.04970   0.93776   0.01267  Uiso   1.00
O23    O     0.69790   0.07740   0.97029   0.01267  Uiso   1.00
O24    O     0.67330   0.10430   0.88506   0.01267  Uiso   1.00
O25    O     0.80990   0.15280   0.75000   0.01267  Uiso   1.00
O26    O     0.53140   0.08160   0.75000   0.01267  Uiso   1.00
O27    O     0.19010   0.84720   0.25000   0.01267  Uiso   1.00
O28    O     0.46860   0.91840   0.25000   0.01267  Uiso   1.00
