data_XOGXAU_clean
_audit_creation_date              2015-10-16
_audit_creation_method            'Materials Studio'
_symmetry_space_group_name_H-M    'P1'
_symmetry_Int_Tables_number       1
_symmetry_cell_setting            triclinic
loop_
_symmetry_equiv_pos_as_xyz
  x,y,z
_cell_length_a                    13.9680
_cell_length_b                    14.6110
_cell_length_c                    20.5660
_cell_angle_alpha                 75.2500
_cell_angle_beta                  85.5100
_cell_angle_gamma                 69.0000
loop_
_atom_site_label
_atom_site_type_symbol
_atom_site_fract_x
_atom_site_fract_y
_atom_site_fract_z
_atom_site_U_iso_or_equiv
_atom_site_adp_type
_atom_site_occupancy
Cd1    Cd    0.52981   0.73393   0.04055   0.01267  Uiso   1.00
Cd2    Cd    0.47019   0.26607   0.95945   0.01267  Uiso   1.00
Cd3    Cd    0.99028   0.76043   0.44026   0.01267  Uiso   1.00
Cd4    Cd    0.50000   0.00000   0.00000   0.01267  Uiso   1.00
Cd5    Cd    0.00972   0.23957   0.55974   0.01267  Uiso   1.00
Cd6    Cd    0.00000   0.50000   0.50000   0.01267  Uiso   1.00
H1     H     0.71910   0.13030   0.95270   0.01267  Uiso   1.00
H2     H     0.59800   0.56940   0.55640   0.01267  Uiso   1.00
H3     H     0.62160   0.69300   0.90060   0.01267  Uiso   1.00
H4     H     0.02630   0.71000   0.94600   0.01267  Uiso   1.00
H5     H     0.23680   0.89000   0.85360   0.01267  Uiso   1.00
H6     H     0.91330   0.26200   0.27990   0.01267  Uiso   1.00
H7     H     0.58370   0.67810   0.83560   0.01267  Uiso   1.00
H8     H     0.94020   0.32420   0.77530   0.01267  Uiso   1.00
H9     H     0.96570   0.05000   0.32540   0.01267  Uiso   1.00
H10    H     0.46640   0.82290   0.41580   0.01267  Uiso   1.00
H11    H     0.73430   0.22320   0.66430   0.01267  Uiso   1.00
H12    H     0.70130   0.48950   0.08870   0.01267  Uiso   1.00
H13    H     0.75230   0.46600   0.89920   0.01267  Uiso   1.00
H14    H     0.59770   0.33060   0.27270   0.01267  Uiso   1.00
H15    H     0.68500   0.20650   0.77320   0.01267  Uiso   1.00
H16    H     0.21040   0.84580   0.72900   0.01267  Uiso   1.00
H17    H     0.75390   0.59100   0.53750   0.01267  Uiso   1.00
H18    H     0.09240   0.84870   0.88010   0.01267  Uiso   1.00
H19    H     0.91650   0.06250   0.77230   0.01267  Uiso   1.00
H20    H     0.84740   0.11200   0.59330   0.01267  Uiso   1.00
H21    H     0.64350   0.37610   0.90600   0.01267  Uiso   1.00
H22    H     0.37840   0.30700   0.09940   0.01267  Uiso   1.00
H23    H     0.24610   0.40900   0.46250   0.01267  Uiso   1.00
H24    H     0.41620   0.66200   0.59880   0.01267  Uiso   1.00
H25    H     0.72640   0.98320   0.48660   0.01267  Uiso   1.00
H26    H     0.40200   0.43060   0.44360   0.01267  Uiso   1.00
H27    H     0.07180   0.07130   0.95580   0.01267  Uiso   1.00
H28    H     0.72780   0.37860   0.37550   0.01267  Uiso   1.00
H29    H     0.96640   0.70890   0.63460   0.01267  Uiso   1.00
H30    H     0.38890   0.74290   0.77360   0.01267  Uiso   1.00
H31    H     0.61110   0.25710   0.22640   0.01267  Uiso   1.00
H32    H     0.15260   0.88800   0.40670   0.01267  Uiso   1.00
H33    H     0.82570   0.01890   0.39530   0.01267  Uiso   1.00
H34    H     0.22710   0.09210   0.94100   0.01267  Uiso   1.00
H35    H     0.90760   0.15130   0.11990   0.01267  Uiso   1.00
H36    H     0.13230   0.30850   0.04090   0.01267  Uiso   1.00
H37    H     0.87030   0.04070   0.88350   0.01267  Uiso   1.00
H38    H     0.28090   0.86970   0.04730   0.01267  Uiso   1.00
H39    H     0.24770   0.53400   0.10080   0.01267  Uiso   1.00
H40    H     0.08350   0.93750   0.22770   0.01267  Uiso   1.00
H41    H     0.37800   0.15240   0.60180   0.01267  Uiso   1.00
H42    H     0.06890   0.80740   0.76980   0.01267  Uiso   1.00
H43    H     0.04740   0.10320   0.31620   0.01267  Uiso   1.00
H44    H     0.10950   0.23010   0.42650   0.01267  Uiso   1.00
H45    H     0.35650   0.62390   0.09400   0.01267  Uiso   1.00
H46    H     0.89050   0.76990   0.57350   0.01267  Uiso   1.00
H47    H     0.62200   0.84760   0.39820   0.01267  Uiso   1.00
H48    H     0.29870   0.51050   0.91130   0.01267  Uiso   1.00
H49    H     0.78960   0.15420   0.27100   0.01267  Uiso   1.00
H50    H     0.88500   0.81520   0.63570   0.01267  Uiso   1.00
H51    H     0.97370   0.29000   0.05400   0.01267  Uiso   1.00
H52    H     0.76320   0.11000   0.14640   0.01267  Uiso   1.00
H53    H     0.43350   0.53340   0.82760   0.01267  Uiso   1.00
H54    H     0.03430   0.95000   0.67460   0.01267  Uiso   1.00
H55    H     0.89650   0.30320   0.88650   0.01267  Uiso   1.00
H56    H     0.58870   0.58210   0.28390   0.01267  Uiso   1.00
H57    H     0.03360   0.29110   0.36540   0.01267  Uiso   1.00
H58    H     0.86770   0.69150   0.95910   0.01267  Uiso   1.00
H59    H     0.26150   0.97220   0.41450   0.01267  Uiso   1.00
H60    H     0.10350   0.69680   0.11350   0.01267  Uiso   1.00
H61    H     0.08670   0.73800   0.72010   0.01267  Uiso   1.00
H62    H     0.27220   0.62140   0.62450   0.01267  Uiso   1.00
H63    H     0.76090   0.36710   0.56730   0.01267  Uiso   1.00
H64    H     0.52940   0.77900   0.85820   0.01267  Uiso   1.00
H65    H     0.11500   0.18480   0.36430   0.01267  Uiso   1.00
H66    H     0.41130   0.41790   0.71610   0.01267  Uiso   1.00
H67    H     0.05980   0.67580   0.22470   0.01267  Uiso   1.00
H68    H     0.54170   0.57290   0.39490   0.01267  Uiso   1.00
H69    H     0.78670   0.51240   0.99080   0.01267  Uiso   1.00
H70    H     0.53360   0.17710   0.58420   0.01267  Uiso   1.00
H71    H     0.73850   0.02780   0.58550   0.01267  Uiso   1.00
H72    H     0.27360   0.01680   0.51340   0.01267  Uiso   1.00
H73    H     0.52030   0.58000   0.81110   0.01267  Uiso   1.00
H74    H     0.47060   0.22100   0.14180   0.01267  Uiso   1.00
H75    H     0.77150   0.22470   0.32000   0.01267  Uiso   1.00
H76    H     0.25850   0.63610   0.77290   0.01267  Uiso   1.00
H77    H     0.24550   0.70800   0.82050   0.01267  Uiso   1.00
H78    H     0.95260   0.89680   0.68380   0.01267  Uiso   1.00
H79    H     0.17430   0.98110   0.60470   0.01267  Uiso   1.00
H80    H     0.75450   0.29200   0.17950   0.01267  Uiso   1.00
H81    H     0.40230   0.66940   0.72730   0.01267  Uiso   1.00
H82    H     0.92820   0.92870   0.04420   0.01267  Uiso   1.00
H83    H     0.45830   0.42710   0.60510   0.01267  Uiso   1.00
H84    H     0.41630   0.32190   0.16440   0.01267  Uiso   1.00
H85    H     0.93110   0.19260   0.23020   0.01267  Uiso   1.00
H86    H     0.12970   0.95930   0.11650   0.01267  Uiso   1.00
H87    H     0.77290   0.90790   0.05900   0.01267  Uiso   1.00
H88    H     0.22850   0.77530   0.68000   0.01267  Uiso   1.00
H89    H     0.31500   0.79350   0.22680   0.01267  Uiso   1.00
H90    H     0.21330   0.48760   0.00920   0.01267  Uiso   1.00
H91    H     0.26570   0.77680   0.33570   0.01267  Uiso   1.00
H92    H     0.23910   0.63290   0.43270   0.01267  Uiso   1.00
H93    H     0.47970   0.42000   0.18890   0.01267  Uiso   1.00
H94    H     0.58380   0.33800   0.40120   0.01267  Uiso   1.00
H95    H     0.74150   0.36390   0.22710   0.01267  Uiso   1.00
H96    H     0.56650   0.46660   0.17240   0.01267  Uiso   1.00
C1     C     0.72650   0.11690   0.05170   0.01267  Uiso   1.00
C2     C     0.10610   0.90670   0.56170   0.01267  Uiso   1.00
C3     C     0.02500   0.24890   0.03170   0.01267  Uiso   1.00
C4     C     0.30380   0.36220   0.48700   0.01267  Uiso   1.00
C5     C     0.80330   0.73910   0.45380   0.01267  Uiso   1.00
C6     C     0.99650   0.17680   0.42410   0.01267  Uiso   1.00
C7     C     0.36070   0.74760   0.26050   0.01267  Uiso   1.00
C8     C     0.82380   0.86820   0.03560   0.01267  Uiso   1.00
C9     C     0.44940   0.59370   0.82460   0.01267  Uiso   1.00
C10    C     0.00350   0.82320   0.57590   0.01267  Uiso   1.00
C11    C     0.62920   0.09080   0.06860   0.01267  Uiso   1.00
C12    C     0.24180   0.86690   0.01370   0.01267  Uiso   1.00
C13    C     0.78400   0.12220   0.10200   0.01267  Uiso   1.00
C14    C     0.26840   0.69710   0.77640   0.01267  Uiso   1.00
C15    C     0.09390   0.79930   0.72550   0.01267  Uiso   1.00
C16    C     0.93000   0.77520   0.60770   0.01267  Uiso   1.00
C17    C     0.29620   0.27840   0.53460   0.01267  Uiso   1.00
C18    C     0.12880   0.85460   0.91380   0.01267  Uiso   1.00
C19    C     0.52440   0.77600   0.44010   0.01267  Uiso   1.00
C20    C     0.73880   0.48080   0.99470   0.01267  Uiso   1.00
C21    C     0.38110   0.65560   0.56460   0.01267  Uiso   1.00
C22    C     0.48590   0.70290   0.17070   0.01267  Uiso   1.00
C23    C     0.69620   0.63780   0.51300   0.01267  Uiso   1.00
C24    C     0.60010   0.32780   0.62290   0.01267  Uiso   1.00
C25    C     0.89800   0.12030   0.49810   0.01267  Uiso   1.00
C26    C     0.87900   0.16910   0.89750   0.01267  Uiso   1.00
C27    C     0.10000   0.74570   0.13590   0.01267  Uiso   1.00
C28    C     0.06720   0.80460   0.23830   0.01267  Uiso   1.00
C29    C     0.71960   0.45040   0.93950   0.01267  Uiso   1.00
C30    C     0.65430   0.39850   0.94230   0.01267  Uiso   1.00
C31    C     0.58210   0.32780   0.50050   0.01267  Uiso   1.00
C32    C     0.60310   0.62460   0.52370   0.01267  Uiso   1.00
C33    C     0.24420   0.61840   0.53070   0.01267  Uiso   1.00
C34    C     0.51410   0.29710   0.82930   0.01267  Uiso   1.00
C35    C     0.10200   0.87970   0.50190   0.01267  Uiso   1.00
C36    C     0.17620   0.13180   0.96440   0.01267  Uiso   1.00
C37    C     0.88490   0.09820   0.86190   0.01267  Uiso   1.00
C38    C     0.15140   0.84620   0.03060   0.01267  Uiso   1.00
C39    C     0.75580   0.38160   0.46930   0.01267  Uiso   1.00
C40    C     0.70450   0.36970   0.41940   0.01267  Uiso   1.00
C41    C     0.82890   0.03900   0.43420   0.01267  Uiso   1.00
C42    C     0.19670   0.26090   0.54620   0.01267  Uiso   1.00
C43    C     0.22230   0.95580   0.45120   0.01267  Uiso   1.00
C44    C     0.84520   0.41680   0.45250   0.01267  Uiso   1.00
C45    C     0.27350   0.88310   0.94830   0.01267  Uiso   1.00
C46    C     0.84860   0.15380   0.96940   0.01267  Uiso   1.00
C47    C     0.41790   0.67220   0.49950   0.01267  Uiso   1.00
C48    C     0.72320   0.36310   0.53350   0.01267  Uiso   1.00
C49    C     0.48270   0.30860   0.51320   0.01267  Uiso   1.00
C50    C     0.51100   0.33770   0.08500   0.01267  Uiso   1.00
C51    C     0.09410   0.83990   0.97940   0.01267  Uiso   1.00
C52    C     0.55060   0.40630   0.17540   0.01267  Uiso   1.00
C53    C     0.17110   0.96100   0.56580   0.01267  Uiso   1.00
C54    C     0.19590   0.20240   0.98970   0.01267  Uiso   1.00
C55    C     0.80410   0.79760   0.01030   0.01267  Uiso   1.00
C56    C     0.39690   0.37540   0.47630   0.01267  Uiso   1.00
C57    C     0.92630   0.26640   0.79730   0.01267  Uiso   1.00
C58    C     0.36480   0.66170   0.44890   0.01267  Uiso   1.00
C59    C     0.93280   0.19540   0.76170   0.01267  Uiso   1.00
C60    C     0.28040   0.54960   0.06050   0.01267  Uiso   1.00
C61    C     0.90610   0.20070   0.27450   0.01267  Uiso   1.00
C62    C     0.15810   0.90500   0.44650   0.01267  Uiso   1.00
C63    C     0.90000   0.25430   0.86410   0.01267  Uiso   1.00
C64    C     0.02370   0.88840   0.67330   0.01267  Uiso   1.00
C65    C     0.38240   0.20920   0.57050   0.01267  Uiso   1.00
C66    C     0.07000   0.22480   0.39230   0.01267  Uiso   1.00
C67    C     0.61760   0.79080   0.42950   0.01267  Uiso   1.00
C68    C     0.77770   0.04420   0.54880   0.01267  Uiso   1.00
C69    C     0.11510   0.90180   0.13810   0.01267  Uiso   1.00
C70    C     0.12100   0.83090   0.10250   0.01267  Uiso   1.00
C71    C     0.62370   0.41360   0.05830   0.01267  Uiso   1.00
C72    C     0.39990   0.67220   0.37710   0.01267  Uiso   1.00
C73    C     0.73160   0.30290   0.22360   0.01267  Uiso   1.00
C74    C     0.34570   0.60150   0.05770   0.01267  Uiso   1.00
C75    C     0.50490   0.38370   0.63910   0.01267  Uiso   1.00
C76    C     0.33160   0.73860   0.32540   0.01267  Uiso   1.00
C77    C     0.29790   0.21550   0.97880   0.01267  Uiso   1.00
C78    C     0.96000   0.21120   0.68920   0.01267  Uiso   1.00
C79    C     0.21600   0.87780   0.89800   0.01267  Uiso   1.00
C80    C     0.20270   0.78460   0.72390   0.01267  Uiso   1.00
C81    C     0.00490   0.17710   0.00740   0.01267  Uiso   1.00
C82    C     0.30960   0.53420   0.94700   0.01267  Uiso   1.00
C83    C     0.89390   0.09330   0.43830   0.01267  Uiso   1.00
C84    C     0.27680   0.63690   0.46650   0.01267  Uiso   1.00
C85    C     0.37970   0.68110   0.77120   0.01267  Uiso   1.00
C86    C     0.99510   0.82290   0.99260   0.01267  Uiso   1.00
C87    C     0.70380   0.72160   0.46540   0.01267  Uiso   1.00
C88    C     0.70210   0.78450   0.02120   0.01267  Uiso   1.00
C89    C     0.87120   0.14540   0.08620   0.01267  Uiso   1.00
C90    C     0.48900   0.66230   0.91500   0.01267  Uiso   1.00
C91    C     0.87970   0.73920   0.97660   0.01267  Uiso   1.00
C92    C     0.08300   0.11950   0.97320   0.01267  Uiso   1.00
C93    C     0.52400   0.62310   0.29400   0.01267  Uiso   1.00
C94    C     0.47600   0.37690   0.70600   0.01267  Uiso   1.00
C95    C     0.26120   0.51920   0.00530   0.01267  Uiso   1.00
C96    C     0.97500   0.75110   0.96830   0.01267  Uiso   1.00
C97    C     0.91220   0.11150   0.79490   0.01267  Uiso   1.00
C98    C     0.49510   0.61630   0.36090   0.01267  Uiso   1.00
C99    C     0.69040   0.46580   0.05300   0.01267  Uiso   1.00
C100   C     0.66840   0.26140   0.67460   0.01267  Uiso   1.00
C101   C     0.12030   0.26080   0.02340   0.01267  Uiso   1.00
C102   C     0.90590   0.16010   0.02060   0.01267  Uiso   1.00
C103   C     0.84190   0.09500   0.55350   0.01267  Uiso   1.00
C104   C     0.37630   0.58640   0.94170   0.01267  Uiso   1.00
C105   C     0.15480   0.58320   0.54750   0.01267  Uiso   1.00
C106   C     0.63520   0.33830   0.55110   0.01267  Uiso   1.00
C107   C     0.04000   0.78880   0.31080   0.01267  Uiso   1.00
C108   C     0.29550   0.63030   0.58060   0.01267  Uiso   1.00
C109   C     0.22920   0.98320   0.51090   0.01267  Uiso   1.00
C110   C     0.08780   0.88850   0.20510   0.01267  Uiso   1.00
C111   C     0.77080   0.01680   0.48910   0.01267  Uiso   1.00
C112   C     0.62030   0.31890   0.22880   0.01267  Uiso   1.00
C113   C     0.54130   0.31070   0.75690   0.01267  Uiso   1.00
C114   C     0.56260   0.70720   0.87360   0.01267  Uiso   1.00
C115   C     0.47560   0.22400   0.55990   0.01267  Uiso   1.00
C116   C     0.79730   0.21540   0.27610   0.01267  Uiso   1.00
C117   C     0.91700   0.88050   0.02680   0.01267  Uiso   1.00
C118   C     0.07370   0.73360   0.20270   0.01267  Uiso   1.00
C119   C     0.75820   0.13310   0.98630   0.01267  Uiso   1.00
C120   C     0.60660   0.38220   0.00210   0.01267  Uiso   1.00
C121   C     0.45870   0.68930   0.24310   0.01267  Uiso   1.00
C122   C     0.43740   0.29280   0.12640   0.01267  Uiso   1.00
C123   C     0.61890   0.34440   0.43540   0.01267  Uiso   1.00
C124   C     0.97630   0.11160   0.32670   0.01267  Uiso   1.00
C125   C     0.51730   0.69140   0.48680   0.01267  Uiso   1.00
C126   C     0.39340   0.61780   0.99790   0.01267  Uiso   1.00
C127   C     0.63930   0.25240   0.73950   0.01267  Uiso   1.00
C128   C     0.37080   0.90920   0.93140   0.01267  Uiso   1.00
N1     N     0.53350   0.33610   0.02120   0.01267  Uiso   1.00
N2     N     0.56270   0.38390   0.10990   0.01267  Uiso   1.00
N3     N     0.46650   0.66390   0.97880   0.01267  Uiso   1.00
N4     N     0.95400   0.12990   0.39340   0.01267  Uiso   1.00
N5     N     0.04600   0.87010   0.60660   0.01267  Uiso   1.00
N6     N     0.43730   0.61610   0.89010   0.01267  Uiso   1.00
N7     N     0.03720   0.82520   0.51270   0.01267  Uiso   1.00
N8     N     0.96280   0.17480   0.48730   0.01267  Uiso   1.00
O1     O     0.09900   0.59180   0.49780   0.01267  Uiso   1.00
O2     O     0.80850   0.82180   0.42290   0.01267  Uiso   1.00
O3     O     0.57240   0.10430   0.01890   0.01267  Uiso   1.00
O4     O     0.11600   0.33340   0.52090   0.01267  Uiso   1.00
O5     O     0.30930   0.28810   0.99380   0.01267  Uiso   1.00
O6     O     0.03080   0.85530   0.34030   0.01267  Uiso   1.00
O7     O     0.42760   0.89570   0.98110   0.01267  Uiso   1.00
O8     O     0.13910   0.54440   0.60690   0.01267  Uiso   1.00
O9     O     0.03110   0.70660   0.34190   0.01267  Uiso   1.00
O10    O     0.43290   0.78080   0.12870   0.01267  Uiso   1.00
O11    O     0.96920   0.14470   0.65970   0.01267  Uiso   1.00
O12    O     0.61410   0.05340   0.12640   0.01267  Uiso   1.00
O13    O     0.90100   0.40820   0.50220   0.01267  Uiso   1.00
O14    O     0.86090   0.45560   0.39310   0.01267  Uiso   1.00
O15    O     0.37070   0.15400   0.95510   0.01267  Uiso   1.00
O16    O     0.56300   0.63920   0.15410   0.01267  Uiso   1.00
O17    O     0.56710   0.21920   0.87130   0.01267  Uiso   1.00
O18    O     0.62930   0.84600   0.04490   0.01267  Uiso   1.00
O19    O     0.43700   0.36080   0.84590   0.01267  Uiso   1.00
O20    O     0.38590   0.94660   0.87360   0.01267  Uiso   1.00
O21    O     0.96890   0.29340   0.65810   0.01267  Uiso   1.00
O22    O     0.88400   0.66660   0.47910   0.01267  Uiso   1.00
O23    O     0.69070   0.71190   0.00620   0.01267  Uiso   1.00
O24    O     0.19150   0.17820   0.57710   0.01267  Uiso   1.00
