data_image0
_cell_length_a       18.837
_cell_length_b       15.021
_cell_length_c       14.95
_cell_angle_alpha    90
_cell_angle_beta     109.52
_cell_angle_gamma    90

_symmetry_space_group_name_H-M    "P 1"
_symmetry_int_tables_number       1

loop_
  _symmetry_equiv_pos_as_xyz
  'x, y, z'

loop_
  _atom_site_label
  _atom_site_occupancy
  _atom_site_fract_x
  _atom_site_fract_y
  _atom_site_fract_z
  _atom_site_thermal_displace_type
  _atom_site_B_iso_or_equiv
  _atom_site_type_symbol
  Ru1      1.0000 0.74738  0.98933  0.25290  Biso   1.000  Ru
  Ag1      1.0000 0.87054  0.88098  0.53916  Biso   1.000  Ag
  Ag2      1.0000 0.62555  0.16217  0.99419  Biso   1.000  Ag
  Cl1      1.0000 0.73163  0.08100  0.11670  Biso   1.000  Cl
  Cl2      1.0000 0.76564  0.88960  0.38420  Biso   1.000  Cl
  C1       1.0000 0.61830  0.85970  0.18580  Biso   1.000  C
  H1       1.0000 0.65510  0.81690  0.21140  Biso   1.000  H
  C2       1.0000 0.85020  0.84630  0.22960  Biso   1.000  C
  H2       1.0000 0.87950  0.86320  0.29070  Biso   1.000  H
  C3       1.0000 0.88350  0.06090  0.40110  Biso   1.000  C
  H3       1.0000 0.85400  0.05410  0.43960  Biso   1.000  H
  C4       1.0000 0.54430  0.83260  0.13920  Biso   1.000  C
  H4       1.0000 0.53320  0.77210  0.13340  Biso   1.000  H
  C5       1.0000 0.77340  0.79100  0.05630  Biso   1.000  C
  H5       1.0000 0.74470  0.77300  0.99540  Biso   1.000  H
  C6       1.0000 0.74860  0.86220  0.09640  Biso   1.000  C
  H6       1.0000 0.70510  0.89210  0.06070  Biso   1.000  H
  C7       1.0000 0.72950  0.17430  0.31820  Biso   1.000  C
  H7       1.0000 0.75660  0.19020  0.27880  Biso   1.000  H
  C8       1.0000 0.90120  0.04900  0.25870  Biso   1.000  C
  H8       1.0000 0.88400  0.03390  0.19460  Biso   1.000  H
  C9       1.0000 0.58010  0.00380  0.15820  Biso   1.000  C
  H9       1.0000 0.58990  0.06460  0.16340  Biso   1.000  H
  C10      1.0000 0.67190  0.07300  0.38120  Biso   1.000  C
  H10      1.0000 0.65820  0.01460  0.38830  Biso   1.000  H
  C11      1.0000 0.50940  0.97570  0.11460  Biso   1.000  C
  H11      1.0000 0.47200  0.01830  0.09110  Biso   1.000  H
  C12      1.0000 0.87480  0.77670  0.18640  Biso   1.000  C
  H12      1.0000 0.92030  0.74910  0.21890  Biso   1.000  H
  C13      1.0000 0.95490  0.09440  0.43910  Biso   1.000  C
  H13      1.0000 0.97160  0.11200  0.50240  Biso   1.000  H
  C14      1.0000 0.97220  0.08180  0.29780  Biso   1.000  C
  H14      1.0000 0.00130  0.08970  0.25890  Biso   1.000  H
  C15      1.0000 0.65060  0.13990  0.43100  Biso   1.000  C
  H15      1.0000 0.62180  0.12530  0.46870  Biso   1.000  H
  C16      1.0000 0.70930  0.23710  0.36900  Biso   1.000  C
  H16      1.0000 0.72420  0.29530  0.36340  Biso   1.000  H
  N1       1.0000 0.48970  0.89090  0.10310  Biso   1.000  N
  N2       1.0000 0.63760  0.94600  0.19480  Biso   1.000  N
  N3       1.0000 0.78590  0.89000  0.18670  Biso   1.000  N
  N4       1.0000 0.83510  0.74820  0.09970  Biso   1.000  N
  N5       1.0000 0.85530  0.03780  0.30930  Biso   1.000  N
  N6       1.0000 0.00190  0.10310  0.38920  Biso   1.000  N
  N7       1.0000 0.71100  0.08910  0.32380  Biso   1.000  N
  N8       1.0000 0.67000  0.22310  0.42650  Biso   1.000  N
  Ru2      1.0000 0.25262  0.48933  0.24710  Biso   1.000  Ru
  Ag3      1.0000 0.12946  0.38098  0.96084  Biso   1.000  Ag
  Ag4      1.0000 0.37445  0.66217  0.50581  Biso   1.000  Ag
  Cl3      1.0000 0.26837  0.58100  0.38330  Biso   1.000  Cl
  Cl4      1.0000 0.23436  0.38960  0.11580  Biso   1.000  Cl
  C17      1.0000 0.38170  0.35970  0.31420  Biso   1.000  C
  H17      1.0000 0.34490  0.31690  0.28860  Biso   1.000  H
  C18      1.0000 0.14980  0.34630  0.27040  Biso   1.000  C
  H18      1.0000 0.12050  0.36320  0.20930  Biso   1.000  H
  C19      1.0000 0.11650  0.56090  0.09890  Biso   1.000  C
  H19      1.0000 0.14600  0.55410  0.06040  Biso   1.000  H
  C20      1.0000 0.45570  0.33260  0.36080  Biso   1.000  C
  H20      1.0000 0.46680  0.27210  0.36660  Biso   1.000  H
  C21      1.0000 0.22660  0.29100  0.44370  Biso   1.000  C
  H21      1.0000 0.25530  0.27300  0.50460  Biso   1.000  H
  C22      1.0000 0.25140  0.36220  0.40360  Biso   1.000  C
  H22      1.0000 0.29490  0.39210  0.43930  Biso   1.000  H
  C23      1.0000 0.27050  0.67430  0.18180  Biso   1.000  C
  H23      1.0000 0.24340  0.69020  0.22120  Biso   1.000  H
  C24      1.0000 0.09880  0.54900  0.24130  Biso   1.000  C
  H24      1.0000 0.11600  0.53390  0.30540  Biso   1.000  H
  C25      1.0000 0.41990  0.50380  0.34180  Biso   1.000  C
  H25      1.0000 0.41010  0.56460  0.33660  Biso   1.000  H
  C26      1.0000 0.32810  0.57300  0.11880  Biso   1.000  C
  H26      1.0000 0.34180  0.51460  0.11170  Biso   1.000  H
  C27      1.0000 0.49060  0.47570  0.38540  Biso   1.000  C
  H27      1.0000 0.52800  0.51830  0.40890  Biso   1.000  H
  C28      1.0000 0.12520  0.27670  0.31360  Biso   1.000  C
  H28      1.0000 0.07970  0.24910  0.28110  Biso   1.000  H
  C29      1.0000 0.04510  0.59440  0.06090  Biso   1.000  C
  H29      1.0000 0.02840  0.61200  0.99760  Biso   1.000  H
  C30      1.0000 0.02780  0.58180  0.20220  Biso   1.000  C
  H30      1.0000 0.99870  0.58970  0.24110  Biso   1.000  H
  C31      1.0000 0.34940  0.63990  0.06900  Biso   1.000  C
  H31      1.0000 0.37820  0.62530  0.03130  Biso   1.000  H
  C32      1.0000 0.29070  0.73710  0.13100  Biso   1.000  C
  H32      1.0000 0.27580  0.79530  0.13660  Biso   1.000  H
  N9       1.0000 0.51030  0.39090  0.39690  Biso   1.000  N
  N10      1.0000 0.36240  0.44600  0.30520  Biso   1.000  N
  N11      1.0000 0.21410  0.39000  0.31330  Biso   1.000  N
  N12      1.0000 0.16490  0.24820  0.40030  Biso   1.000  N
  N13      1.0000 0.14470  0.53780  0.19070  Biso   1.000  N
  N14      1.0000 0.99810  0.60310  0.11080  Biso   1.000  N
  N15      1.0000 0.28900  0.58910  0.17620  Biso   1.000  N
  N16      1.0000 0.33000  0.72310  0.07350  Biso   1.000  N
  Ru3      1.0000 0.25262  0.01067  0.74710  Biso   1.000  Ru
  Ag5      1.0000 0.12946  0.11902  0.46084  Biso   1.000  Ag
  Ag6      1.0000 0.37445  0.83783  0.00581  Biso   1.000  Ag
  Cl5      1.0000 0.26837  0.91900  0.88330  Biso   1.000  Cl
  Cl6      1.0000 0.23436  0.11040  0.61580  Biso   1.000  Cl
  C33      1.0000 0.38170  0.14030  0.81420  Biso   1.000  C
  H33      1.0000 0.34490  0.18310  0.78860  Biso   1.000  H
  C34      1.0000 0.14980  0.15370  0.77040  Biso   1.000  C
  H34      1.0000 0.12050  0.13680  0.70930  Biso   1.000  H
  C35      1.0000 0.11650  0.93910  0.59890  Biso   1.000  C
  H35      1.0000 0.14600  0.94590  0.56040  Biso   1.000  H
  C36      1.0000 0.45570  0.16740  0.86080  Biso   1.000  C
  H36      1.0000 0.46680  0.22790  0.86660  Biso   1.000  H
  C37      1.0000 0.22660  0.20900  0.94370  Biso   1.000  C
  H37      1.0000 0.25530  0.22700  0.00460  Biso   1.000  H
  C38      1.0000 0.25140  0.13780  0.90360  Biso   1.000  C
  H38      1.0000 0.29490  0.10790  0.93930  Biso   1.000  H
  C39      1.0000 0.27050  0.82570  0.68180  Biso   1.000  C
  H39      1.0000 0.24340  0.80980  0.72120  Biso   1.000  H
  C40      1.0000 0.09880  0.95100  0.74130  Biso   1.000  C
  H40      1.0000 0.11600  0.96610  0.80540  Biso   1.000  H
  C41      1.0000 0.41990  0.99620  0.84180  Biso   1.000  C
  H41      1.0000 0.41010  0.93540  0.83660  Biso   1.000  H
  C42      1.0000 0.32810  0.92700  0.61880  Biso   1.000  C
  H42      1.0000 0.34180  0.98540  0.61170  Biso   1.000  H
  C43      1.0000 0.49060  0.02430  0.88540  Biso   1.000  C
  H43      1.0000 0.52800  0.98170  0.90890  Biso   1.000  H
  C44      1.0000 0.12520  0.22330  0.81360  Biso   1.000  C
  H44      1.0000 0.07970  0.25090  0.78110  Biso   1.000  H
  C45      1.0000 0.04510  0.90560  0.56090  Biso   1.000  C
  H45      1.0000 0.02840  0.88800  0.49760  Biso   1.000  H
  C46      1.0000 0.02780  0.91820  0.70220  Biso   1.000  C
  H46      1.0000 0.99870  0.91030  0.74110  Biso   1.000  H
  C47      1.0000 0.34940  0.86010  0.56900  Biso   1.000  C
  H47      1.0000 0.37820  0.87470  0.53130  Biso   1.000  H
  C48      1.0000 0.29070  0.76290  0.63100  Biso   1.000  C
  H48      1.0000 0.27580  0.70470  0.63660  Biso   1.000  H
  N17      1.0000 0.51030  0.10910  0.89690  Biso   1.000  N
  N18      1.0000 0.36240  0.05400  0.80520  Biso   1.000  N
  N19      1.0000 0.21410  0.11000  0.81330  Biso   1.000  N
  N20      1.0000 0.16490  0.25180  0.90030  Biso   1.000  N
  N21      1.0000 0.14470  0.96220  0.69070  Biso   1.000  N
  N22      1.0000 0.99810  0.89690  0.61080  Biso   1.000  N
  N23      1.0000 0.28900  0.91090  0.67620  Biso   1.000  N
  N24      1.0000 0.33000  0.77690  0.57350  Biso   1.000  N
  Ru4      1.0000 0.74738  0.51067  0.75290  Biso   1.000  Ru
  Ag7      1.0000 0.87054  0.61902  0.03916  Biso   1.000  Ag
  Ag8      1.0000 0.62555  0.33783  0.49419  Biso   1.000  Ag
  Cl7      1.0000 0.73163  0.41900  0.61670  Biso   1.000  Cl
  Cl8      1.0000 0.76564  0.61040  0.88420  Biso   1.000  Cl
  C49      1.0000 0.61830  0.64030  0.68580  Biso   1.000  C
  H49      1.0000 0.65510  0.68310  0.71140  Biso   1.000  H
  C50      1.0000 0.85020  0.65370  0.72960  Biso   1.000  C
  H50      1.0000 0.87950  0.63680  0.79070  Biso   1.000  H
  C51      1.0000 0.88350  0.43910  0.90110  Biso   1.000  C
  H51      1.0000 0.85400  0.44590  0.93960  Biso   1.000  H
  C52      1.0000 0.54430  0.66740  0.63920  Biso   1.000  C
  H52      1.0000 0.53320  0.72790  0.63340  Biso   1.000  H
  C53      1.0000 0.77340  0.70900  0.55630  Biso   1.000  C
  H53      1.0000 0.74470  0.72700  0.49540  Biso   1.000  H
  C54      1.0000 0.74860  0.63780  0.59640  Biso   1.000  C
  H54      1.0000 0.70510  0.60790  0.56070  Biso   1.000  H
  C55      1.0000 0.72950  0.32570  0.81820  Biso   1.000  C
  H55      1.0000 0.75660  0.30980  0.77880  Biso   1.000  H
  C56      1.0000 0.90120  0.45100  0.75870  Biso   1.000  C
  H56      1.0000 0.88400  0.46610  0.69460  Biso   1.000  H
  C57      1.0000 0.58010  0.49620  0.65820  Biso   1.000  C
  H57      1.0000 0.58990  0.43540  0.66340  Biso   1.000  H
  C58      1.0000 0.67190  0.42700  0.88120  Biso   1.000  C
  H58      1.0000 0.65820  0.48540  0.88830  Biso   1.000  H
  C59      1.0000 0.50940  0.52430  0.61460  Biso   1.000  C
  H59      1.0000 0.47200  0.48170  0.59110  Biso   1.000  H
  C60      1.0000 0.87480  0.72330  0.68640  Biso   1.000  C
  H60      1.0000 0.92030  0.75090  0.71890  Biso   1.000  H
  C61      1.0000 0.95490  0.40560  0.93910  Biso   1.000  C
  H61      1.0000 0.97160  0.38800  0.00240  Biso   1.000  H
  C62      1.0000 0.97220  0.41820  0.79780  Biso   1.000  C
  H62      1.0000 0.00130  0.41030  0.75890  Biso   1.000  H
  C63      1.0000 0.65060  0.36010  0.93100  Biso   1.000  C
  H63      1.0000 0.62180  0.37470  0.96870  Biso   1.000  H
  C64      1.0000 0.70930  0.26290  0.86900  Biso   1.000  C
  H64      1.0000 0.72420  0.20470  0.86340  Biso   1.000  H
  N25      1.0000 0.48970  0.60910  0.60310  Biso   1.000  N
  N26      1.0000 0.63760  0.55400  0.69480  Biso   1.000  N
  N27      1.0000 0.78590  0.61000  0.68670  Biso   1.000  N
  N28      1.0000 0.83510  0.75180  0.59970  Biso   1.000  N
  N29      1.0000 0.85530  0.46220  0.80930  Biso   1.000  N
  N30      1.0000 0.00190  0.39690  0.88920  Biso   1.000  N
  N31      1.0000 0.71100  0.41090  0.82380  Biso   1.000  N
  N32      1.0000 0.67000  0.27690  0.92650  Biso   1.000  N
