data_image0
_cell_length_a       14.877
_cell_length_b       8.5545
_cell_length_c       7.4081
_cell_angle_alpha    90
_cell_angle_beta     118.778
_cell_angle_gamma    90

_symmetry_space_group_name_H-M    "P 1"
_symmetry_int_tables_number       1

loop_
  _symmetry_equiv_pos_as_xyz
  'x, y, z'

loop_
  _atom_site_label
  _atom_site_occupancy
  _atom_site_fract_x
  _atom_site_fract_y
  _atom_site_fract_z
  _atom_site_thermal_displace_type
  _atom_site_B_iso_or_equiv
  _atom_site_type_symbol
  Cu1      1.0000 0.31761  0.68084  0.18184  Biso   1.000  Cu
  C1       1.0000 0.45860  0.65030  0.23540  Biso   1.000  C
  N1       1.0000 0.25707  0.49930  0.25270  Biso   1.000  N
  C2       1.0000 0.23315  0.38630  0.29880  Biso   1.000  C
  Cu2      1.0000 0.81761  0.18084  0.18184  Biso   1.000  Cu
  C3       1.0000 0.95860  0.15030  0.23540  Biso   1.000  C
  N2       1.0000 0.75707  0.99930  0.25270  Biso   1.000  N
  C4       1.0000 0.73315  0.88630  0.29880  Biso   1.000  C
  Cu3      1.0000 0.68239  0.68084  0.31816  Biso   1.000  Cu
  C5       1.0000 0.54140  0.65030  0.26460  Biso   1.000  C
  N3       1.0000 0.74293  0.49930  0.24730  Biso   1.000  N
  C6       1.0000 0.76685  0.38630  0.20120  Biso   1.000  C
  Cu4      1.0000 0.18239  0.18084  0.31816  Biso   1.000  Cu
  C7       1.0000 0.04140  0.15030  0.26460  Biso   1.000  C
  N4       1.0000 0.24293  0.99930  0.24730  Biso   1.000  N
  C8       1.0000 0.26685  0.88630  0.20120  Biso   1.000  C
  Cu5      1.0000 0.68239  0.31916  0.81816  Biso   1.000  Cu
  C9       1.0000 0.54140  0.34970  0.76460  Biso   1.000  C
  N5       1.0000 0.74293  0.50070  0.74730  Biso   1.000  N
  C10      1.0000 0.76685  0.61370  0.70120  Biso   1.000  C
  Cu6      1.0000 0.18239  0.81916  0.81816  Biso   1.000  Cu
  C11      1.0000 0.04140  0.84970  0.76460  Biso   1.000  C
  N6       1.0000 0.24293  0.00070  0.74730  Biso   1.000  N
  C12      1.0000 0.26685  0.11370  0.70120  Biso   1.000  C
  Cu7      1.0000 0.31761  0.31916  0.68184  Biso   1.000  Cu
  C13      1.0000 0.45860  0.34970  0.73540  Biso   1.000  C
  N7       1.0000 0.25707  0.50070  0.75270  Biso   1.000  N
  C14      1.0000 0.23315  0.61370  0.79880  Biso   1.000  C
  Cu8      1.0000 0.81761  0.81916  0.68184  Biso   1.000  Cu
  C15      1.0000 0.95860  0.84970  0.73540  Biso   1.000  C
  N8       1.0000 0.75707  0.00070  0.75270  Biso   1.000  N
  C16      1.0000 0.73315  0.11370  0.79880  Biso   1.000  C
