data_image0
_cell_length_a       9.869
_cell_length_b       17.101
_cell_length_c       17.32
_cell_angle_alpha    90
_cell_angle_beta     94.896
_cell_angle_gamma    90

_symmetry_space_group_name_H-M    "P 1"
_symmetry_int_tables_number       1

loop_
  _symmetry_equiv_pos_as_xyz
  'x, y, z'

loop_
  _atom_site_label
  _atom_site_occupancy
  _atom_site_fract_x
  _atom_site_fract_y
  _atom_site_fract_z
  _atom_site_thermal_displace_type
  _atom_site_B_iso_or_equiv
  _atom_site_type_symbol
  Zn1      1.0000 0.06281  0.96598  0.09974  Biso   1.000  Zn
  Zn2      1.0000 0.55016  0.10733  0.96320  Biso   1.000  Zn
  P1       1.0000 0.35393  0.06128  0.08767  Biso   1.000  P
  P2       1.0000 0.85354  0.10272  0.05420  Biso   1.000  P
  O1       1.0000 0.20490  0.04180  0.08580  Biso   1.000  O
  O2       1.0000 0.38370  0.11110  0.01750  Biso   1.000  O
  O3       1.0000 0.44770  0.99070  0.09680  Biso   1.000  O
  O4       1.0000 0.51420  0.32650  0.37270  Biso   1.000  O
  O5       1.0000 0.48220  0.22420  0.44530  Biso   1.000  O
  O6       1.0000 0.89780  0.02860  0.09780  Biso   1.000  O
  O7       1.0000 0.93000  0.11370  0.98170  Biso   1.000  O
  O8       1.0000 0.70140  0.10690  0.03950  Biso   1.000  O
  O9       1.0000 0.90060  0.41120  0.30070  Biso   1.000  O
  O10      1.0000 0.10270  0.35710  0.33010  Biso   1.000  O
  C1       1.0000 0.39170  0.12010  0.17350  Biso   1.000  C
  C2       1.0000 0.35690  0.09280  0.24450  Biso   1.000  C
  H1       1.0000 0.31310  0.04490  0.24770  Biso   1.000  H
  C3       1.0000 0.38800  0.13750  0.31100  Biso   1.000  C
  H2       1.0000 0.36580  0.11830  0.35860  Biso   1.000  H
  C4       1.0000 0.44990  0.20850  0.30820  Biso   1.000  C
  C5       1.0000 0.48250  0.23720  0.23790  Biso   1.000  C
  H3       1.0000 0.52380  0.28590  0.23510  Biso   1.000  H
  C6       1.0000 0.45340  0.19280  0.17060  Biso   1.000  C
  H4       1.0000 0.47590  0.21230  0.12330  Biso   1.000  H
  C7       1.0000 0.48440  0.25460  0.38160  Biso   1.000  C
  C8       1.0000 0.89880  0.18340  0.11810  Biso   1.000  C
  C9       1.0000 0.02420  0.18620  0.16090  Biso   1.000  C
  H5       1.0000 0.08810  0.14750  0.15370  Biso   1.000  H
  C10      1.0000 0.05620  0.24530  0.21400  Biso   1.000  C
  H6       1.0000 0.14140  0.24610  0.24150  Biso   1.000  H
  C11      1.0000 0.96300  0.30250  0.22630  Biso   1.000  C
  C12      1.0000 0.83790  0.30240  0.18270  Biso   1.000  C
  H7       1.0000 0.77530  0.34190  0.18950  Biso   1.000  H
  C13      1.0000 0.80640  0.24350  0.12920  Biso   1.000  C
  H8       1.0000 0.72250  0.24400  0.10030  Biso   1.000  H
  C14      1.0000 0.99280  0.36060  0.28970  Biso   1.000  C
  Zn3      1.0000 0.93719  0.46598  0.40026  Biso   1.000  Zn
  Zn4      1.0000 0.44984  0.60733  0.53680  Biso   1.000  Zn
  P3       1.0000 0.64607  0.56128  0.41233  Biso   1.000  P
  P4       1.0000 0.14646  0.60272  0.44580  Biso   1.000  P
  O11      1.0000 0.79510  0.54180  0.41420  Biso   1.000  O
  O12      1.0000 0.61630  0.61110  0.48250  Biso   1.000  O
  O13      1.0000 0.55230  0.49070  0.40320  Biso   1.000  O
  O14      1.0000 0.48580  0.82650  0.12730  Biso   1.000  O
  O15      1.0000 0.51780  0.72420  0.05470  Biso   1.000  O
  O16      1.0000 0.10220  0.52860  0.40220  Biso   1.000  O
  O17      1.0000 0.07000  0.61370  0.51830  Biso   1.000  O
  O18      1.0000 0.29860  0.60690  0.46050  Biso   1.000  O
  O19      1.0000 0.09940  0.91120  0.19930  Biso   1.000  O
  O20      1.0000 0.89730  0.85710  0.16990  Biso   1.000  O
  C15      1.0000 0.60830  0.62010  0.32650  Biso   1.000  C
  C16      1.0000 0.64310  0.59280  0.25550  Biso   1.000  C
  H9       1.0000 0.68690  0.54490  0.25230  Biso   1.000  H
  C17      1.0000 0.61200  0.63750  0.18900  Biso   1.000  C
  H10      1.0000 0.63420  0.61830  0.14140  Biso   1.000  H
  C18      1.0000 0.55010  0.70850  0.19180  Biso   1.000  C
  C19      1.0000 0.51750  0.73720  0.26210  Biso   1.000  C
  H11      1.0000 0.47620  0.78590  0.26490  Biso   1.000  H
  C20      1.0000 0.54660  0.69280  0.32940  Biso   1.000  C
  H12      1.0000 0.52410  0.71230  0.37670  Biso   1.000  H
  C21      1.0000 0.51560  0.75460  0.11840  Biso   1.000  C
  C22      1.0000 0.10120  0.68340  0.38190  Biso   1.000  C
  C23      1.0000 0.97580  0.68620  0.33910  Biso   1.000  C
  H13      1.0000 0.91190  0.64750  0.34630  Biso   1.000  H
  C24      1.0000 0.94380  0.74530  0.28600  Biso   1.000  C
  H14      1.0000 0.85860  0.74610  0.25850  Biso   1.000  H
  C25      1.0000 0.03700  0.80250  0.27370  Biso   1.000  C
  C26      1.0000 0.16210  0.80240  0.31730  Biso   1.000  C
  H15      1.0000 0.22470  0.84190  0.31050  Biso   1.000  H
  C27      1.0000 0.19360  0.74350  0.37080  Biso   1.000  C
  H16      1.0000 0.27750  0.74400  0.39970  Biso   1.000  H
  C28      1.0000 0.00720  0.86060  0.21030  Biso   1.000  C
  Zn5      1.0000 0.93719  0.03402  0.90026  Biso   1.000  Zn
  Zn6      1.0000 0.44984  0.89267  0.03680  Biso   1.000  Zn
  P5       1.0000 0.64607  0.93872  0.91233  Biso   1.000  P
  P6       1.0000 0.14646  0.89728  0.94580  Biso   1.000  P
  O21      1.0000 0.79510  0.95820  0.91420  Biso   1.000  O
  O22      1.0000 0.61630  0.88890  0.98250  Biso   1.000  O
  O23      1.0000 0.55230  0.00930  0.90320  Biso   1.000  O
  O24      1.0000 0.48580  0.67350  0.62730  Biso   1.000  O
  O25      1.0000 0.51780  0.77580  0.55470  Biso   1.000  O
  O26      1.0000 0.10220  0.97140  0.90220  Biso   1.000  O
  O27      1.0000 0.07000  0.88630  0.01830  Biso   1.000  O
  O28      1.0000 0.29860  0.89310  0.96050  Biso   1.000  O
  O29      1.0000 0.09940  0.58880  0.69930  Biso   1.000  O
  O30      1.0000 0.89730  0.64290  0.66990  Biso   1.000  O
  C29      1.0000 0.60830  0.87990  0.82650  Biso   1.000  C
  C30      1.0000 0.64310  0.90720  0.75550  Biso   1.000  C
  H17      1.0000 0.68690  0.95510  0.75230  Biso   1.000  H
  C31      1.0000 0.61200  0.86250  0.68900  Biso   1.000  C
  H18      1.0000 0.63420  0.88170  0.64140  Biso   1.000  H
  C32      1.0000 0.55010  0.79150  0.69180  Biso   1.000  C
  C33      1.0000 0.51750  0.76280  0.76210  Biso   1.000  C
  H19      1.0000 0.47620  0.71410  0.76490  Biso   1.000  H
  C34      1.0000 0.54660  0.80720  0.82940  Biso   1.000  C
  H20      1.0000 0.52410  0.78770  0.87670  Biso   1.000  H
  C35      1.0000 0.51560  0.74540  0.61840  Biso   1.000  C
  C36      1.0000 0.10120  0.81660  0.88190  Biso   1.000  C
  C37      1.0000 0.97580  0.81380  0.83910  Biso   1.000  C
  H21      1.0000 0.91190  0.85250  0.84630  Biso   1.000  H
  C38      1.0000 0.94380  0.75470  0.78600  Biso   1.000  C
  H22      1.0000 0.85860  0.75390  0.75850  Biso   1.000  H
  C39      1.0000 0.03700  0.69750  0.77370  Biso   1.000  C
  C40      1.0000 0.16210  0.69760  0.81730  Biso   1.000  C
  H23      1.0000 0.22470  0.65810  0.81050  Biso   1.000  H
  C41      1.0000 0.19360  0.75650  0.87080  Biso   1.000  C
  H24      1.0000 0.27750  0.75600  0.89970  Biso   1.000  H
  C42      1.0000 0.00720  0.63940  0.71030  Biso   1.000  C
  Zn7      1.0000 0.06281  0.53402  0.59974  Biso   1.000  Zn
  Zn8      1.0000 0.55016  0.39267  0.46320  Biso   1.000  Zn
  P7       1.0000 0.35393  0.43872  0.58767  Biso   1.000  P
  P8       1.0000 0.85354  0.39728  0.55420  Biso   1.000  P
  O31      1.0000 0.20490  0.45820  0.58580  Biso   1.000  O
  O32      1.0000 0.38370  0.38890  0.51750  Biso   1.000  O
  O33      1.0000 0.44770  0.50930  0.59680  Biso   1.000  O
  O34      1.0000 0.51420  0.17350  0.87270  Biso   1.000  O
  O35      1.0000 0.48220  0.27580  0.94530  Biso   1.000  O
  O36      1.0000 0.89780  0.47140  0.59780  Biso   1.000  O
  O37      1.0000 0.93000  0.38630  0.48170  Biso   1.000  O
  O38      1.0000 0.70140  0.39310  0.53950  Biso   1.000  O
  O39      1.0000 0.90060  0.08880  0.80070  Biso   1.000  O
  O40      1.0000 0.10270  0.14290  0.83010  Biso   1.000  O
  C43      1.0000 0.39170  0.37990  0.67350  Biso   1.000  C
  C44      1.0000 0.35690  0.40720  0.74450  Biso   1.000  C
  H25      1.0000 0.31310  0.45510  0.74770  Biso   1.000  H
  C45      1.0000 0.38800  0.36250  0.81100  Biso   1.000  C
  H26      1.0000 0.36580  0.38170  0.85860  Biso   1.000  H
  C46      1.0000 0.44990  0.29150  0.80820  Biso   1.000  C
  C47      1.0000 0.48250  0.26280  0.73790  Biso   1.000  C
  H27      1.0000 0.52380  0.21410  0.73510  Biso   1.000  H
  C48      1.0000 0.45340  0.30720  0.67060  Biso   1.000  C
  H28      1.0000 0.47590  0.28770  0.62330  Biso   1.000  H
  C49      1.0000 0.48440  0.24540  0.88160  Biso   1.000  C
  C50      1.0000 0.89880  0.31660  0.61810  Biso   1.000  C
  C51      1.0000 0.02420  0.31380  0.66090  Biso   1.000  C
  H29      1.0000 0.08810  0.35250  0.65370  Biso   1.000  H
  C52      1.0000 0.05620  0.25470  0.71400  Biso   1.000  C
  H30      1.0000 0.14140  0.25390  0.74150  Biso   1.000  H
  C53      1.0000 0.96300  0.19750  0.72630  Biso   1.000  C
  C54      1.0000 0.83790  0.19760  0.68270  Biso   1.000  C
  H31      1.0000 0.77530  0.15810  0.68950  Biso   1.000  H
  C55      1.0000 0.80640  0.25650  0.62920  Biso   1.000  C
  H32      1.0000 0.72250  0.25600  0.60030  Biso   1.000  H
  C56      1.0000 0.99280  0.13940  0.78970  Biso   1.000  C
