data_XOJWID_charged
_audit_creation_date              2014-07-02
_audit_creation_method            'Materials Studio'
_symmetry_space_group_name_H-M    'P1'
_symmetry_Int_Tables_number       1
_symmetry_cell_setting            triclinic
loop_
_symmetry_equiv_pos_as_xyz
  x,y,z
_cell_length_a                    10.0750
_cell_length_b                    13.0510
_cell_length_c                    13.2400
_cell_angle_alpha                 70.7900
_cell_angle_beta                  68.8500
_cell_angle_gamma                 70.6100
loop_
_atom_site_label
_atom_site_type_symbol
_atom_site_fract_x
_atom_site_fract_y
_atom_site_fract_z
_atom_site_U_iso_or_equiv
_atom_site_adp_type
_atom_site_occupancy
Zn1    Zn    0.56682   0.16637   0.44715   0.01267  Uiso   1.00
Zn2    Zn    0.16256   0.05451   0.33483   0.01267  Uiso   1.00
Zn3    Zn    0.43318   0.83363   0.55285   0.01267  Uiso   1.00
Zn4    Zn    0.83744   0.94549   0.66517   0.01267  Uiso   1.00
P1     P     0.87007   0.16411   0.47339   0.01267  Uiso   1.00
P2     P     0.49208   0.03100   0.33598   0.01267  Uiso   1.00
P3     P     0.12993   0.83589   0.52661   0.01267  Uiso   1.00
P4     P     0.50792   0.96900   0.66402   0.01267  Uiso   1.00
H1     H     0.82860   0.39230   0.35260   0.01267  Uiso   1.00
H2     H     0.70630   0.56300   0.40050   0.01267  Uiso   1.00
H3     H     0.58930   0.40540   0.71940   0.01267  Uiso   1.00
H4     H     0.71220   0.23600   0.67400   0.01267  Uiso   1.00
H5     H     0.61970   0.13330   0.10810   0.01267  Uiso   1.00
H6     H     0.72040   0.07820   0.94600   0.01267  Uiso   1.00
H7     H     0.63100   0.78100   0.10070   0.01267  Uiso   1.00
H8     H     0.53480   0.83450   0.26670   0.01267  Uiso   1.00
H9     H     0.17140   0.60770   0.64740   0.01267  Uiso   1.00
H10    H     0.29370   0.43700   0.59950   0.01267  Uiso   1.00
H11    H     0.41070   0.59460   0.28060   0.01267  Uiso   1.00
H12    H     0.28780   0.76400   0.32600   0.01267  Uiso   1.00
H13    H     0.38030   0.86670   0.89190   0.01267  Uiso   1.00
H14    H     0.27960   0.92180   0.05400   0.01267  Uiso   1.00
H15    H     0.36900   0.21900   0.89930   0.01267  Uiso   1.00
H16    H     0.46520   0.16550   0.73330   0.01267  Uiso   1.00
C1     C     0.78230   0.29650   0.50840   0.01267  Uiso   1.00
C2     C     0.78070   0.39420   0.42680   0.01267  Uiso   1.00
C3     C     0.70670   0.49680   0.45580   0.01267  Uiso   1.00
C4     C     0.63620   0.50030   0.56290   0.01267  Uiso   1.00
C5     C     0.63760   0.40290   0.64540   0.01267  Uiso   1.00
C6     C     0.71080   0.30160   0.61800   0.01267  Uiso   1.00
C7     C     0.55260   0.60960   0.59330   0.01267  Uiso   1.00
C8     C     0.56700   0.99060   0.20460   0.01267  Uiso   1.00
C9     C     0.62240   0.06160   0.10750   0.01267  Uiso   1.00
C10    C     0.68100   0.02900   0.01060   0.01267  Uiso   1.00
C11    C     0.68400   0.92470   0.00470   0.01267  Uiso   1.00
C12    C     0.62900   0.85230   0.10210   0.01267  Uiso   1.00
C13    C     0.57120   0.88430   0.20140   0.01267  Uiso   1.00
C14    C     0.74110   0.89180   0.89720   0.01267  Uiso   1.00
C15    C     0.21770   0.70350   0.49160   0.01267  Uiso   1.00
C16    C     0.21930   0.60580   0.57320   0.01267  Uiso   1.00
C17    C     0.29330   0.50320   0.54420   0.01267  Uiso   1.00
C18    C     0.36380   0.49970   0.43710   0.01267  Uiso   1.00
C19    C     0.36240   0.59710   0.35460   0.01267  Uiso   1.00
C20    C     0.28920   0.69840   0.38200   0.01267  Uiso   1.00
C21    C     0.44740   0.39040   0.40670   0.01267  Uiso   1.00
C22    C     0.43300   0.00940   0.79540   0.01267  Uiso   1.00
C23    C     0.37760   0.93840   0.89250   0.01267  Uiso   1.00
C24    C     0.31900   0.97100   0.98940   0.01267  Uiso   1.00
C25    C     0.31600   0.07530   0.99530   0.01267  Uiso   1.00
C26    C     0.37100   0.14770   0.89790   0.01267  Uiso   1.00
C27    C     0.42880   0.11570   0.79860   0.01267  Uiso   1.00
C28    C     0.25890   0.10820   0.10280   0.01267  Uiso   1.00
O1     O     0.77120   0.13270   0.43210   0.01267  Uiso   1.00
O2     O     0.01190   0.17800   0.38400   0.01267  Uiso   1.00
O3     O     0.89900   0.08330   0.57940   0.01267  Uiso   1.00
O4     O     0.55330   0.69470   0.51450   0.01267  Uiso   1.00
O5     O     0.49040   0.61230   0.69280   0.01267  Uiso   1.00
O6     O     0.32800   0.07120   0.36210   0.01267  Uiso   1.00
O7     O     0.55860   0.12560   0.32070   0.01267  Uiso   1.00
O8     O     0.54160   0.92870   0.42020   0.01267  Uiso   1.00
O9     O     0.79700   0.96240   0.81350   0.01267  Uiso   1.00
O10    O     0.73030   0.80200   0.89240   0.01267  Uiso   1.00
O11    O     0.22880   0.86730   0.56790   0.01267  Uiso   1.00
O12    O     0.98810   0.82200   0.61600   0.01267  Uiso   1.00
O13    O     0.10100   0.91670   0.42060   0.01267  Uiso   1.00
O14    O     0.44670   0.30530   0.48550   0.01267  Uiso   1.00
O15    O     0.50960   0.38770   0.30720   0.01267  Uiso   1.00
O16    O     0.67200   0.92880   0.63790   0.01267  Uiso   1.00
O17    O     0.44140   0.87440   0.67930   0.01267  Uiso   1.00
O18    O     0.45840   0.07130   0.57980   0.01267  Uiso   1.00
O19    O     0.20300   0.03760   0.18650   0.01267  Uiso   1.00
O20    O     0.26970   0.19800   0.10760   0.01267  Uiso   1.00
H17    H     0.67130   0.73690   0.81640   0.01267  Uiso   1.00
H18    H     0.59960   0.71480   0.75090   0.01267  Uiso   1.00
H19    H     0.84070   0.67050   0.67520   0.01267  Uiso   1.00
H20    H     0.85720   0.58740   0.78900   0.01267  Uiso   1.00
H21    H     0.77980   0.56310   0.71860   0.01267  Uiso   1.00
H22    H     0.48600   0.65800   0.93290   0.01267  Uiso   1.00
H23    H     0.55930   0.55480   0.87910   0.01267  Uiso   1.00
H24    H     0.63600   0.57900   0.95000   0.01267  Uiso   1.00
C29    C     0.79500   0.62070   0.74030   0.01267  Uiso   1.00
C30    C     0.57760   0.61240   0.89870   0.01267  Uiso   1.00
N1     N     0.65630   0.68220   0.79760   0.01267  Uiso   1.00
H25    H     0.89100   0.90250   0.42820   0.01267  Uiso   1.00
H26    H     0.75060   0.91360   0.41350   0.01267  Uiso   1.00
H27    H     0.87500   0.02000   0.26600   0.01267  Uiso   1.00
H28    H     0.00210   0.91340   0.24630   0.01267  Uiso   1.00
H29    H     0.85010   0.92590   0.23060   0.01267  Uiso   1.00
H30    H     0.83900   0.73650   0.49140   0.01267  Uiso   1.00
H31    H     0.82720   0.74610   0.37360   0.01267  Uiso   1.00
H32    H     0.97930   0.73410   0.38880   0.01267  Uiso   1.00
C31    C     0.89800   0.94090   0.27330   0.01267  Uiso   1.00
C32    C     0.87570   0.76560   0.41270   0.01267  Uiso   1.00
N2     N     0.84780   0.88560   0.38890   0.01267  Uiso   1.00
H33    H     0.32870   0.26310   0.18360   0.01267  Uiso   1.00
H34    H     0.40040   0.28520   0.24910   0.01267  Uiso   1.00
H35    H     0.15930   0.32950   0.32480   0.01267  Uiso   1.00
H36    H     0.14280   0.41260   0.21100   0.01267  Uiso   1.00
H37    H     0.22020   0.43690   0.28140   0.01267  Uiso   1.00
H38    H     0.51400   0.34200   0.06710   0.01267  Uiso   1.00
H39    H     0.44070   0.44520   0.12090   0.01267  Uiso   1.00
H40    H     0.36400   0.42100   0.05000   0.01267  Uiso   1.00
C33    C     0.20500   0.37930   0.25970   0.01267  Uiso   1.00
C34    C     0.42240   0.38760   0.10130   0.01267  Uiso   1.00
N3     N     0.34370   0.31780   0.20240   0.01267  Uiso   1.00
H41    H     0.10900   0.09750   0.57180   0.01267  Uiso   1.00
H42    H     0.24940   0.08640   0.58650   0.01267  Uiso   1.00
H43    H     0.12500   0.98000   0.73400   0.01267  Uiso   1.00
H44    H     0.99790   0.08660   0.75370   0.01267  Uiso   1.00
H45    H     0.14990   0.07410   0.76940   0.01267  Uiso   1.00
H46    H     0.16100   0.26350   0.50860   0.01267  Uiso   1.00
H47    H     0.17280   0.25390   0.62640   0.01267  Uiso   1.00
H48    H     0.02070   0.26590   0.61120   0.01267  Uiso   1.00
C35    C     0.10200   0.05910   0.72670   0.01267  Uiso   1.00
C36    C     0.12430   0.23440   0.58730   0.01267  Uiso   1.00
N4     N     0.15220   0.11440   0.61110   0.01267  Uiso   1.00
