data_XOJWEZ_clean
_audit_creation_date              2014-07-02
_audit_creation_method            'Materials Studio'
_symmetry_space_group_name_H-M    'P1'
_symmetry_Int_Tables_number       1
_symmetry_cell_setting            triclinic
loop_
_symmetry_equiv_pos_as_xyz
  x,y,z
_cell_length_a                    7.1810
_cell_length_b                    11.3511
_cell_length_c                    11.3511
_cell_angle_alpha                 66.3221
_cell_angle_beta                  71.5600
_cell_angle_gamma                 71.5599
loop_
_atom_site_label
_atom_site_type_symbol
_atom_site_fract_x
_atom_site_fract_y
_atom_site_fract_z
_atom_site_U_iso_or_equiv
_atom_site_adp_type
_atom_site_occupancy
Cu1    Cu    0.34052   0.88889   0.61111   0.01267  Uiso   1.00
Cu2    Cu    0.84052   0.11111   0.38889   0.01267  Uiso   1.00
H1     H     0.75390   0.84810   0.44130   0.01267  Uiso   1.00
H2     H     0.26620   0.62850   0.67710   0.01267  Uiso   1.00
H3     H     0.41550   0.49330   0.72490   0.01267  Uiso   1.00
H4     H     0.33200   0.52910   0.59990   0.01267  Uiso   1.00
H5     H     0.07490   0.75500   0.33120   0.01267  Uiso   1.00
H6     H     0.05910   0.64950   0.28050   0.01267  Uiso   1.00
H7     H     0.14470   0.60440   0.40660   0.01267  Uiso   1.00
H8     H     0.04330   0.15190   0.55870   0.01267  Uiso   1.00
H9     H     0.57180   0.37150   0.32290   0.01267  Uiso   1.00
H10    H     0.63370   0.50670   0.27510   0.01267  Uiso   1.00
H11    H     0.46100   0.47090   0.40010   0.01267  Uiso   1.00
H12    H     0.16110   0.24500   0.66880   0.01267  Uiso   1.00
H13    H     0.98910   0.35050   0.71950   0.01267  Uiso   1.00
H14    H     0.15570   0.39560   0.59340   0.01267  Uiso   1.00
H15    H     0.25390   0.94130   0.34810   0.01267  Uiso   1.00
H16    H     0.76620   0.17710   0.12850   0.01267  Uiso   1.00
H17    H     0.91550   0.22490   0.99330   0.01267  Uiso   1.00
H18    H     0.83200   0.09990   0.02910   0.01267  Uiso   1.00
H19    H     0.57490   0.83120   0.25500   0.01267  Uiso   1.00
H20    H     0.55910   0.78050   0.14950   0.01267  Uiso   1.00
H21    H     0.64470   0.90660   0.10440   0.01267  Uiso   1.00
H22    H     0.54330   0.05870   0.65190   0.01267  Uiso   1.00
H23    H     0.07180   0.82290   0.87150   0.01267  Uiso   1.00
H24    H     0.13370   0.77510   0.00670   0.01267  Uiso   1.00
H25    H     0.96100   0.90010   0.97090   0.01267  Uiso   1.00
H26    H     0.66110   0.16880   0.74500   0.01267  Uiso   1.00
H27    H     0.48910   0.21950   0.85050   0.01267  Uiso   1.00
H28    H     0.65570   0.09340   0.89560   0.01267  Uiso   1.00
C1     C     0.73740   0.56820   0.50160   0.01267  Uiso   1.00
C2     C     0.84460   0.66700   0.44000   0.01267  Uiso   1.00
C3     C     0.54750   0.62520   0.56460   0.01267  Uiso   1.00
C4     C     0.37500   0.56370   0.64910   0.01267  Uiso   1.00
C5     C     0.04850   0.66910   0.35750   0.01267  Uiso   1.00
C6     C     0.80720   0.43180   0.49840   0.01267  Uiso   1.00
C7     C     0.95160   0.33300   0.56000   0.01267  Uiso   1.00
C8     C     0.73730   0.37480   0.43540   0.01267  Uiso   1.00
C9     C     0.58780   0.43630   0.35090   0.01267  Uiso   1.00
C10    C     0.07510   0.33090   0.64250   0.01267  Uiso   1.00
C11    C     0.23740   0.00160   0.06820   0.01267  Uiso   1.00
C12    C     0.34460   0.94000   0.16700   0.01267  Uiso   1.00
C13    C     0.04750   0.06460   0.12520   0.01267  Uiso   1.00
C14    C     0.87500   0.14910   0.06370   0.01267  Uiso   1.00
C15    C     0.54850   0.85750   0.16910   0.01267  Uiso   1.00
C16    C     0.30720   0.99840   0.93180   0.01267  Uiso   1.00
C17    C     0.45160   0.06000   0.83300   0.01267  Uiso   1.00
C18    C     0.23730   0.93540   0.87480   0.01267  Uiso   1.00
C19    C     0.08780   0.85090   0.93630   0.01267  Uiso   1.00
C20    C     0.57510   0.14250   0.83090   0.01267  Uiso   1.00
Br1    Br    0.49303   0.09474   0.40526   0.01267  Uiso   1.00
Br2    Br    0.99303   0.90526   0.59474   0.01267  Uiso   1.00
N1     N     0.54106   0.75024   0.54444   0.01267  Uiso   1.00
N2     N     0.72140   0.77330   0.46850   0.01267  Uiso   1.00
N3     N     0.83574   0.24976   0.45556   0.01267  Uiso   1.00
N4     N     0.96320   0.22670   0.53150   0.01267  Uiso   1.00
N5     N     0.04106   0.04444   0.25024   0.01267  Uiso   1.00
N6     N     0.22140   0.96850   0.27330   0.01267  Uiso   1.00
N7     N     0.33574   0.95556   0.74976   0.01267  Uiso   1.00
N8     N     0.46320   0.03150   0.72670   0.01267  Uiso   1.00
