data_image0
_cell_length_a       20.365
_cell_length_b       20.119
_cell_length_c       17.311
_cell_angle_alpha    90
_cell_angle_beta     103.166
_cell_angle_gamma    90

_symmetry_space_group_name_H-M    "P 1"
_symmetry_int_tables_number       1

loop_
  _symmetry_equiv_pos_as_xyz
  'x, y, z'

loop_
  _atom_site_label
  _atom_site_occupancy
  _atom_site_fract_x
  _atom_site_fract_y
  _atom_site_fract_z
  _atom_site_thermal_displace_type
  _atom_site_B_iso_or_equiv
  _atom_site_type_symbol
  Co1      1.0000 0.87510  0.13550  0.26328  Biso   1.000  Co
  Co2      1.0000 0.38409  0.12816  0.25581  Biso   1.000  Co
  C1       1.0000 0.87780  0.20880  0.42330  Biso   1.000  C
  H1       1.0000 0.84020  0.23390  0.40000  Biso   1.000  H
  C2       1.0000 0.91340  0.21580  0.49970  Biso   1.000  C
  H2       1.0000 0.90510  0.24560  0.53750  Biso   1.000  H
  C3       1.0000 0.95709  0.13844  0.43840  Biso   1.000  C
  H3       1.0000 0.98600  0.10550  0.42830  Biso   1.000  H
  C4       1.0000 0.01646  0.15968  0.57840  Biso   1.000  C
  C5       1.0000 0.04018  0.21439  0.62600  Biso   1.000  C
  H4       1.0000 0.02290  0.25660  0.61190  Biso   1.000  H
  C6       1.0000 0.08927  0.20518  0.69370  Biso   1.000  C
  H5       1.0000 0.10480  0.24170  0.72550  Biso   1.000  H
  C7       1.0000 0.11666  0.14298  0.71650  Biso   1.000  C
  C8       1.0000 0.09196  0.08893  0.66740  Biso   1.000  C
  H6       1.0000 0.10960  0.04670  0.68050  Biso   1.000  H
  C9       1.0000 0.04190  0.09777  0.60020  Biso   1.000  C
  H7       1.0000 0.02500  0.06120  0.56910  Biso   1.000  H
  C10      1.0000 0.17016  0.13557  0.79040  Biso   1.000  C
  C11      1.0000 0.21752  0.18600  0.81320  Biso   1.000  C
  H8       1.0000 0.21580  0.22350  0.78140  Biso   1.000  H
  C12      1.0000 0.26660  0.18114  0.88190  Biso   1.000  C
  H9       1.0000 0.29800  0.21510  0.89610  Biso   1.000  H
  C13      1.0000 0.26951  0.12610  0.93010  Biso   1.000  C
  C14      1.0000 0.22380  0.07521  0.90760  Biso   1.000  C
  H10      1.0000 0.22620  0.03750  0.93920  Biso   1.000  H
  C15      1.0000 0.17434  0.08000  0.83830  Biso   1.000  C
  H11      1.0000 0.14360  0.04550  0.82380  Biso   1.000  H
  C16      1.0000 0.31195  0.11464  0.07530  Biso   1.000  C
  H12      1.0000 0.27060  0.10470  0.08680  Biso   1.000  H
  C17      1.0000 0.41570  0.13800  0.08790  Biso   1.000  C
  H13      1.0000 0.46090  0.14680  0.11030  Biso   1.000  H
  C18      1.0000 0.38730  0.13950  0.00940  Biso   1.000  C
  H14      1.0000 0.40870  0.14960  0.96880  Biso   1.000  H
  C19      1.0000 0.79540  0.13630  0.08600  Biso   1.000  C
  H15      1.0000 0.75930  0.15760  0.10000  Biso   1.000  H
  C20      1.0000 0.88860  0.09250  0.09410  Biso   1.000  C
  H16      1.0000 0.93240  0.07750  0.11380  Biso   1.000  H
  C21      1.0000 0.85560  0.08860  0.01830  Biso   1.000  C
  H17      1.0000 0.87120  0.06870  0.97730  Biso   1.000  H
  C22      1.0000 0.74334  0.12468  0.94130  Biso   1.000  C
  C23      1.0000 0.71890  0.18560  0.91190  Biso   1.000  C
  H18      1.0000 0.73530  0.22420  0.93910  Biso   1.000  H
  C24      1.0000 0.67010  0.18950  0.84260  Biso   1.000  C
  H19      1.0000 0.65330  0.23080  0.82380  Biso   1.000  H
  C25      1.0000 0.64547  0.13238  0.79970  Biso   1.000  C
  C26      1.0000 0.66970  0.07230  0.83100  Biso   1.000  C
  H20      1.0000 0.65240  0.03340  0.80520  Biso   1.000  H
  C27      1.0000 0.71940  0.06830  0.90040  Biso   1.000  C
  H21      1.0000 0.73650  0.02710  0.91920  Biso   1.000  H
  C28      1.0000 0.59417  0.13577  0.72320  Biso   1.000  C
  C29      1.0000 0.54960  0.18930  0.70460  Biso   1.000  C
  H22      1.0000 0.55290  0.22430  0.74030  Biso   1.000  H
  C30      1.0000 0.50130  0.19160  0.63530  Biso   1.000  C
  H23      1.0000 0.47180  0.22750  0.62450  Biso   1.000  H
  C31      1.0000 0.49654  0.14002  0.58130  Biso   1.000  C
  C32      1.0000 0.53900  0.08610  0.59800  Biso   1.000  C
  H24      1.0000 0.53500  0.05100  0.56230  Biso   1.000  H
  C33      1.0000 0.58770  0.08490  0.66840  Biso   1.000  C
  H25      1.0000 0.61690  0.04870  0.67910  Biso   1.000  H
  C34      1.0000 0.37980  0.16240  0.49850  Biso   1.000  C
  H26      1.0000 0.35860  0.17680  0.53770  Biso   1.000  H
  C35      1.0000 0.35200  0.15720  0.42090  Biso   1.000  C
  H27      1.0000 0.30730  0.16720  0.39740  Biso   1.000  H
  C36      1.0000 0.45403  0.12641  0.43630  Biso   1.000  C
  H28      1.0000 0.49440  0.11100  0.42640  Biso   1.000  H
  C37      1.0000 0.51150  0.09030  0.26910  Biso   1.000  C
  C38      1.0000 0.57589  0.05225  0.27130  Biso   1.000  C
  C39      1.0000 0.63692  0.08530  0.27550  Biso   1.000  C
  H29      1.0000 0.63810  0.13150  0.27780  Biso   1.000  H
  C40      1.0000 0.76082  0.08519  0.27500  Biso   1.000  C
  C41      1.0000 0.69607  0.05014  0.27640  Biso   1.000  C
  C42      1.0000 0.69309  0.98113  0.27300  Biso   1.000  C
  H30      1.0000 0.73230  0.95710  0.27440  Biso   1.000  H
  C43      1.0000 0.63289  0.94738  0.26769  Biso   1.000  C
  C44      1.0000 0.57473  0.98357  0.26670  Biso   1.000  C
  H31      1.0000 0.53410  0.96120  0.26290  Biso   1.000  H
  C45      1.0000 0.63011  0.87351  0.26230  Biso   1.000  C
  C46      1.0000 0.67573  0.83327  0.31330  Biso   1.000  C
  H32      1.0000 0.70990  0.85220  0.35190  Biso   1.000  H
  C47      1.0000 0.67026  0.76557  0.30670  Biso   1.000  C
  H33      1.0000 0.70150  0.73980  0.34150  Biso   1.000  H
  C48      1.0000 0.57842  0.77306  0.20260  Biso   1.000  C
  H34      1.0000 0.54530  0.75290  0.16370  Biso   1.000  H
  C49      1.0000 0.58041  0.84112  0.20660  Biso   1.000  C
  H35      1.0000 0.54810  0.86590  0.17170  Biso   1.000  H
  C50      1.0000 0.24679  0.10047  0.24700  Biso   1.000  C
  C51      1.0000 0.18746  0.06167  0.26099  Biso   1.000  C
  C52      1.0000 0.18859  0.99226  0.26648  Biso   1.000  C
  H36      1.0000 0.22800  0.96960  0.26470  Biso   1.000  H
  C53      1.0000 0.13228  0.95650  0.27449  Biso   1.000  C
  C54      1.0000 0.07402  0.99180  0.27886  Biso   1.000  C
  H37      1.0000 0.03610  0.96880  0.28560  Biso   1.000  H
  C55      1.0000 0.07191  0.06083  0.27327  Biso   1.000  C
  C56      1.0000 0.00725  0.09921  0.27090  Biso   1.000  C
  C57      1.0000 0.12903  0.09486  0.26506  Biso   1.000  C
  H38      1.0000 0.12800  0.14100  0.26220  Biso   1.000  H
  C58      1.0000 0.13295  0.88287  0.27400  Biso   1.000  C
  C59      1.0000 0.18980  0.84608  0.27680  Biso   1.000  C
  H39      1.0000 0.23100  0.86770  0.28240  Biso   1.000  H
  C60      1.0000 0.18770  0.77836  0.27160  Biso   1.000  C
  H40      1.0000 0.22820  0.75580  0.27590  Biso   1.000  H
  C61      1.0000 0.07738  0.77812  0.26140  Biso   1.000  C
  H41      1.0000 0.03700  0.75530  0.25720  Biso   1.000  H
  C62      1.0000 0.07568  0.84631  0.26790  Biso   1.000  C
  H42      1.0000 0.03520  0.86750  0.26810  Biso   1.000  H
  N1       1.0000 0.90468  0.16027  0.38584  Biso   1.000  N
  N2       1.0000 0.96409  0.16933  0.50887  Biso   1.000  N
  N3       1.0000 0.32061  0.12323  0.00150  Biso   1.000  N
  N4       1.0000 0.36857  0.12187  0.12983  Biso   1.000  N
  N5       1.0000 0.85064  0.12067  0.13710  Biso   1.000  N
  N6       1.0000 0.79545  0.11891  0.01198  Biso   1.000  N
  N7       1.0000 0.44593  0.14246  0.50890  Biso   1.000  N
  N8       1.0000 0.39876  0.13482  0.38084  Biso   1.000  N
  N9       1.0000 0.62229  0.73418  0.25268  Biso   1.000  N
  N10      1.0000 0.13148  0.74264  0.26073  Biso   1.000  N
  O1       1.0000 0.45835  0.05763  0.26419  Biso   1.000  O
  O2       1.0000 0.51187  0.15124  0.27190  Biso   1.000  O
  O3       1.0000 0.76035  0.14635  0.26423  Biso   1.000  O
  O4       1.0000 0.81366  0.05274  0.28271  Biso   1.000  O
  O5       1.0000 0.30232  0.06987  0.25637  Biso   1.000  O
  O6       1.0000 0.23860  0.15885  0.22660  Biso   1.000  O
  O7       1.0000 0.95551  0.06829  0.27658  Biso   1.000  O
  O8       1.0000 0.00797  0.15959  0.26230  Biso   1.000  O
  Co3      1.0000 0.12490  0.63550  0.23672  Biso   1.000  Co
  Co4      1.0000 0.61591  0.62816  0.24419  Biso   1.000  Co
  C63      1.0000 0.12220  0.70880  0.07670  Biso   1.000  C
  H43      1.0000 0.15980  0.73390  0.10000  Biso   1.000  H
  C64      1.0000 0.08660  0.71580  0.00030  Biso   1.000  C
  H44      1.0000 0.09490  0.74560  0.96250  Biso   1.000  H
  C65      1.0000 0.04291  0.63844  0.06160  Biso   1.000  C
  H45      1.0000 0.01400  0.60550  0.07170  Biso   1.000  H
  C66      1.0000 0.98354  0.65968  0.92160  Biso   1.000  C
  C67      1.0000 0.95982  0.71439  0.87400  Biso   1.000  C
  H46      1.0000 0.97710  0.75660  0.88810  Biso   1.000  H
  C68      1.0000 0.91073  0.70518  0.80630  Biso   1.000  C
  H47      1.0000 0.89520  0.74170  0.77450  Biso   1.000  H
  C69      1.0000 0.88334  0.64298  0.78350  Biso   1.000  C
  C70      1.0000 0.90804  0.58893  0.83260  Biso   1.000  C
  H48      1.0000 0.89040  0.54670  0.81950  Biso   1.000  H
  C71      1.0000 0.95810  0.59777  0.89980  Biso   1.000  C
  H49      1.0000 0.97500  0.56120  0.93090  Biso   1.000  H
  C72      1.0000 0.82984  0.63557  0.70960  Biso   1.000  C
  C73      1.0000 0.78248  0.68600  0.68680  Biso   1.000  C
  H50      1.0000 0.78420  0.72350  0.71860  Biso   1.000  H
  C74      1.0000 0.73340  0.68114  0.61810  Biso   1.000  C
  H51      1.0000 0.70200  0.71510  0.60390  Biso   1.000  H
  C75      1.0000 0.73049  0.62610  0.56990  Biso   1.000  C
  C76      1.0000 0.77620  0.57521  0.59240  Biso   1.000  C
  H52      1.0000 0.77380  0.53750  0.56080  Biso   1.000  H
  C77      1.0000 0.82566  0.58000  0.66170  Biso   1.000  C
  H53      1.0000 0.85640  0.54550  0.67620  Biso   1.000  H
  C78      1.0000 0.68805  0.61464  0.42470  Biso   1.000  C
  H54      1.0000 0.72940  0.60470  0.41320  Biso   1.000  H
  C79      1.0000 0.58430  0.63800  0.41210  Biso   1.000  C
  H55      1.0000 0.53910  0.64680  0.38970  Biso   1.000  H
  C80      1.0000 0.61270  0.63950  0.49060  Biso   1.000  C
  H56      1.0000 0.59130  0.64960  0.53120  Biso   1.000  H
  C81      1.0000 0.20460  0.63630  0.41400  Biso   1.000  C
  H57      1.0000 0.24070  0.65760  0.40000  Biso   1.000  H
  C82      1.0000 0.11140  0.59250  0.40590  Biso   1.000  C
  H58      1.0000 0.06760  0.57750  0.38620  Biso   1.000  H
  C83      1.0000 0.14440  0.58860  0.48170  Biso   1.000  C
  H59      1.0000 0.12880  0.56870  0.52270  Biso   1.000  H
  C84      1.0000 0.25666  0.62468  0.55870  Biso   1.000  C
  C85      1.0000 0.28110  0.68560  0.58810  Biso   1.000  C
  H60      1.0000 0.26470  0.72420  0.56090  Biso   1.000  H
  C86      1.0000 0.32990  0.68950  0.65740  Biso   1.000  C
  H61      1.0000 0.34670  0.73080  0.67620  Biso   1.000  H
  C87      1.0000 0.35453  0.63238  0.70030  Biso   1.000  C
  C88      1.0000 0.33030  0.57230  0.66900  Biso   1.000  C
  H62      1.0000 0.34760  0.53340  0.69480  Biso   1.000  H
  C89      1.0000 0.28060  0.56830  0.59960  Biso   1.000  C
  H63      1.0000 0.26350  0.52710  0.58080  Biso   1.000  H
  C90      1.0000 0.40583  0.63577  0.77680  Biso   1.000  C
  C91      1.0000 0.45040  0.68930  0.79540  Biso   1.000  C
  H64      1.0000 0.44710  0.72430  0.75970  Biso   1.000  H
  C92      1.0000 0.49870  0.69160  0.86470  Biso   1.000  C
  H65      1.0000 0.52820  0.72750  0.87550  Biso   1.000  H
  C93      1.0000 0.50346  0.64002  0.91870  Biso   1.000  C
  C94      1.0000 0.46100  0.58610  0.90200  Biso   1.000  C
  H66      1.0000 0.46500  0.55100  0.93770  Biso   1.000  H
  C95      1.0000 0.41230  0.58490  0.83160  Biso   1.000  C
  H67      1.0000 0.38310  0.54870  0.82090  Biso   1.000  H
  C96      1.0000 0.62020  0.66240  0.00150  Biso   1.000  C
  H68      1.0000 0.64140  0.67680  0.96230  Biso   1.000  H
  C97      1.0000 0.64800  0.65720  0.07910  Biso   1.000  C
  H69      1.0000 0.69270  0.66720  0.10260  Biso   1.000  H
  C98      1.0000 0.54597  0.62641  0.06370  Biso   1.000  C
  H70      1.0000 0.50560  0.61100  0.07360  Biso   1.000  H
  C99      1.0000 0.48850  0.59030  0.23090  Biso   1.000  C
  C100     1.0000 0.42411  0.55225  0.22870  Biso   1.000  C
  C101     1.0000 0.36308  0.58530  0.22450  Biso   1.000  C
  H71      1.0000 0.36190  0.63150  0.22220  Biso   1.000  H
  C102     1.0000 0.23918  0.58519  0.22500  Biso   1.000  C
  C103     1.0000 0.30393  0.55014  0.22360  Biso   1.000  C
  C104     1.0000 0.30691  0.48113  0.22700  Biso   1.000  C
  H72      1.0000 0.26770  0.45710  0.22560  Biso   1.000  H
  C105     1.0000 0.36711  0.44738  0.23231  Biso   1.000  C
  C106     1.0000 0.42527  0.48357  0.23330  Biso   1.000  C
  H73      1.0000 0.46590  0.46120  0.23710  Biso   1.000  H
  C107     1.0000 0.36989  0.37351  0.23770  Biso   1.000  C
  C108     1.0000 0.32427  0.33327  0.18670  Biso   1.000  C
  H74      1.0000 0.29010  0.35220  0.14810  Biso   1.000  H
  C109     1.0000 0.32974  0.26557  0.19330  Biso   1.000  C
  H75      1.0000 0.29850  0.23980  0.15850  Biso   1.000  H
  C110     1.0000 0.42158  0.27306  0.29740  Biso   1.000  C
  H76      1.0000 0.45470  0.25290  0.33630  Biso   1.000  H
  C111     1.0000 0.41959  0.34112  0.29340  Biso   1.000  C
  H77      1.0000 0.45190  0.36590  0.32830  Biso   1.000  H
  C112     1.0000 0.75321  0.60047  0.25300  Biso   1.000  C
  C113     1.0000 0.81254  0.56167  0.23901  Biso   1.000  C
  C114     1.0000 0.81141  0.49226  0.23352  Biso   1.000  C
  H78      1.0000 0.77200  0.46960  0.23530  Biso   1.000  H
  C115     1.0000 0.86772  0.45650  0.22551  Biso   1.000  C
  C116     1.0000 0.92598  0.49180  0.22114  Biso   1.000  C
  H79      1.0000 0.96390  0.46880  0.21440  Biso   1.000  H
  C117     1.0000 0.92809  0.56083  0.22673  Biso   1.000  C
  C118     1.0000 0.99275  0.59921  0.22910  Biso   1.000  C
  C119     1.0000 0.87097  0.59486  0.23494  Biso   1.000  C
  H80      1.0000 0.87200  0.64100  0.23780  Biso   1.000  H
  C120     1.0000 0.86705  0.38287  0.22600  Biso   1.000  C
  C121     1.0000 0.81020  0.34608  0.22320  Biso   1.000  C
  H81      1.0000 0.76900  0.36770  0.21760  Biso   1.000  H
  C122     1.0000 0.81230  0.27836  0.22840  Biso   1.000  C
  H82      1.0000 0.77180  0.25580  0.22410  Biso   1.000  H
  C123     1.0000 0.92262  0.27812  0.23860  Biso   1.000  C
  H83      1.0000 0.96300  0.25530  0.24280  Biso   1.000  H
  C124     1.0000 0.92432  0.34631  0.23210  Biso   1.000  C
  H84      1.0000 0.96480  0.36750  0.23190  Biso   1.000  H
  N11      1.0000 0.09532  0.66027  0.11416  Biso   1.000  N
  N12      1.0000 0.03591  0.66933  0.99113  Biso   1.000  N
  N13      1.0000 0.67939  0.62323  0.49850  Biso   1.000  N
  N14      1.0000 0.63143  0.62187  0.37017  Biso   1.000  N
  N15      1.0000 0.14936  0.62067  0.36290  Biso   1.000  N
  N16      1.0000 0.20455  0.61891  0.48802  Biso   1.000  N
  N17      1.0000 0.55407  0.64246  0.99110  Biso   1.000  N
  N18      1.0000 0.60124  0.63482  0.11916  Biso   1.000  N
  N19      1.0000 0.37771  0.23418  0.24732  Biso   1.000  N
  N20      1.0000 0.86852  0.24264  0.23927  Biso   1.000  N
  O9       1.0000 0.54165  0.55763  0.23581  Biso   1.000  O
  O10      1.0000 0.48813  0.65124  0.22810  Biso   1.000  O
  O11      1.0000 0.23965  0.64635  0.23577  Biso   1.000  O
  O12      1.0000 0.18634  0.55274  0.21729  Biso   1.000  O
  O13      1.0000 0.69768  0.56987  0.24363  Biso   1.000  O
  O14      1.0000 0.76140  0.65885  0.27340  Biso   1.000  O
  O15      1.0000 0.04449  0.56829  0.22342  Biso   1.000  O
  O16      1.0000 0.99203  0.65959  0.23770  Biso   1.000  O
  Co5      1.0000 0.12490  0.86450  0.73672  Biso   1.000  Co
  Co6      1.0000 0.61591  0.87184  0.74419  Biso   1.000  Co
  C125     1.0000 0.12220  0.79120  0.57670  Biso   1.000  C
  H85      1.0000 0.15980  0.76610  0.60000  Biso   1.000  H
  C126     1.0000 0.08660  0.78420  0.50030  Biso   1.000  C
  H86      1.0000 0.09490  0.75440  0.46250  Biso   1.000  H
  C127     1.0000 0.04291  0.86156  0.56160  Biso   1.000  C
  H87      1.0000 0.01400  0.89450  0.57170  Biso   1.000  H
  C128     1.0000 0.98354  0.84032  0.42160  Biso   1.000  C
  C129     1.0000 0.95982  0.78561  0.37400  Biso   1.000  C
  H88      1.0000 0.97710  0.74340  0.38810  Biso   1.000  H
  C130     1.0000 0.91073  0.79482  0.30630  Biso   1.000  C
  H89      1.0000 0.89520  0.75830  0.27450  Biso   1.000  H
  C131     1.0000 0.88334  0.85702  0.28350  Biso   1.000  C
  C132     1.0000 0.90804  0.91107  0.33260  Biso   1.000  C
  H90      1.0000 0.89040  0.95330  0.31950  Biso   1.000  H
  C133     1.0000 0.95810  0.90223  0.39980  Biso   1.000  C
  H91      1.0000 0.97500  0.93880  0.43090  Biso   1.000  H
  C134     1.0000 0.82984  0.86443  0.20960  Biso   1.000  C
  C135     1.0000 0.78248  0.81400  0.18680  Biso   1.000  C
  H92      1.0000 0.78420  0.77650  0.21860  Biso   1.000  H
  C136     1.0000 0.73340  0.81886  0.11810  Biso   1.000  C
  H93      1.0000 0.70200  0.78490  0.10390  Biso   1.000  H
  C137     1.0000 0.73049  0.87390  0.06990  Biso   1.000  C
  C138     1.0000 0.77620  0.92479  0.09240  Biso   1.000  C
  H94      1.0000 0.77380  0.96250  0.06080  Biso   1.000  H
  C139     1.0000 0.82566  0.92000  0.16170  Biso   1.000  C
  H95      1.0000 0.85640  0.95450  0.17620  Biso   1.000  H
  C140     1.0000 0.68805  0.88536  0.92470  Biso   1.000  C
  H96      1.0000 0.72940  0.89530  0.91320  Biso   1.000  H
  C141     1.0000 0.58430  0.86200  0.91210  Biso   1.000  C
  H97      1.0000 0.53910  0.85320  0.88970  Biso   1.000  H
  C142     1.0000 0.61270  0.86050  0.99060  Biso   1.000  C
  H98      1.0000 0.59130  0.85040  0.03120  Biso   1.000  H
  C143     1.0000 0.20460  0.86370  0.91400  Biso   1.000  C
  H99      1.0000 0.24070  0.84240  0.90000  Biso   1.000  H
  C144     1.0000 0.11140  0.90750  0.90590  Biso   1.000  C
  H100     1.0000 0.06760  0.92250  0.88620  Biso   1.000  H
  C145     1.0000 0.14440  0.91140  0.98170  Biso   1.000  C
  H101     1.0000 0.12880  0.93130  0.02270  Biso   1.000  H
  C146     1.0000 0.25666  0.87532  0.05870  Biso   1.000  C
  C147     1.0000 0.28110  0.81440  0.08810  Biso   1.000  C
  H102     1.0000 0.26470  0.77580  0.06090  Biso   1.000  H
  C148     1.0000 0.32990  0.81050  0.15740  Biso   1.000  C
  H103     1.0000 0.34670  0.76920  0.17620  Biso   1.000  H
  C149     1.0000 0.35453  0.86762  0.20030  Biso   1.000  C
  C150     1.0000 0.33030  0.92770  0.16900  Biso   1.000  C
  H104     1.0000 0.34760  0.96660  0.19480  Biso   1.000  H
  C151     1.0000 0.28060  0.93170  0.09960  Biso   1.000  C
  H105     1.0000 0.26350  0.97290  0.08080  Biso   1.000  H
  C152     1.0000 0.40583  0.86423  0.27680  Biso   1.000  C
  C153     1.0000 0.45040  0.81070  0.29540  Biso   1.000  C
  H106     1.0000 0.44710  0.77570  0.25970  Biso   1.000  H
  C154     1.0000 0.49870  0.80840  0.36470  Biso   1.000  C
  H107     1.0000 0.52820  0.77250  0.37550  Biso   1.000  H
  C155     1.0000 0.50346  0.85998  0.41870  Biso   1.000  C
  C156     1.0000 0.46100  0.91390  0.40200  Biso   1.000  C
  H108     1.0000 0.46500  0.94900  0.43770  Biso   1.000  H
  C157     1.0000 0.41230  0.91510  0.33160  Biso   1.000  C
  H109     1.0000 0.38310  0.95130  0.32090  Biso   1.000  H
  C158     1.0000 0.62020  0.83760  0.50150  Biso   1.000  C
  H110     1.0000 0.64140  0.82320  0.46230  Biso   1.000  H
  C159     1.0000 0.64800  0.84280  0.57910  Biso   1.000  C
  H111     1.0000 0.69270  0.83280  0.60260  Biso   1.000  H
  C160     1.0000 0.54597  0.87359  0.56370  Biso   1.000  C
  H112     1.0000 0.50560  0.88900  0.57360  Biso   1.000  H
  C161     1.0000 0.48850  0.90970  0.73090  Biso   1.000  C
  C162     1.0000 0.42411  0.94775  0.72870  Biso   1.000  C
  C163     1.0000 0.36308  0.91470  0.72450  Biso   1.000  C
  H113     1.0000 0.36190  0.86850  0.72220  Biso   1.000  H
  C164     1.0000 0.23918  0.91481  0.72500  Biso   1.000  C
  C165     1.0000 0.30393  0.94986  0.72360  Biso   1.000  C
  C166     1.0000 0.30691  0.01887  0.72700  Biso   1.000  C
  H114     1.0000 0.26770  0.04290  0.72560  Biso   1.000  H
  C167     1.0000 0.36711  0.05262  0.73231  Biso   1.000  C
  C168     1.0000 0.42527  0.01643  0.73330  Biso   1.000  C
  H115     1.0000 0.46590  0.03880  0.73710  Biso   1.000  H
  C169     1.0000 0.36989  0.12649  0.73770  Biso   1.000  C
  C170     1.0000 0.32427  0.16673  0.68670  Biso   1.000  C
  H116     1.0000 0.29010  0.14780  0.64810  Biso   1.000  H
  C171     1.0000 0.32974  0.23443  0.69330  Biso   1.000  C
  H117     1.0000 0.29850  0.26020  0.65850  Biso   1.000  H
  C172     1.0000 0.42158  0.22694  0.79740  Biso   1.000  C
  H118     1.0000 0.45470  0.24710  0.83630  Biso   1.000  H
  C173     1.0000 0.41959  0.15888  0.79340  Biso   1.000  C
  H119     1.0000 0.45190  0.13410  0.82830  Biso   1.000  H
  C174     1.0000 0.75321  0.89953  0.75300  Biso   1.000  C
  C175     1.0000 0.81254  0.93833  0.73901  Biso   1.000  C
  C176     1.0000 0.81141  0.00774  0.73352  Biso   1.000  C
  H120     1.0000 0.77200  0.03040  0.73530  Biso   1.000  H
  C177     1.0000 0.86772  0.04350  0.72551  Biso   1.000  C
  C178     1.0000 0.92598  0.00820  0.72114  Biso   1.000  C
  H121     1.0000 0.96390  0.03120  0.71440  Biso   1.000  H
  C179     1.0000 0.92809  0.93917  0.72673  Biso   1.000  C
  C180     1.0000 0.99275  0.90079  0.72910  Biso   1.000  C
  C181     1.0000 0.87097  0.90514  0.73494  Biso   1.000  C
  H122     1.0000 0.87200  0.85900  0.73780  Biso   1.000  H
  C182     1.0000 0.86705  0.11713  0.72600  Biso   1.000  C
  C183     1.0000 0.81020  0.15392  0.72320  Biso   1.000  C
  H123     1.0000 0.76900  0.13230  0.71760  Biso   1.000  H
  C184     1.0000 0.81230  0.22164  0.72840  Biso   1.000  C
  H124     1.0000 0.77180  0.24420  0.72410  Biso   1.000  H
  C185     1.0000 0.92262  0.22188  0.73860  Biso   1.000  C
  H125     1.0000 0.96300  0.24470  0.74280  Biso   1.000  H
  C186     1.0000 0.92432  0.15369  0.73210  Biso   1.000  C
  H126     1.0000 0.96480  0.13250  0.73190  Biso   1.000  H
  N21      1.0000 0.09532  0.83973  0.61416  Biso   1.000  N
  N22      1.0000 0.03591  0.83067  0.49113  Biso   1.000  N
  N23      1.0000 0.67939  0.87677  0.99850  Biso   1.000  N
  N24      1.0000 0.63143  0.87813  0.87017  Biso   1.000  N
  N25      1.0000 0.14936  0.87933  0.86290  Biso   1.000  N
  N26      1.0000 0.20455  0.88109  0.98802  Biso   1.000  N
  N27      1.0000 0.55407  0.85754  0.49110  Biso   1.000  N
  N28      1.0000 0.60124  0.86518  0.61916  Biso   1.000  N
  N29      1.0000 0.37771  0.26582  0.74732  Biso   1.000  N
  N30      1.0000 0.86852  0.25736  0.73927  Biso   1.000  N
  O17      1.0000 0.54165  0.94237  0.73581  Biso   1.000  O
  O18      1.0000 0.48813  0.84876  0.72810  Biso   1.000  O
  O19      1.0000 0.23965  0.85365  0.73577  Biso   1.000  O
  O20      1.0000 0.18634  0.94726  0.71729  Biso   1.000  O
  O21      1.0000 0.69768  0.93013  0.74363  Biso   1.000  O
  O22      1.0000 0.76140  0.84115  0.77340  Biso   1.000  O
  O23      1.0000 0.04449  0.93171  0.72342  Biso   1.000  O
  O24      1.0000 0.99203  0.84041  0.73770  Biso   1.000  O
  Co7      1.0000 0.87510  0.36450  0.76328  Biso   1.000  Co
  Co8      1.0000 0.38409  0.37184  0.75581  Biso   1.000  Co
  C187     1.0000 0.87780  0.29120  0.92330  Biso   1.000  C
  H127     1.0000 0.84020  0.26610  0.90000  Biso   1.000  H
  C188     1.0000 0.91340  0.28420  0.99970  Biso   1.000  C
  H128     1.0000 0.90510  0.25440  0.03750  Biso   1.000  H
  C189     1.0000 0.95709  0.36156  0.93840  Biso   1.000  C
  H129     1.0000 0.98600  0.39450  0.92830  Biso   1.000  H
  C190     1.0000 0.01646  0.34032  0.07840  Biso   1.000  C
  C191     1.0000 0.04018  0.28561  0.12600  Biso   1.000  C
  H130     1.0000 0.02290  0.24340  0.11190  Biso   1.000  H
  C192     1.0000 0.08927  0.29482  0.19370  Biso   1.000  C
  H131     1.0000 0.10480  0.25830  0.22550  Biso   1.000  H
  C193     1.0000 0.11666  0.35702  0.21650  Biso   1.000  C
  C194     1.0000 0.09196  0.41107  0.16740  Biso   1.000  C
  H132     1.0000 0.10960  0.45330  0.18050  Biso   1.000  H
  C195     1.0000 0.04190  0.40223  0.10020  Biso   1.000  C
  H133     1.0000 0.02500  0.43880  0.06910  Biso   1.000  H
  C196     1.0000 0.17016  0.36443  0.29040  Biso   1.000  C
  C197     1.0000 0.21752  0.31400  0.31320  Biso   1.000  C
  H134     1.0000 0.21580  0.27650  0.28140  Biso   1.000  H
  C198     1.0000 0.26660  0.31886  0.38190  Biso   1.000  C
  H135     1.0000 0.29800  0.28490  0.39610  Biso   1.000  H
  C199     1.0000 0.26951  0.37390  0.43010  Biso   1.000  C
  C200     1.0000 0.22380  0.42479  0.40760  Biso   1.000  C
  H136     1.0000 0.22620  0.46250  0.43920  Biso   1.000  H
  C201     1.0000 0.17434  0.42000  0.33830  Biso   1.000  C
  H137     1.0000 0.14360  0.45450  0.32380  Biso   1.000  H
  C202     1.0000 0.31195  0.38536  0.57530  Biso   1.000  C
  H138     1.0000 0.27060  0.39530  0.58680  Biso   1.000  H
  C203     1.0000 0.41570  0.36200  0.58790  Biso   1.000  C
  H139     1.0000 0.46090  0.35320  0.61030  Biso   1.000  H
  C204     1.0000 0.38730  0.36050  0.50940  Biso   1.000  C
  H140     1.0000 0.40870  0.35040  0.46880  Biso   1.000  H
  C205     1.0000 0.79540  0.36370  0.58600  Biso   1.000  C
  H141     1.0000 0.75930  0.34240  0.60000  Biso   1.000  H
  C206     1.0000 0.88860  0.40750  0.59410  Biso   1.000  C
  H142     1.0000 0.93240  0.42250  0.61380  Biso   1.000  H
  C207     1.0000 0.85560  0.41140  0.51830  Biso   1.000  C
  H143     1.0000 0.87120  0.43130  0.47730  Biso   1.000  H
  C208     1.0000 0.74334  0.37532  0.44130  Biso   1.000  C
  C209     1.0000 0.71890  0.31440  0.41190  Biso   1.000  C
  H144     1.0000 0.73530  0.27580  0.43910  Biso   1.000  H
  C210     1.0000 0.67010  0.31050  0.34260  Biso   1.000  C
  H145     1.0000 0.65330  0.26920  0.32380  Biso   1.000  H
  C211     1.0000 0.64547  0.36762  0.29970  Biso   1.000  C
  C212     1.0000 0.66970  0.42770  0.33100  Biso   1.000  C
  H146     1.0000 0.65240  0.46660  0.30520  Biso   1.000  H
  C213     1.0000 0.71940  0.43170  0.40040  Biso   1.000  C
  H147     1.0000 0.73650  0.47290  0.41920  Biso   1.000  H
  C214     1.0000 0.59417  0.36423  0.22320  Biso   1.000  C
  C215     1.0000 0.54960  0.31070  0.20460  Biso   1.000  C
  H148     1.0000 0.55290  0.27570  0.24030  Biso   1.000  H
  C216     1.0000 0.50130  0.30840  0.13530  Biso   1.000  C
  H149     1.0000 0.47180  0.27250  0.12450  Biso   1.000  H
  C217     1.0000 0.49654  0.35998  0.08130  Biso   1.000  C
  C218     1.0000 0.53900  0.41390  0.09800  Biso   1.000  C
  H150     1.0000 0.53500  0.44900  0.06230  Biso   1.000  H
  C219     1.0000 0.58770  0.41510  0.16840  Biso   1.000  C
  H151     1.0000 0.61690  0.45130  0.17910  Biso   1.000  H
  C220     1.0000 0.37980  0.33760  0.99850  Biso   1.000  C
  H152     1.0000 0.35860  0.32320  0.03770  Biso   1.000  H
  C221     1.0000 0.35200  0.34280  0.92090  Biso   1.000  C
  H153     1.0000 0.30730  0.33280  0.89740  Biso   1.000  H
  C222     1.0000 0.45403  0.37359  0.93630  Biso   1.000  C
  H154     1.0000 0.49440  0.38900  0.92640  Biso   1.000  H
  C223     1.0000 0.51150  0.40970  0.76910  Biso   1.000  C
  C224     1.0000 0.57589  0.44775  0.77130  Biso   1.000  C
  C225     1.0000 0.63692  0.41470  0.77550  Biso   1.000  C
  H155     1.0000 0.63810  0.36850  0.77780  Biso   1.000  H
  C226     1.0000 0.76082  0.41481  0.77500  Biso   1.000  C
  C227     1.0000 0.69607  0.44986  0.77640  Biso   1.000  C
  C228     1.0000 0.69309  0.51887  0.77300  Biso   1.000  C
  H156     1.0000 0.73230  0.54290  0.77440  Biso   1.000  H
  C229     1.0000 0.63289  0.55262  0.76769  Biso   1.000  C
  C230     1.0000 0.57473  0.51643  0.76670  Biso   1.000  C
  H157     1.0000 0.53410  0.53880  0.76290  Biso   1.000  H
  C231     1.0000 0.63011  0.62649  0.76230  Biso   1.000  C
  C232     1.0000 0.67573  0.66673  0.81330  Biso   1.000  C
  H158     1.0000 0.70990  0.64780  0.85190  Biso   1.000  H
  C233     1.0000 0.67026  0.73443  0.80670  Biso   1.000  C
  H159     1.0000 0.70150  0.76020  0.84150  Biso   1.000  H
  C234     1.0000 0.57842  0.72694  0.70260  Biso   1.000  C
  H160     1.0000 0.54530  0.74710  0.66370  Biso   1.000  H
  C235     1.0000 0.58041  0.65888  0.70660  Biso   1.000  C
  H161     1.0000 0.54810  0.63410  0.67170  Biso   1.000  H
  C236     1.0000 0.24679  0.39953  0.74700  Biso   1.000  C
  C237     1.0000 0.18746  0.43833  0.76099  Biso   1.000  C
  C238     1.0000 0.18859  0.50774  0.76648  Biso   1.000  C
  H162     1.0000 0.22800  0.53040  0.76470  Biso   1.000  H
  C239     1.0000 0.13228  0.54350  0.77449  Biso   1.000  C
  C240     1.0000 0.07402  0.50820  0.77886  Biso   1.000  C
  H163     1.0000 0.03610  0.53120  0.78560  Biso   1.000  H
  C241     1.0000 0.07191  0.43917  0.77327  Biso   1.000  C
  C242     1.0000 0.00725  0.40079  0.77090  Biso   1.000  C
  C243     1.0000 0.12903  0.40514  0.76506  Biso   1.000  C
  H164     1.0000 0.12800  0.35900  0.76220  Biso   1.000  H
  C244     1.0000 0.13295  0.61713  0.77400  Biso   1.000  C
  C245     1.0000 0.18980  0.65392  0.77680  Biso   1.000  C
  H165     1.0000 0.23100  0.63230  0.78240  Biso   1.000  H
  C246     1.0000 0.18770  0.72164  0.77160  Biso   1.000  C
  H166     1.0000 0.22820  0.74420  0.77590  Biso   1.000  H
  C247     1.0000 0.07738  0.72188  0.76140  Biso   1.000  C
  H167     1.0000 0.03700  0.74470  0.75720  Biso   1.000  H
  C248     1.0000 0.07568  0.65369  0.76790  Biso   1.000  C
  H168     1.0000 0.03520  0.63250  0.76810  Biso   1.000  H
  N31      1.0000 0.90468  0.33973  0.88584  Biso   1.000  N
  N32      1.0000 0.96409  0.33067  0.00887  Biso   1.000  N
  N33      1.0000 0.32061  0.37677  0.50150  Biso   1.000  N
  N34      1.0000 0.36857  0.37813  0.62983  Biso   1.000  N
  N35      1.0000 0.85064  0.37933  0.63710  Biso   1.000  N
  N36      1.0000 0.79545  0.38109  0.51198  Biso   1.000  N
  N37      1.0000 0.44593  0.35754  0.00890  Biso   1.000  N
  N38      1.0000 0.39876  0.36518  0.88084  Biso   1.000  N
  N39      1.0000 0.62229  0.76582  0.75268  Biso   1.000  N
  N40      1.0000 0.13148  0.75736  0.76073  Biso   1.000  N
  O25      1.0000 0.45835  0.44237  0.76419  Biso   1.000  O
  O26      1.0000 0.51187  0.34876  0.77190  Biso   1.000  O
  O27      1.0000 0.76035  0.35365  0.76423  Biso   1.000  O
  O28      1.0000 0.81366  0.44726  0.78271  Biso   1.000  O
  O29      1.0000 0.30232  0.43013  0.75637  Biso   1.000  O
  O30      1.0000 0.23860  0.34115  0.72660  Biso   1.000  O
  O31      1.0000 0.95551  0.43171  0.77658  Biso   1.000  O
  O32      1.0000 0.00797  0.34041  0.76230  Biso   1.000  O
