data_XOMCIL_clean
_audit_creation_date              2014-07-02
_audit_creation_method            'Materials Studio'
_symmetry_space_group_name_H-M    'P1'
_symmetry_Int_Tables_number       1
_symmetry_cell_setting            triclinic
loop_
_symmetry_equiv_pos_as_xyz
  x,y,z
_cell_length_a                    4.7308
_cell_length_b                    7.7734
_cell_length_c                    8.4118
_cell_angle_alpha                 62.4803
_cell_angle_beta                  89.9446
_cell_angle_gamma                 89.8801
loop_
_atom_site_label
_atom_site_type_symbol
_atom_site_fract_x
_atom_site_fract_y
_atom_site_fract_z
_atom_site_U_iso_or_equiv
_atom_site_adp_type
_atom_site_occupancy
Er1    Er    0.00200   0.20840   0.58660   0.01267  Uiso   1.00
Er2    Er    0.00200   0.79500   0.41340   0.01267  Uiso   1.00
C1     C     0.49900   0.03000   0.55200   0.01267  Uiso   1.00
C2     C     0.49900   0.58200   0.44800   0.01267  Uiso   1.00
C3     C     0.99500   0.90000   0.00000   0.01267  Uiso   1.00
C4     C     0.99700   0.09700  -0.00000   0.01267  Uiso   1.00
O1     O     0.50000   0.12630   0.64160   0.01267  Uiso   1.00
O2     O     0.01400   0.90300   0.85200   0.01267  Uiso   1.00
O3     O     0.01400   0.24500   0.84800   0.01267  Uiso   1.00
O4     O     0.26800   0.99400   0.50400   0.01267  Uiso   1.00
O5     O     0.74700   0.99300   0.50600   0.01267  Uiso   1.00
O6     O     0.50000   0.76790   0.35840   0.01267  Uiso   1.00
O7     O     0.01400   0.75500   0.14800   0.01267  Uiso   1.00
O8     O     0.01400   0.09300   0.15200   0.01267  Uiso   1.00
O9     O     0.26800   0.49800   0.49600   0.01267  Uiso   1.00
O10    O     0.74700   0.49900   0.49400   0.01267  Uiso   1.00
