data_image0
_cell_length_a       10.9495
_cell_length_b       22.0856
_cell_length_c       28.3314
_cell_angle_alpha    100.496
_cell_angle_beta     99.542
_cell_angle_gamma    101.674

_symmetry_space_group_name_H-M    "P 1"
_symmetry_int_tables_number       1

loop_
  _symmetry_equiv_pos_as_xyz
  'x, y, z'

loop_
  _atom_site_label
  _atom_site_occupancy
  _atom_site_fract_x
  _atom_site_fract_y
  _atom_site_fract_z
  _atom_site_thermal_displace_type
  _atom_site_B_iso_or_equiv
  _atom_site_type_symbol
  C1       1.0000 0.78840  0.89052  0.19229  Biso   1.000  C
  C2       1.0000 0.91310  0.92350  0.19615  Biso   1.000  C
  H1       1.0000 0.93230  0.96730  0.19980  Biso   1.000  H
  C3       1.0000 0.00860  0.89147  0.19454  Biso   1.000  C
  C4       1.0000 0.98170  0.82609  0.19031  Biso   1.000  C
  H2       1.0000 0.04660  0.80470  0.19010  Biso   1.000  H
  C5       1.0000 0.85650  0.79313  0.18638  Biso   1.000  C
  C6       1.0000 0.76020  0.82664  0.18849  Biso   1.000  C
  H3       1.0000 0.67700  0.80510  0.18730  Biso   1.000  H
  C7       1.0000 0.67770  0.92199  0.19416  Biso   1.000  C
  C8       1.0000 0.13240  0.92636  0.18959  Biso   1.000  C
  C9       1.0000 0.85530  0.62569  0.19860  Biso   1.000  C
  H4       1.0000 0.90210  0.60450  0.21750  Biso   1.000  H
  C10      1.0000 0.88940  0.69096  0.20930  Biso   1.000  C
  H5       1.0000 0.95600  0.71330  0.23540  Biso   1.000  H
  C11      1.0000 0.82250  0.72283  0.18030  Biso   1.000  C
  C12      1.0000 0.72130  0.68688  0.14253  Biso   1.000  C
  H6       1.0000 0.67440  0.70710  0.12280  Biso   1.000  H
  C13      1.0000 0.69120  0.62364  0.13452  Biso   1.000  C
  H7       1.0000 0.62290  0.60070  0.10930  Biso   1.000  H
  C14      1.0000 0.32930  0.49430  0.14907  Biso   1.000  C
  C15      1.0000 0.35620  0.55828  0.15420  Biso   1.000  C
  H8       1.0000 0.43760  0.57950  0.15280  Biso   1.000  H
  C16      1.0000 0.26370  0.59381  0.16158  Biso   1.000  C
  C17      1.0000 0.14210  0.56074  0.16427  Biso   1.000  C
  H9       1.0000 0.08040  0.58280  0.17050  Biso   1.000  H
  C18      1.0000 0.11280  0.49302  0.15750  Biso   1.000  C
  C19      1.0000 0.20170  0.45960  0.14820  Biso   1.000  C
  H10      1.0000 0.18050  0.41550  0.14150  Biso   1.000  H
  C20      1.0000 0.40370  0.75975  0.14973  Biso   1.000  C
  H11      1.0000 0.45610  0.77960  0.13150  Biso   1.000  H
  C21      1.0000 0.37520  0.69288  0.14296  Biso   1.000  C
  H12      1.0000 0.40970  0.66850  0.12080  Biso   1.000  H
  C22      1.0000 0.29240  0.66350  0.17068  Biso   1.000  C
  C23      1.0000 0.25240  0.70028  0.20443  Biso   1.000  C
  H13      1.0000 0.20460  0.68210  0.22470  Biso   1.000  H
  C24      1.0000 0.28150  0.76585  0.20961  Biso   1.000  C
  H14      1.0000 0.24890  0.79010  0.23260  Biso   1.000  H
  C25      1.0000 0.43260  0.46198  0.13884  Biso   1.000  C
  C26      1.0000 0.97510  0.46232  0.15513  Biso   1.000  C
  C27      1.0000 0.25400  0.87156  0.03686  Biso   1.000  C
  C28      1.0000 0.28820  0.81703  0.01428  Biso   1.000  C
  H15      1.0000 0.34590  0.80000  0.03240  Biso   1.000  H
  C29      1.0000 0.23630  0.78811  0.96476  Biso   1.000  C
  C30      1.0000 0.14540  0.81447  0.93909  Biso   1.000  C
  H16      1.0000 0.10750  0.79500  0.90650  Biso   1.000  H
  C31      1.0000 0.11100  0.86773  0.96045  Biso   1.000  C
  C32      1.0000 0.17300  0.89858  0.00910  Biso   1.000  C
  H17      1.0000 0.15930  0.93760  0.02270  Biso   1.000  H
  C33      1.0000 0.81590  0.87761  0.87528  Biso   1.000  C
  H18      1.0000 0.74370  0.84930  0.85490  Biso   1.000  H
  C34      1.0000 0.90360  0.85440  0.90164  Biso   1.000  C
  H19      1.0000 0.88890  0.81080  0.89890  Biso   1.000  H
  C35      1.0000 0.01430  0.89310  0.93251  Biso   1.000  C
  C36      1.0000 0.03370  0.96098  0.93308  Biso   1.000  C
  H20      1.0000 0.10820  0.99040  0.95030  Biso   1.000  H
  C37      1.0000 0.93600  0.97800  0.90686  Biso   1.000  C
  H21      1.0000 0.94380  0.02130  0.90950  Biso   1.000  H
  C38      1.0000 0.30700  0.90378  0.09004  Biso   1.000  C
  C39      1.0000 0.26780  0.73156  0.93740  Biso   1.000  C
  C40      1.0000 0.29950  0.15041  0.29076  Biso   1.000  C
  C41      1.0000 0.23160  0.18371  0.26587  Biso   1.000  C
  H22      1.0000 0.22530  0.17790  0.23210  Biso   1.000  H
  C42      1.0000 0.17110  0.22615  0.28897  Biso   1.000  C
  C43      1.0000 0.18970  0.23785  0.33969  Biso   1.000  C
  H23      1.0000 0.15130  0.26700  0.35570  Biso   1.000  H
  C44      1.0000 0.26450  0.20723  0.36773  Biso   1.000  C
  C45      1.0000 0.31660  0.16144  0.34233  Biso   1.000  C
  H24      1.0000 0.36260  0.13830  0.35950  Biso   1.000  H
  C46      1.0000 0.01690  0.29604  0.18947  Biso   1.000  C
  H25      1.0000 0.03010  0.30480  0.15960  Biso   1.000  H
  C47      1.0000 0.10370  0.26915  0.21574  Biso   1.000  C
  H26      1.0000 0.17200  0.25910  0.20310  Biso   1.000  H
  C48      1.0000 0.08590  0.25788  0.26055  Biso   1.000  C
  C49      1.0000 0.98320  0.27563  0.27913  Biso   1.000  C
  H27      1.0000 0.97060  0.27080  0.31000  Biso   1.000  H
  C50      1.0000 0.90260  0.30039  0.24970  Biso   1.000  C
  H28      1.0000 0.83440  0.31140  0.26190  Biso   1.000  H
  C51      1.0000 0.36020  0.10518  0.26179  Biso   1.000  C
  C52      1.0000 0.28180  0.22543  0.42197  Biso   1.000  C
  C53      1.0000 0.73280  0.19996  0.52956  Biso   1.000  C
  C54      1.0000 0.70800  0.13644  0.52598  Biso   1.000  C
  H29      1.0000 0.62740  0.11510  0.52820  Biso   1.000  H
  C55      1.0000 0.80080  0.10186  0.51897  Biso   1.000  C
  C56      1.0000 0.92370  0.13568  0.51713  Biso   1.000  C
  H30      1.0000 0.98610  0.11350  0.51250  Biso   1.000  H
  C57      1.0000 0.95420  0.20142  0.52209  Biso   1.000  C
  C58      1.0000 0.85860  0.23675  0.52886  Biso   1.000  C
  H31      1.0000 0.87640  0.28060  0.53260  Biso   1.000  H
  C59      1.0000 0.65940  0.93414  0.52732  Biso   1.000  C
  H32      1.0000 0.60630  0.91390  0.54510  Biso   1.000  H
  C60      1.0000 0.68930  0.00043  0.53595  Biso   1.000  C
  H33      1.0000 0.65590  0.02400  0.55900  Biso   1.000  H
  C61      1.0000 0.76840  0.03021  0.50995  Biso   1.000  C
  C62      1.0000 0.81970  0.99490  0.47573  Biso   1.000  C
  H34      1.0000 0.87610  0.01550  0.45930  Biso   1.000  H
  C63      1.0000 0.78680  0.92912  0.46613  Biso   1.000  C
  H35      1.0000 0.81730  0.90560  0.44200  Biso   1.000  H
  C64      1.0000 0.62650  0.23374  0.53354  Biso   1.000  C
  C65      1.0000 0.08470  0.23323  0.51940  Biso   1.000  C
  C66      1.0000 0.26230  0.46549  0.62764  Biso   1.000  C
  C67      1.0000 0.28250  0.47909  0.67805  Biso   1.000  C
  H36      1.0000 0.33300  0.45820  0.69580  Biso   1.000  H
  C68      1.0000 0.22790  0.52410  0.70309  Biso   1.000  C
  C69      1.0000 0.15300  0.55404  0.67552  Biso   1.000  C
  H37      1.0000 0.11950  0.58520  0.69180  Biso   1.000  H
  C70      1.0000 0.12520  0.53923  0.62340  Biso   1.000  C
  C71      1.0000 0.18630  0.49711  0.60013  Biso   1.000  C
  H38      1.0000 0.17730  0.48960  0.56620  Biso   1.000  H
  C72      1.0000 0.85030  0.61271  0.58694  Biso   1.000  C
  H39      1.0000 0.78450  0.62540  0.59990  Biso   1.000  H
  C73      1.0000 0.93260  0.58468  0.61472  Biso   1.000  C
  H40      1.0000 0.91870  0.57680  0.64480  Biso   1.000  H
  C74      1.0000 0.03650  0.56879  0.59609  Biso   1.000  C
  C75      1.0000 0.05180  0.58039  0.55004  Biso   1.000  C
  H41      1.0000 0.11830  0.56970  0.53650  Biso   1.000  H
  C76      1.0000 0.96510  0.60835  0.52490  Biso   1.000  C
  H42      1.0000 0.97750  0.61810  0.49520  Biso   1.000  H
  C77      1.0000 0.31660  0.41751  0.59909  Biso   1.000  C
  C78      1.0000 0.24980  0.54243  0.75735  Biso   1.000  C
  C79      1.0000 0.16590  0.47650  0.93624  Biso   1.000  C
  H43      1.0000 0.09920  0.45480  0.91000  Biso   1.000  H
  C80      1.0000 0.15120  0.47597  0.98441  Biso   1.000  C
  H44      1.0000 0.07520  0.45390  0.99020  Biso   1.000  H
  C81      1.0000 0.25140  0.50877  0.02356  Biso   1.000  C
  H45      1.0000 0.24280  0.50860  0.05570  Biso   1.000  H
  C82      1.0000 0.36580  0.54218  0.01433  Biso   1.000  C
  H46      1.0000 0.43280  0.56450  0.04030  Biso   1.000  H
  C83      1.0000 0.37800  0.54155  0.96626  Biso   1.000  C
  H47      1.0000 0.45370  0.56320  0.96010  Biso   1.000  H
  N1       1.0000 0.75860  0.59134  0.16255  Biso   1.000  N
  N2       1.0000 0.35360  0.79555  0.18336  Biso   1.000  N
  N3       1.0000 0.82930  0.93923  0.87749  Biso   1.000  N
  N4       1.0000 0.91310  0.30985  0.20647  Biso   1.000  N
  N5       1.0000 0.70740  0.89832  0.49296  Biso   1.000  N
  N6       1.0000 0.86420  0.62157  0.54263  Biso   1.000  N
  N7       1.0000 0.27870  0.50901  0.92756  Biso   1.000  N
  Ni1      1.0000 0.39904  0.89303  0.19219  Biso   1.000  Ni
  Ni2      1.0000 0.31182  0.02689  0.16141  Biso   1.000  Ni
  Ni3      1.0000 0.34370  0.20096  0.52202  Biso   1.000  Ni
  Ni4      1.0000 0.26586  0.33915  0.49764  Biso   1.000  Ni
  Ni5      1.0000 0.21197  0.65038  0.83489  Biso   1.000  Ni
  Ni6      1.0000 0.28698  0.50900  0.85453  Biso   1.000  Ni
  O1       1.0000 0.59340  0.89519  0.21252  Biso   1.000  O
  O2       1.0000 0.67950  0.97266  0.17958  Biso   1.000  O
  O3       1.0000 0.17240  0.98400  0.18778  Biso   1.000  O
  O4       1.0000 0.22040  0.88954  0.19564  Biso   1.000  O
  O5       1.0000 0.52960  0.49340  0.13139  Biso   1.000  O
  O6       1.0000 0.41950  0.40267  0.14091  Biso   1.000  O
  O7       1.0000 0.94720  0.40626  0.15143  Biso   1.000  O
  O8       1.0000 0.90090  0.49841  0.16119  Biso   1.000  O
  O9       1.0000 0.27830  0.95595  0.10262  Biso   1.000  O
  O10      1.0000 0.36720  0.87643  0.11689  Biso   1.000  O
  O11      1.0000 0.33660  0.70199  0.95866  Biso   1.000  O
  O12      1.0000 0.21470  0.71644  0.89247  Biso   1.000  O
  O13      1.0000 0.34120  0.10227  0.21667  Biso   1.000  O
  O14      1.0000 0.41090  0.06695  0.28305  Biso   1.000  O
  O15      1.0000 0.34270  0.19684  0.44784  Biso   1.000  O
  O16      1.0000 0.23810  0.27034  0.43774  Biso   1.000  O
  O17      1.0000 0.52430  0.19560  0.53378  Biso   1.000  O
  O18      1.0000 0.64260  0.29076  0.53288  Biso   1.000  O
  O19      1.0000 0.15670  0.19605  0.51300  Biso   1.000  O
  O20      1.0000 0.11900  0.29313  0.52340  Biso   1.000  O
  O21      1.0000 0.30080  0.41641  0.55306  Biso   1.000  O
  O22      1.0000 0.37220  0.38404  0.61892  Biso   1.000  O
  O23      1.0000 0.29580  0.50819  0.78273  Biso   1.000  O
  O24      1.0000 0.21110  0.58980  0.77234  Biso   1.000  O
  O25      1.0000 0.45490  0.99417  0.20396  Biso   1.000  O
  H48      1.0000 0.52590  0.00520  0.19570  Biso   1.000  H
  H49      1.0000 0.46380  0.01080  0.23420  Biso   1.000  H
  O26      1.0000 0.40040  0.30218  0.54000  Biso   1.000  O
  H50      1.0000 0.47360  0.31420  0.53370  Biso   1.000  H
  H51      1.0000 0.40550  0.31600  0.57050  Biso   1.000  H
  O27      1.0000 0.34760  0.61247  0.87619  Biso   1.000  O
  H52      1.0000 0.35120  0.62490  0.90670  Biso   1.000  H
  H53      1.0000 0.42120  0.62520  0.87050  Biso   1.000  H
  C84      1.0000 0.21160  0.10948  0.80771  Biso   1.000  C
  C85      1.0000 0.08690  0.07650  0.80385  Biso   1.000  C
  H54      1.0000 0.06770  0.03270  0.80020  Biso   1.000  H
  C86      1.0000 0.99140  0.10853  0.80546  Biso   1.000  C
  C87      1.0000 0.01830  0.17391  0.80969  Biso   1.000  C
  H55      1.0000 0.95340  0.19530  0.80990  Biso   1.000  H
  C88      1.0000 0.14350  0.20687  0.81362  Biso   1.000  C
  C89      1.0000 0.23980  0.17336  0.81151  Biso   1.000  C
  H56      1.0000 0.32300  0.19490  0.81270  Biso   1.000  H
  C90      1.0000 0.32230  0.07801  0.80584  Biso   1.000  C
  C91      1.0000 0.86760  0.07364  0.81041  Biso   1.000  C
  C92      1.0000 0.14470  0.37431  0.80140  Biso   1.000  C
  H57      1.0000 0.09790  0.39550  0.78250  Biso   1.000  H
  C93      1.0000 0.11060  0.30904  0.79070  Biso   1.000  C
  H58      1.0000 0.04400  0.28670  0.76460  Biso   1.000  H
  C94      1.0000 0.17750  0.27717  0.81970  Biso   1.000  C
  C95      1.0000 0.27870  0.31312  0.85747  Biso   1.000  C
  H59      1.0000 0.32560  0.29290  0.87720  Biso   1.000  H
  C96      1.0000 0.30880  0.37636  0.86548  Biso   1.000  C
  H60      1.0000 0.37710  0.39930  0.89070  Biso   1.000  H
  C97      1.0000 0.67070  0.50570  0.85093  Biso   1.000  C
  C98      1.0000 0.64380  0.44172  0.84580  Biso   1.000  C
  H61      1.0000 0.56240  0.42050  0.84720  Biso   1.000  H
  C99      1.0000 0.73630  0.40619  0.83842  Biso   1.000  C
  C100     1.0000 0.85790  0.43926  0.83573  Biso   1.000  C
  H62      1.0000 0.91960  0.41720  0.82950  Biso   1.000  H
  C101     1.0000 0.88720  0.50698  0.84250  Biso   1.000  C
  C102     1.0000 0.79830  0.54040  0.85180  Biso   1.000  C
  H63      1.0000 0.81950  0.58450  0.85850  Biso   1.000  H
  C103     1.0000 0.59630  0.24025  0.85027  Biso   1.000  C
  H64      1.0000 0.54390  0.22040  0.86850  Biso   1.000  H
  C104     1.0000 0.62480  0.30712  0.85704  Biso   1.000  C
  H65      1.0000 0.59030  0.33150  0.87920  Biso   1.000  H
  C105     1.0000 0.70760  0.33650  0.82932  Biso   1.000  C
  C106     1.0000 0.74760  0.29972  0.79557  Biso   1.000  C
  H66      1.0000 0.79540  0.31790  0.77530  Biso   1.000  H
  C107     1.0000 0.71850  0.23415  0.79039  Biso   1.000  C
  H67      1.0000 0.75110  0.20990  0.76740  Biso   1.000  H
  C108     1.0000 0.56740  0.53802  0.86116  Biso   1.000  C
  C109     1.0000 0.02490  0.53768  0.84487  Biso   1.000  C
  C110     1.0000 0.74600  0.12844  0.96314  Biso   1.000  C
  C111     1.0000 0.71180  0.18297  0.98572  Biso   1.000  C
  H68      1.0000 0.65410  0.20000  0.96760  Biso   1.000  H
  C112     1.0000 0.76370  0.21189  0.03524  Biso   1.000  C
  C113     1.0000 0.85460  0.18553  0.06091  Biso   1.000  C
  H69      1.0000 0.89250  0.20500  0.09350  Biso   1.000  H
  C114     1.0000 0.88900  0.13227  0.03955  Biso   1.000  C
  C115     1.0000 0.82700  0.10142  0.99090  Biso   1.000  C
  H70      1.0000 0.84070  0.06240  0.97730  Biso   1.000  H
  C116     1.0000 0.18410  0.12239  0.12472  Biso   1.000  C
  H71      1.0000 0.25630  0.15070  0.14510  Biso   1.000  H
  C117     1.0000 0.09640  0.14560  0.09836  Biso   1.000  C
  H72      1.0000 0.11110  0.18920  0.10110  Biso   1.000  H
  C118     1.0000 0.98570  0.10690  0.06749  Biso   1.000  C
  C119     1.0000 0.96630  0.03902  0.06692  Biso   1.000  C
  H73      1.0000 0.89180  0.00960  0.04970  Biso   1.000  H
  C120     1.0000 0.06400  0.02200  0.09314  Biso   1.000  C
  H74      1.0000 0.05620  0.97870  0.09050  Biso   1.000  H
  C121     1.0000 0.69300  0.09622  0.90996  Biso   1.000  C
  C122     1.0000 0.73220  0.26844  0.06260  Biso   1.000  C
  C123     1.0000 0.70050  0.84959  0.70924  Biso   1.000  C
  C124     1.0000 0.76840  0.81629  0.73413  Biso   1.000  C
  H75      1.0000 0.77470  0.82210  0.76790  Biso   1.000  H
  C125     1.0000 0.82890  0.77385  0.71103  Biso   1.000  C
  C126     1.0000 0.81030  0.76215  0.66031  Biso   1.000  C
  H76      1.0000 0.84870  0.73300  0.64430  Biso   1.000  H
  C127     1.0000 0.73550  0.79277  0.63227  Biso   1.000  C
  C128     1.0000 0.68340  0.83856  0.65767  Biso   1.000  C
  H77      1.0000 0.63740  0.86170  0.64050  Biso   1.000  H
  C129     1.0000 0.98310  0.70396  0.81053  Biso   1.000  C
  H78      1.0000 0.96990  0.69520  0.84040  Biso   1.000  H
  C130     1.0000 0.89630  0.73085  0.78426  Biso   1.000  C
  H79      1.0000 0.82800  0.74090  0.79690  Biso   1.000  H
  C131     1.0000 0.91410  0.74212  0.73945  Biso   1.000  C
  C132     1.0000 0.01680  0.72437  0.72087  Biso   1.000  C
  H80      1.0000 0.02940  0.72920  0.69000  Biso   1.000  H
  C133     1.0000 0.09740  0.69961  0.75030  Biso   1.000  C
  H81      1.0000 0.16560  0.68860  0.73810  Biso   1.000  H
  C134     1.0000 0.63980  0.89482  0.73821  Biso   1.000  C
  C135     1.0000 0.71820  0.77457  0.57803  Biso   1.000  C
  C136     1.0000 0.26720  0.80004  0.47044  Biso   1.000  C
  C137     1.0000 0.29200  0.86356  0.47402  Biso   1.000  C
  H82      1.0000 0.37260  0.88490  0.47180  Biso   1.000  H
  C138     1.0000 0.19920  0.89814  0.48103  Biso   1.000  C
  C139     1.0000 0.07630  0.86432  0.48287  Biso   1.000  C
  H83      1.0000 0.01390  0.88650  0.48750  Biso   1.000  H
  C140     1.0000 0.04580  0.79858  0.47791  Biso   1.000  C
  C141     1.0000 0.14140  0.76325  0.47114  Biso   1.000  C
  H84      1.0000 0.12360  0.71940  0.46740  Biso   1.000  H
  C142     1.0000 0.34060  0.06586  0.47268  Biso   1.000  C
  H85      1.0000 0.39370  0.08610  0.45490  Biso   1.000  H
  C143     1.0000 0.31070  0.99957  0.46405  Biso   1.000  C
  H86      1.0000 0.34410  0.97600  0.44100  Biso   1.000  H
  C144     1.0000 0.23160  0.96979  0.49005  Biso   1.000  C
  C145     1.0000 0.18030  0.00510  0.52427  Biso   1.000  C
  H87      1.0000 0.12390  0.98450  0.54070  Biso   1.000  H
  C146     1.0000 0.21320  0.07088  0.53387  Biso   1.000  C
  H88      1.0000 0.18270  0.09440  0.55800  Biso   1.000  H
  C147     1.0000 0.37350  0.76626  0.46646  Biso   1.000  C
  C148     1.0000 0.91530  0.76677  0.48060  Biso   1.000  C
  C149     1.0000 0.73770  0.53451  0.37236  Biso   1.000  C
  C150     1.0000 0.71750  0.52091  0.32195  Biso   1.000  C
  H89      1.0000 0.66700  0.54180  0.30420  Biso   1.000  H
  C151     1.0000 0.77210  0.47590  0.29691  Biso   1.000  C
  C152     1.0000 0.84700  0.44596  0.32448  Biso   1.000  C
  H90      1.0000 0.88050  0.41480  0.30820  Biso   1.000  H
  C153     1.0000 0.87480  0.46077  0.37660  Biso   1.000  C
  C154     1.0000 0.81370  0.50289  0.39987  Biso   1.000  C
  H91      1.0000 0.82270  0.51040  0.43380  Biso   1.000  H
  C155     1.0000 0.14970  0.38729  0.41306  Biso   1.000  C
  H92      1.0000 0.21550  0.37460  0.40010  Biso   1.000  H
  C156     1.0000 0.06740  0.41532  0.38528  Biso   1.000  C
  H93      1.0000 0.08130  0.42320  0.35520  Biso   1.000  H
  C157     1.0000 0.96350  0.43121  0.40391  Biso   1.000  C
  C158     1.0000 0.94820  0.41961  0.44996  Biso   1.000  C
  H94      1.0000 0.88170  0.43030  0.46350  Biso   1.000  H
  C159     1.0000 0.03490  0.39165  0.47510  Biso   1.000  C
  H95      1.0000 0.02250  0.38190  0.50480  Biso   1.000  H
  C160     1.0000 0.68340  0.58249  0.40091  Biso   1.000  C
  C161     1.0000 0.75020  0.45757  0.24265  Biso   1.000  C
  C162     1.0000 0.83410  0.52350  0.06376  Biso   1.000  C
  H96      1.0000 0.90080  0.54520  0.09000  Biso   1.000  H
  C163     1.0000 0.84880  0.52403  0.01559  Biso   1.000  C
  H97      1.0000 0.92480  0.54610  0.00980  Biso   1.000  H
  C164     1.0000 0.74860  0.49123  0.97644  Biso   1.000  C
  H98      1.0000 0.75720  0.49140  0.94430  Biso   1.000  H
  C165     1.0000 0.63420  0.45782  0.98567  Biso   1.000  C
  H99      1.0000 0.56720  0.43550  0.95970  Biso   1.000  H
  C166     1.0000 0.62200  0.45845  0.03374  Biso   1.000  C
  H100     1.0000 0.54630  0.43680  0.03990  Biso   1.000  H
  N8       1.0000 0.24140  0.40866  0.83745  Biso   1.000  N
  N9       1.0000 0.64640  0.20445  0.81664  Biso   1.000  N
  N10      1.0000 0.17070  0.06077  0.12251  Biso   1.000  N
  N11      1.0000 0.08690  0.69015  0.79353  Biso   1.000  N
  N12      1.0000 0.29260  0.10168  0.50704  Biso   1.000  N
  N13      1.0000 0.13580  0.37843  0.45737  Biso   1.000  N
  N14      1.0000 0.72130  0.49099  0.07244  Biso   1.000  N
  Ni7      1.0000 0.60096  0.10697  0.80781  Biso   1.000  Ni
  Ni8      1.0000 0.68818  0.97311  0.83859  Biso   1.000  Ni
  Ni9      1.0000 0.65630  0.79904  0.47798  Biso   1.000  Ni
  Ni10     1.0000 0.73414  0.66085  0.50236  Biso   1.000  Ni
  Ni11     1.0000 0.78803  0.34962  0.16511  Biso   1.000  Ni
  Ni12     1.0000 0.71302  0.49100  0.14547  Biso   1.000  Ni
  O28      1.0000 0.40660  0.10481  0.78748  Biso   1.000  O
  O29      1.0000 0.32050  0.02734  0.82042  Biso   1.000  O
  O30      1.0000 0.82760  0.01600  0.81222  Biso   1.000  O
  O31      1.0000 0.77960  0.11046  0.80436  Biso   1.000  O
  O32      1.0000 0.47040  0.50660  0.86861  Biso   1.000  O
  O33      1.0000 0.58050  0.59733  0.85909  Biso   1.000  O
  O34      1.0000 0.05280  0.59374  0.84857  Biso   1.000  O
  O35      1.0000 0.09910  0.50159  0.83881  Biso   1.000  O
  O36      1.0000 0.72170  0.04405  0.89738  Biso   1.000  O
  O37      1.0000 0.63280  0.12357  0.88311  Biso   1.000  O
  O38      1.0000 0.66340  0.29801  0.04134  Biso   1.000  O
  O39      1.0000 0.78530  0.28356  0.10753  Biso   1.000  O
  O40      1.0000 0.65880  0.89773  0.78333  Biso   1.000  O
  O41      1.0000 0.58910  0.93305  0.71695  Biso   1.000  O
  O42      1.0000 0.65730  0.80316  0.55216  Biso   1.000  O
  O43      1.0000 0.76190  0.72966  0.56226  Biso   1.000  O
  O44      1.0000 0.47570  0.80440  0.46622  Biso   1.000  O
  O45      1.0000 0.35740  0.70924  0.46712  Biso   1.000  O
  O46      1.0000 0.84330  0.80395  0.48700  Biso   1.000  O
  O47      1.0000 0.88100  0.70687  0.47660  Biso   1.000  O
  O48      1.0000 0.69920  0.58359  0.44694  Biso   1.000  O
  O49      1.0000 0.62780  0.61596  0.38108  Biso   1.000  O
  O50      1.0000 0.70420  0.49181  0.21727  Biso   1.000  O
  O51      1.0000 0.78890  0.41020  0.22766  Biso   1.000  O
  O52      1.0000 0.54510  0.00583  0.79604  Biso   1.000  O
  H101     1.0000 0.47410  0.99480  0.80430  Biso   1.000  H
  H102     1.0000 0.53620  0.98920  0.76580  Biso   1.000  H
  O53      1.0000 0.59960  0.69782  0.46000  Biso   1.000  O
  H103     1.0000 0.52640  0.68580  0.46630  Biso   1.000  H
  H104     1.0000 0.59450  0.68400  0.42950  Biso   1.000  H
  O54      1.0000 0.65240  0.38753  0.12381  Biso   1.000  O
  H105     1.0000 0.64880  0.37510  0.09330  Biso   1.000  H
  H106     1.0000 0.57880  0.37480  0.12950  Biso   1.000  H
