data_image0
_cell_length_a       15.825
_cell_length_b       15.825
_cell_length_c       43.703
_cell_angle_alpha    90
_cell_angle_beta     90
_cell_angle_gamma    120

_symmetry_space_group_name_H-M    "P 1"
_symmetry_int_tables_number       1

loop_
  _symmetry_equiv_pos_as_xyz
  'x, y, z'

loop_
  _atom_site_label
  _atom_site_occupancy
  _atom_site_fract_x
  _atom_site_fract_y
  _atom_site_fract_z
  _atom_site_thermal_displace_type
  _atom_site_B_iso_or_equiv
  _atom_site_type_symbol
  C1       1.0000 0.58777  0.66765  0.03511  Biso   1.000  C
  C2       1.0000 0.63950  0.65174  0.05893  Biso   1.000  C
  H1       1.0000 0.60790  0.62490  0.07790  Biso   1.000  H
  C3       1.0000 0.73437  0.67480  0.05479  Biso   1.000  C
  H2       1.0000 0.76730  0.66140  0.07060  Biso   1.000  H
  C4       1.0000 0.78456  0.71920  0.02689  Biso   1.000  C
  H3       1.0000 0.85090  0.73610  0.02450  Biso   1.000  H
  C5       1.0000 0.73790  0.73747  0.00352  Biso   1.000  C
  H4       1.0000 0.77150  0.76880  0.98530  Biso   1.000  H
  C6       1.0000 0.64003  0.70877  0.00738  Biso   1.000  C
  C7       1.0000 0.49610  0.69965  0.98800  Biso   1.000  C
  H5       1.0000 0.46090  0.70840  0.97190  Biso   1.000  H
  C8       1.0000 0.45110  0.66488  0.01676  Biso   1.000  C
  C9       1.0000 0.35199  0.65086  0.02149  Biso   1.000  C
  C10      1.0000 0.30387  0.67816  0.99715  Biso   1.000  C
  H6       1.0000 0.35400  0.73670  0.98620  Biso   1.000  H
  H7       1.0000 0.25750  0.69490  0.00680  Biso   1.000  H
  C11      1.0000 0.24940  0.59610  0.97422  Biso   1.000  C
  H8       1.0000 0.29440  0.57720  0.96530  Biso   1.000  H
  H9       1.0000 0.22250  0.61840  0.95800  Biso   1.000  H
  H10      1.0000 0.19610  0.53980  0.98460  Biso   1.000  H
  C12      1.0000 0.12920  0.37040  0.07719  Biso   1.000  C
  H11      1.0000 0.18470  0.40900  0.09080  Biso   1.000  H
  H12      1.0000 0.13350  0.31470  0.06920  Biso   1.000  H
  H13      1.0000 0.06820  0.34670  0.08860  Biso   1.000  H
  C13      1.0000 0.13125  0.43402  0.05054  Biso   1.000  C
  H14      1.0000 0.18290  0.44270  0.03600  Biso   1.000  H
  H15      1.0000 0.06800  0.39990  0.03960  Biso   1.000  H
  C14      1.0000 0.14946  0.53143  0.06048  Biso   1.000  C
  C15      1.0000 0.07175  0.54193  0.07609  Biso   1.000  C
  C16      1.0000 0.97662  0.46389  0.07707  Biso   1.000  C
  H16      1.0000 0.96250  0.40320  0.06840  Biso   1.000  H
  C17      1.0000 0.92571  0.56140  0.10347  Biso   1.000  C
  C18      1.0000 0.85259  0.57504  0.11522  Biso   1.000  C
  H17      1.0000 0.78640  0.52410  0.11470  Biso   1.000  H
  C19      1.0000 0.87766  0.66320  0.12751  Biso   1.000  C
  H18      1.0000 0.82820  0.67330  0.13610  Biso   1.000  H
  C20      1.0000 0.97570  0.74090  0.12796  Biso   1.000  C
  H19      1.0000 0.99150  0.80170  0.13700  Biso   1.000  H
  C21      1.0000 0.04601  0.72796  0.11559  Biso   1.000  C
  H20      1.0000 0.11140  0.78060  0.11570  Biso   1.000  H
  C22      1.0000 0.02517  0.63737  0.10232  Biso   1.000  C
  N1       1.0000 0.58633  0.71986  0.98352  Biso   1.000  N
  N2       1.0000 0.49602  0.64793  0.03976  Biso   1.000  N
  N3       1.0000 0.31257  0.61222  0.04712  Biso   1.000  N
  N4       1.0000 0.22864  0.61122  0.05670  Biso   1.000  N
  N5       1.0000 0.09657  0.62856  0.08927  Biso   1.000  N
  N6       1.0000 0.90537  0.47225  0.08982  Biso   1.000  N
  O1       1.0000 0.81556  0.39857  0.09033  Biso   1.000  O
  O2       1.0000 0.62952  0.74915  0.95675  Biso   1.000  O
  C23      1.0000 0.33235  0.92012  0.70178  Biso   1.000  C
  C24      1.0000 0.34826  0.98776  0.72560  Biso   1.000  C
  H21      1.0000 0.37510  0.98300  0.74457  Biso   1.000  H
  C25      1.0000 0.32520  0.05957  0.72146  Biso   1.000  C
  H22      1.0000 0.33860  0.10590  0.73727  Biso   1.000  H
  C26      1.0000 0.28080  0.06536  0.69356  Biso   1.000  C
  H23      1.0000 0.26390  0.11480  0.69117  Biso   1.000  H
  C27      1.0000 0.26253  0.00043  0.67019  Biso   1.000  C
  H24      1.0000 0.23120  0.00270  0.65197  Biso   1.000  H
  C28      1.0000 0.29123  0.93126  0.67405  Biso   1.000  C
  C29      1.0000 0.30035  0.79645  0.65467  Biso   1.000  C
  H25      1.0000 0.29160  0.75250  0.63857  Biso   1.000  H
  C30      1.0000 0.33512  0.78622  0.68343  Biso   1.000  C
  C31      1.0000 0.34914  0.70113  0.68816  Biso   1.000  C
  C32      1.0000 0.32184  0.62571  0.66382  Biso   1.000  C
  H26      1.0000 0.26330  0.61730  0.65287  Biso   1.000  H
  H27      1.0000 0.30510  0.56260  0.67347  Biso   1.000  H
  C33      1.0000 0.40390  0.65330  0.64089  Biso   1.000  C
  H28      1.0000 0.42280  0.71720  0.63197  Biso   1.000  H
  H29      1.0000 0.38160  0.60410  0.62467  Biso   1.000  H
  H30      1.0000 0.46020  0.65630  0.65127  Biso   1.000  H
  C34      1.0000 0.62960  0.75880  0.74386  Biso   1.000  C
  H31      1.0000 0.59100  0.77570  0.75747  Biso   1.000  H
  H32      1.0000 0.68530  0.81880  0.73587  Biso   1.000  H
  H33      1.0000 0.65330  0.72150  0.75527  Biso   1.000  H
  C35      1.0000 0.56598  0.69723  0.71721  Biso   1.000  C
  H34      1.0000 0.55730  0.74020  0.70267  Biso   1.000  H
  H35      1.0000 0.60010  0.66810  0.70627  Biso   1.000  H
  C36      1.0000 0.46857  0.61803  0.72715  Biso   1.000  C
  C37      1.0000 0.45807  0.52982  0.74276  Biso   1.000  C
  C38      1.0000 0.53611  0.51273  0.74374  Biso   1.000  C
  H36      1.0000 0.59680  0.55930  0.73507  Biso   1.000  H
  C39      1.0000 0.43860  0.36431  0.77014  Biso   1.000  C
  C40      1.0000 0.42496  0.27755  0.78189  Biso   1.000  C
  H37      1.0000 0.47590  0.26230  0.78137  Biso   1.000  H
  C41      1.0000 0.33680  0.21446  0.79418  Biso   1.000  C
  H38      1.0000 0.32670  0.15490  0.80277  Biso   1.000  H
  C42      1.0000 0.25910  0.23480  0.79463  Biso   1.000  C
  H39      1.0000 0.19830  0.18980  0.80367  Biso   1.000  H
  C43      1.0000 0.27204  0.31805  0.78226  Biso   1.000  C
  H40      1.0000 0.21940  0.33080  0.78237  Biso   1.000  H
  C44      1.0000 0.36263  0.38780  0.76899  Biso   1.000  C
  N7       1.0000 0.28014  0.86647  0.65019  Biso   1.000  N
  N8       1.0000 0.35207  0.84809  0.70643  Biso   1.000  N
  N9       1.0000 0.38778  0.70035  0.71379  Biso   1.000  N
  N10      1.0000 0.38878  0.61742  0.72337  Biso   1.000  N
  N11      1.0000 0.37144  0.46801  0.75594  Biso   1.000  N
  N12      1.0000 0.52775  0.43312  0.75649  Biso   1.000  N
  O3       1.0000 0.60143  0.41699  0.75700  Biso   1.000  O
  O4       1.0000 0.25085  0.88037  0.62342  Biso   1.000  O
  C45      1.0000 0.07988  0.41223  0.36844  Biso   1.000  C
  C46      1.0000 0.01224  0.36050  0.39226  Biso   1.000  C
  H41      1.0000 0.01700  0.39210  0.41123  Biso   1.000  H
  C47      1.0000 0.94043  0.26563  0.38812  Biso   1.000  C
  H42      1.0000 0.89410  0.23270  0.40393  Biso   1.000  H
  C48      1.0000 0.93464  0.21544  0.36022  Biso   1.000  C
  H43      1.0000 0.88520  0.14910  0.35783  Biso   1.000  H
  C49      1.0000 0.99957  0.26210  0.33685  Biso   1.000  C
  H44      1.0000 0.99730  0.22850  0.31863  Biso   1.000  H
  C50      1.0000 0.06874  0.35997  0.34071  Biso   1.000  C
  C51      1.0000 0.20355  0.50390  0.32133  Biso   1.000  C
  H45      1.0000 0.24750  0.53910  0.30523  Biso   1.000  H
  C52      1.0000 0.21378  0.54890  0.35009  Biso   1.000  C
  C53      1.0000 0.29887  0.64801  0.35482  Biso   1.000  C
  C54      1.0000 0.37429  0.69613  0.33048  Biso   1.000  C
  H46      1.0000 0.38270  0.64600  0.31953  Biso   1.000  H
  H47      1.0000 0.43740  0.74250  0.34013  Biso   1.000  H
  C55      1.0000 0.34670  0.75060  0.30755  Biso   1.000  C
  H48      1.0000 0.28280  0.70560  0.29863  Biso   1.000  H
  H49      1.0000 0.39590  0.77750  0.29133  Biso   1.000  H
  H50      1.0000 0.34370  0.80390  0.31793  Biso   1.000  H
  C56      1.0000 0.24120  0.87080  0.41052  Biso   1.000  C
  H51      1.0000 0.22430  0.81530  0.42413  Biso   1.000  H
  H52      1.0000 0.18120  0.86650  0.40253  Biso   1.000  H
  H53      1.0000 0.27850  0.93180  0.42193  Biso   1.000  H
  C57      1.0000 0.30277  0.86875  0.38387  Biso   1.000  C
  H54      1.0000 0.25980  0.81710  0.36933  Biso   1.000  H
  H55      1.0000 0.33190  0.93200  0.37293  Biso   1.000  H
  C58      1.0000 0.38197  0.85054  0.39381  Biso   1.000  C
  C59      1.0000 0.47018  0.92825  0.40942  Biso   1.000  C
  C60      1.0000 0.48727  0.02338  0.41040  Biso   1.000  C
  H56      1.0000 0.44070  0.03750  0.40173  Biso   1.000  H
  C61      1.0000 0.63569  0.07429  0.43680  Biso   1.000  C
  C62      1.0000 0.72245  0.14741  0.44855  Biso   1.000  C
  H57      1.0000 0.73770  0.21360  0.44803  Biso   1.000  H
  C63      1.0000 0.78554  0.12234  0.46084  Biso   1.000  C
  H58      1.0000 0.84510  0.17180  0.46943  Biso   1.000  H
  C64      1.0000 0.76520  0.02430  0.46129  Biso   1.000  C
  H59      1.0000 0.81020  0.00850  0.47033  Biso   1.000  H
  C65      1.0000 0.68195  0.95399  0.44892  Biso   1.000  C
  H60      1.0000 0.66920  0.88860  0.44903  Biso   1.000  H
  C66      1.0000 0.61220  0.97483  0.43565  Biso   1.000  C
  N13      1.0000 0.13353  0.41367  0.31685  Biso   1.000  N
  N14      1.0000 0.15191  0.50398  0.37309  Biso   1.000  N
  N15      1.0000 0.29965  0.68743  0.38045  Biso   1.000  N
  N16      1.0000 0.38258  0.77136  0.39003  Biso   1.000  N
  N17      1.0000 0.53199  0.90343  0.42260  Biso   1.000  N
  N18      1.0000 0.56688  0.09463  0.42315  Biso   1.000  N
  O5       1.0000 0.58301  0.18444  0.42366  Biso   1.000  O
  O6       1.0000 0.11963  0.37048  0.29008  Biso   1.000  O
  C67      1.0000 0.33235  0.41223  0.13156  Biso   1.000  C
  C68      1.0000 0.34826  0.36050  0.10774  Biso   1.000  C
  H61      1.0000 0.37510  0.39210  0.08877  Biso   1.000  H
  C69      1.0000 0.32520  0.26563  0.11188  Biso   1.000  C
  H62      1.0000 0.33860  0.23270  0.09607  Biso   1.000  H
  C70      1.0000 0.28080  0.21544  0.13978  Biso   1.000  C
  H63      1.0000 0.26390  0.14910  0.14217  Biso   1.000  H
  C71      1.0000 0.26253  0.26210  0.16315  Biso   1.000  C
  H64      1.0000 0.23120  0.22850  0.18137  Biso   1.000  H
  C72      1.0000 0.29123  0.35997  0.15929  Biso   1.000  C
  C73      1.0000 0.30035  0.50390  0.17867  Biso   1.000  C
  H65      1.0000 0.29160  0.53910  0.19477  Biso   1.000  H
  C74      1.0000 0.33512  0.54890  0.14991  Biso   1.000  C
  C75      1.0000 0.34914  0.64801  0.14518  Biso   1.000  C
  C76      1.0000 0.32184  0.69613  0.16952  Biso   1.000  C
  H66      1.0000 0.26330  0.64600  0.18047  Biso   1.000  H
  H67      1.0000 0.30510  0.74250  0.15987  Biso   1.000  H
  C77      1.0000 0.40390  0.75060  0.19245  Biso   1.000  C
  H68      1.0000 0.42280  0.70560  0.20137  Biso   1.000  H
  H69      1.0000 0.38160  0.77750  0.20867  Biso   1.000  H
  H70      1.0000 0.46020  0.80390  0.18207  Biso   1.000  H
  C78      1.0000 0.62960  0.87080  0.08948  Biso   1.000  C
  H71      1.0000 0.59100  0.81530  0.07587  Biso   1.000  H
  H72      1.0000 0.68530  0.86650  0.09747  Biso   1.000  H
  H73      1.0000 0.65330  0.93180  0.07807  Biso   1.000  H
  C79      1.0000 0.56598  0.86875  0.11613  Biso   1.000  C
  H74      1.0000 0.55730  0.81710  0.13067  Biso   1.000  H
  H75      1.0000 0.60010  0.93200  0.12707  Biso   1.000  H
  C80      1.0000 0.46857  0.85054  0.10619  Biso   1.000  C
  C81      1.0000 0.45807  0.92825  0.09058  Biso   1.000  C
  C82      1.0000 0.53611  0.02338  0.08960  Biso   1.000  C
  H76      1.0000 0.59680  0.03750  0.09827  Biso   1.000  H
  C83      1.0000 0.43860  0.07429  0.06320  Biso   1.000  C
  C84      1.0000 0.42496  0.14741  0.05145  Biso   1.000  C
  H77      1.0000 0.47590  0.21360  0.05197  Biso   1.000  H
  C85      1.0000 0.33680  0.12234  0.03916  Biso   1.000  C
  H78      1.0000 0.32670  0.17180  0.03057  Biso   1.000  H
  C86      1.0000 0.25910  0.02430  0.03871  Biso   1.000  C
  H79      1.0000 0.19830  0.00850  0.02967  Biso   1.000  H
  C87      1.0000 0.27204  0.95399  0.05108  Biso   1.000  C
  H80      1.0000 0.21940  0.88860  0.05097  Biso   1.000  H
  C88      1.0000 0.36263  0.97483  0.06435  Biso   1.000  C
  N19      1.0000 0.28014  0.41367  0.18315  Biso   1.000  N
  N20      1.0000 0.35207  0.50398  0.12691  Biso   1.000  N
  N21      1.0000 0.38778  0.68743  0.11955  Biso   1.000  N
  N22      1.0000 0.38878  0.77136  0.10997  Biso   1.000  N
  N23      1.0000 0.37144  0.90343  0.07740  Biso   1.000  N
  N24      1.0000 0.52775  0.09463  0.07685  Biso   1.000  N
  O7       1.0000 0.60143  0.18444  0.07634  Biso   1.000  O
  O8       1.0000 0.25085  0.37048  0.20992  Biso   1.000  O
  C89      1.0000 0.07988  0.66765  0.46489  Biso   1.000  C
  C90      1.0000 0.01224  0.65174  0.44107  Biso   1.000  C
  H81      1.0000 0.01700  0.62490  0.42210  Biso   1.000  H
  C91      1.0000 0.94043  0.67480  0.44521  Biso   1.000  C
  H82      1.0000 0.89410  0.66140  0.42940  Biso   1.000  H
  C92      1.0000 0.93464  0.71920  0.47311  Biso   1.000  C
  H83      1.0000 0.88520  0.73610  0.47550  Biso   1.000  H
  C93      1.0000 0.99957  0.73747  0.49648  Biso   1.000  C
  H84      1.0000 0.99730  0.76880  0.51470  Biso   1.000  H
  C94      1.0000 0.06874  0.70877  0.49262  Biso   1.000  C
  C95      1.0000 0.20355  0.69965  0.51200  Biso   1.000  C
  H85      1.0000 0.24750  0.70840  0.52810  Biso   1.000  H
  C96      1.0000 0.21378  0.66488  0.48324  Biso   1.000  C
  C97      1.0000 0.29887  0.65086  0.47851  Biso   1.000  C
  C98      1.0000 0.37429  0.67816  0.50285  Biso   1.000  C
  H86      1.0000 0.38270  0.73670  0.51380  Biso   1.000  H
  H87      1.0000 0.43740  0.69490  0.49320  Biso   1.000  H
  C99      1.0000 0.34670  0.59610  0.52578  Biso   1.000  C
  H88      1.0000 0.28280  0.57720  0.53470  Biso   1.000  H
  H89      1.0000 0.39590  0.61840  0.54200  Biso   1.000  H
  H90      1.0000 0.34370  0.53980  0.51540  Biso   1.000  H
  C100     1.0000 0.24120  0.37040  0.42281  Biso   1.000  C
  H91      1.0000 0.22430  0.40900  0.40920  Biso   1.000  H
  H92      1.0000 0.18120  0.31470  0.43080  Biso   1.000  H
  H93      1.0000 0.27850  0.34670  0.41140  Biso   1.000  H
  C101     1.0000 0.30277  0.43402  0.44946  Biso   1.000  C
  H94      1.0000 0.25980  0.44270  0.46400  Biso   1.000  H
  H95      1.0000 0.33190  0.39990  0.46040  Biso   1.000  H
  C102     1.0000 0.38197  0.53143  0.43952  Biso   1.000  C
  C103     1.0000 0.47018  0.54193  0.42391  Biso   1.000  C
  C104     1.0000 0.48727  0.46389  0.42293  Biso   1.000  C
  H96      1.0000 0.44070  0.40320  0.43160  Biso   1.000  H
  C105     1.0000 0.63569  0.56140  0.39653  Biso   1.000  C
  C106     1.0000 0.72245  0.57504  0.38478  Biso   1.000  C
  H97      1.0000 0.73770  0.52410  0.38530  Biso   1.000  H
  C107     1.0000 0.78554  0.66320  0.37249  Biso   1.000  C
  H98      1.0000 0.84510  0.67330  0.36390  Biso   1.000  H
  C108     1.0000 0.76520  0.74090  0.37204  Biso   1.000  C
  H99      1.0000 0.81020  0.80170  0.36300  Biso   1.000  H
  C109     1.0000 0.68195  0.72796  0.38441  Biso   1.000  C
  H100     1.0000 0.66920  0.78060  0.38430  Biso   1.000  H
  C110     1.0000 0.61220  0.63737  0.39768  Biso   1.000  C
  N25      1.0000 0.13353  0.71986  0.51648  Biso   1.000  N
  N26      1.0000 0.15191  0.64793  0.46024  Biso   1.000  N
  N27      1.0000 0.29965  0.61222  0.45288  Biso   1.000  N
  N28      1.0000 0.38258  0.61122  0.44330  Biso   1.000  N
  N29      1.0000 0.53199  0.62856  0.41073  Biso   1.000  N
  N30      1.0000 0.56688  0.47225  0.41018  Biso   1.000  N
  O9       1.0000 0.58301  0.39857  0.40967  Biso   1.000  O
  O10      1.0000 0.11963  0.74915  0.54325  Biso   1.000  O
  C111     1.0000 0.58777  0.92012  0.79822  Biso   1.000  C
  C112     1.0000 0.63950  0.98776  0.77440  Biso   1.000  C
  H101     1.0000 0.60790  0.98300  0.75543  Biso   1.000  H
  C113     1.0000 0.73437  0.05957  0.77854  Biso   1.000  C
  H102     1.0000 0.76730  0.10590  0.76273  Biso   1.000  H
  C114     1.0000 0.78456  0.06536  0.80644  Biso   1.000  C
  H103     1.0000 0.85090  0.11480  0.80883  Biso   1.000  H
  C115     1.0000 0.73790  0.00043  0.82981  Biso   1.000  C
  H104     1.0000 0.77150  0.00270  0.84803  Biso   1.000  H
  C116     1.0000 0.64003  0.93126  0.82595  Biso   1.000  C
  C117     1.0000 0.49610  0.79645  0.84533  Biso   1.000  C
  H105     1.0000 0.46090  0.75250  0.86143  Biso   1.000  H
  C118     1.0000 0.45110  0.78622  0.81657  Biso   1.000  C
  C119     1.0000 0.35199  0.70113  0.81184  Biso   1.000  C
  C120     1.0000 0.30387  0.62571  0.83618  Biso   1.000  C
  H106     1.0000 0.35400  0.61730  0.84713  Biso   1.000  H
  H107     1.0000 0.25750  0.56260  0.82653  Biso   1.000  H
  C121     1.0000 0.24940  0.65330  0.85911  Biso   1.000  C
  H108     1.0000 0.29440  0.71720  0.86803  Biso   1.000  H
  H109     1.0000 0.22250  0.60410  0.87533  Biso   1.000  H
  H110     1.0000 0.19610  0.65630  0.84873  Biso   1.000  H
  C122     1.0000 0.12920  0.75880  0.75614  Biso   1.000  C
  H111     1.0000 0.18470  0.77570  0.74253  Biso   1.000  H
  H112     1.0000 0.13350  0.81880  0.76413  Biso   1.000  H
  H113     1.0000 0.06820  0.72150  0.74473  Biso   1.000  H
  C123     1.0000 0.13125  0.69723  0.78279  Biso   1.000  C
  H114     1.0000 0.18290  0.74020  0.79733  Biso   1.000  H
  H115     1.0000 0.06800  0.66810  0.79373  Biso   1.000  H
  C124     1.0000 0.14946  0.61803  0.77285  Biso   1.000  C
  C125     1.0000 0.07175  0.52982  0.75724  Biso   1.000  C
  C126     1.0000 0.97662  0.51273  0.75626  Biso   1.000  C
  H116     1.0000 0.96250  0.55930  0.76493  Biso   1.000  H
  C127     1.0000 0.92571  0.36431  0.72986  Biso   1.000  C
  C128     1.0000 0.85259  0.27755  0.71811  Biso   1.000  C
  H117     1.0000 0.78640  0.26230  0.71863  Biso   1.000  H
  C129     1.0000 0.87766  0.21446  0.70582  Biso   1.000  C
  H118     1.0000 0.82820  0.15490  0.69723  Biso   1.000  H
  C130     1.0000 0.97570  0.23480  0.70537  Biso   1.000  C
  H119     1.0000 0.99150  0.18980  0.69633  Biso   1.000  H
  C131     1.0000 0.04601  0.31805  0.71774  Biso   1.000  C
  H120     1.0000 0.11140  0.33080  0.71763  Biso   1.000  H
  C132     1.0000 0.02517  0.38780  0.73101  Biso   1.000  C
  N31      1.0000 0.58633  0.86647  0.84981  Biso   1.000  N
  N32      1.0000 0.49602  0.84809  0.79357  Biso   1.000  N
  N33      1.0000 0.31257  0.70035  0.78621  Biso   1.000  N
  N34      1.0000 0.22864  0.61742  0.77663  Biso   1.000  N
  N35      1.0000 0.09657  0.46801  0.74406  Biso   1.000  N
  N36      1.0000 0.90537  0.43312  0.74351  Biso   1.000  N
  O11      1.0000 0.81556  0.41699  0.74300  Biso   1.000  O
  O12      1.0000 0.62952  0.88037  0.87658  Biso   1.000  O
  Ag1      1.0000 0.41316  0.58684  0.08333  Biso   1.000  Ag
  Ag2      1.0000 0.24757  0.75243  0.08333  Biso   1.000  Ag
  Ag3      1.0000 0.41316  0.82633  0.75000  Biso   1.000  Ag
  Ag4      1.0000 0.24757  0.49515  0.75000  Biso   1.000  Ag
  Ag5      1.0000 0.17367  0.58684  0.41667  Biso   1.000  Ag
  Ag6      1.0000 0.50485  0.75243  0.41667  Biso   1.000  Ag
  Ag7      1.0000 0.54626  0.77313  0.91667  Biso   1.000  Ag
  Ag8      1.0000 0.22687  0.77313  0.58333  Biso   1.000  Ag
  Ag9      1.0000 0.22687  0.45374  0.25000  Biso   1.000  Ag
  C133     1.0000 0.41223  0.33235  0.53511  Biso   1.000  C
  C134     1.0000 0.36050  0.34826  0.55893  Biso   1.000  C
  H121     1.0000 0.39210  0.37510  0.57790  Biso   1.000  H
  C135     1.0000 0.26563  0.32520  0.55479  Biso   1.000  C
  H122     1.0000 0.23270  0.33860  0.57060  Biso   1.000  H
  C136     1.0000 0.21544  0.28080  0.52689  Biso   1.000  C
  H123     1.0000 0.14910  0.26390  0.52450  Biso   1.000  H
  C137     1.0000 0.26210  0.26253  0.50352  Biso   1.000  C
  H124     1.0000 0.22850  0.23120  0.48530  Biso   1.000  H
  C138     1.0000 0.35997  0.29123  0.50738  Biso   1.000  C
  C139     1.0000 0.50390  0.30035  0.48800  Biso   1.000  C
  H125     1.0000 0.53910  0.29160  0.47190  Biso   1.000  H
  C140     1.0000 0.54890  0.33512  0.51676  Biso   1.000  C
  C141     1.0000 0.64801  0.34914  0.52149  Biso   1.000  C
  C142     1.0000 0.69613  0.32184  0.49715  Biso   1.000  C
  H126     1.0000 0.64600  0.26330  0.48620  Biso   1.000  H
  H127     1.0000 0.74250  0.30510  0.50680  Biso   1.000  H
  C143     1.0000 0.75060  0.40390  0.47422  Biso   1.000  C
  H128     1.0000 0.70560  0.42280  0.46530  Biso   1.000  H
  H129     1.0000 0.77750  0.38160  0.45800  Biso   1.000  H
  H130     1.0000 0.80390  0.46020  0.48460  Biso   1.000  H
  C144     1.0000 0.87080  0.62960  0.57719  Biso   1.000  C
  H131     1.0000 0.81530  0.59100  0.59080  Biso   1.000  H
  H132     1.0000 0.86650  0.68530  0.56920  Biso   1.000  H
  H133     1.0000 0.93180  0.65330  0.58860  Biso   1.000  H
  C145     1.0000 0.86875  0.56598  0.55054  Biso   1.000  C
  H134     1.0000 0.81710  0.55730  0.53600  Biso   1.000  H
  H135     1.0000 0.93200  0.60010  0.53960  Biso   1.000  H
  C146     1.0000 0.85054  0.46857  0.56048  Biso   1.000  C
  C147     1.0000 0.92825  0.45807  0.57609  Biso   1.000  C
  C148     1.0000 0.02338  0.53611  0.57707  Biso   1.000  C
  H136     1.0000 0.03750  0.59680  0.56840  Biso   1.000  H
  C149     1.0000 0.07429  0.43860  0.60347  Biso   1.000  C
  C150     1.0000 0.14741  0.42496  0.61522  Biso   1.000  C
  H137     1.0000 0.21360  0.47590  0.61470  Biso   1.000  H
  C151     1.0000 0.12234  0.33680  0.62751  Biso   1.000  C
  H138     1.0000 0.17180  0.32670  0.63610  Biso   1.000  H
  C152     1.0000 0.02430  0.25910  0.62796  Biso   1.000  C
  H139     1.0000 0.00850  0.19830  0.63700  Biso   1.000  H
  C153     1.0000 0.95399  0.27204  0.61559  Biso   1.000  C
  H140     1.0000 0.88860  0.21940  0.61570  Biso   1.000  H
  C154     1.0000 0.97483  0.36263  0.60232  Biso   1.000  C
  N37      1.0000 0.41367  0.28014  0.48352  Biso   1.000  N
  N38      1.0000 0.50398  0.35207  0.53976  Biso   1.000  N
  N39      1.0000 0.68743  0.38778  0.54712  Biso   1.000  N
  N40      1.0000 0.77136  0.38878  0.55670  Biso   1.000  N
  N41      1.0000 0.90343  0.37144  0.58927  Biso   1.000  N
  N42      1.0000 0.09463  0.52775  0.58982  Biso   1.000  N
  O13      1.0000 0.18444  0.60143  0.59033  Biso   1.000  O
  O14      1.0000 0.37048  0.25085  0.45675  Biso   1.000  O
  C155     1.0000 0.66765  0.07988  0.20178  Biso   1.000  C
  C156     1.0000 0.65174  0.01224  0.22560  Biso   1.000  C
  H141     1.0000 0.62490  0.01700  0.24457  Biso   1.000  H
  C157     1.0000 0.67480  0.94043  0.22146  Biso   1.000  C
  H142     1.0000 0.66140  0.89410  0.23727  Biso   1.000  H
  C158     1.0000 0.71920  0.93464  0.19356  Biso   1.000  C
  H143     1.0000 0.73610  0.88520  0.19117  Biso   1.000  H
  C159     1.0000 0.73747  0.99957  0.17019  Biso   1.000  C
  H144     1.0000 0.76880  0.99730  0.15197  Biso   1.000  H
  C160     1.0000 0.70877  0.06874  0.17405  Biso   1.000  C
  C161     1.0000 0.69965  0.20355  0.15467  Biso   1.000  C
  H145     1.0000 0.70840  0.24750  0.13857  Biso   1.000  H
  C162     1.0000 0.66488  0.21378  0.18343  Biso   1.000  C
  C163     1.0000 0.65086  0.29887  0.18816  Biso   1.000  C
  C164     1.0000 0.67816  0.37429  0.16382  Biso   1.000  C
  H146     1.0000 0.73670  0.38270  0.15287  Biso   1.000  H
  H147     1.0000 0.69490  0.43740  0.17347  Biso   1.000  H
  C165     1.0000 0.59610  0.34670  0.14089  Biso   1.000  C
  H148     1.0000 0.57720  0.28280  0.13197  Biso   1.000  H
  H149     1.0000 0.61840  0.39590  0.12467  Biso   1.000  H
  H150     1.0000 0.53980  0.34370  0.15127  Biso   1.000  H
  C166     1.0000 0.37040  0.24120  0.24386  Biso   1.000  C
  H151     1.0000 0.40900  0.22430  0.25747  Biso   1.000  H
  H152     1.0000 0.31470  0.18120  0.23587  Biso   1.000  H
  H153     1.0000 0.34670  0.27850  0.25527  Biso   1.000  H
  C167     1.0000 0.43402  0.30277  0.21721  Biso   1.000  C
  H154     1.0000 0.44270  0.25980  0.20267  Biso   1.000  H
  H155     1.0000 0.39990  0.33190  0.20627  Biso   1.000  H
  C168     1.0000 0.53143  0.38197  0.22715  Biso   1.000  C
  C169     1.0000 0.54193  0.47018  0.24276  Biso   1.000  C
  C170     1.0000 0.46389  0.48727  0.24374  Biso   1.000  C
  H156     1.0000 0.40320  0.44070  0.23507  Biso   1.000  H
  C171     1.0000 0.56140  0.63569  0.27014  Biso   1.000  C
  C172     1.0000 0.57504  0.72245  0.28189  Biso   1.000  C
  H157     1.0000 0.52410  0.73770  0.28137  Biso   1.000  H
  C173     1.0000 0.66320  0.78554  0.29418  Biso   1.000  C
  H158     1.0000 0.67330  0.84510  0.30277  Biso   1.000  H
  C174     1.0000 0.74090  0.76520  0.29463  Biso   1.000  C
  H159     1.0000 0.80170  0.81020  0.30367  Biso   1.000  H
  C175     1.0000 0.72796  0.68195  0.28226  Biso   1.000  C
  H160     1.0000 0.78060  0.66920  0.28237  Biso   1.000  H
  C176     1.0000 0.63737  0.61220  0.26899  Biso   1.000  C
  N43      1.0000 0.71986  0.13353  0.15019  Biso   1.000  N
  N44      1.0000 0.64793  0.15191  0.20643  Biso   1.000  N
  N45      1.0000 0.61222  0.29965  0.21379  Biso   1.000  N
  N46      1.0000 0.61122  0.38258  0.22337  Biso   1.000  N
  N47      1.0000 0.62856  0.53199  0.25594  Biso   1.000  N
  N48      1.0000 0.47225  0.56688  0.25649  Biso   1.000  N
  O15      1.0000 0.39857  0.58301  0.25700  Biso   1.000  O
  O16      1.0000 0.74915  0.11963  0.12342  Biso   1.000  O
  C177     1.0000 0.92012  0.58777  0.86844  Biso   1.000  C
  C178     1.0000 0.98776  0.63950  0.89226  Biso   1.000  C
  H161     1.0000 0.98300  0.60790  0.91123  Biso   1.000  H
  C179     1.0000 0.05957  0.73437  0.88812  Biso   1.000  C
  H162     1.0000 0.10590  0.76730  0.90393  Biso   1.000  H
  C180     1.0000 0.06536  0.78456  0.86022  Biso   1.000  C
  H163     1.0000 0.11480  0.85090  0.85783  Biso   1.000  H
  C181     1.0000 0.00043  0.73790  0.83685  Biso   1.000  C
  H164     1.0000 0.00270  0.77150  0.81863  Biso   1.000  H
  C182     1.0000 0.93126  0.64003  0.84071  Biso   1.000  C
  C183     1.0000 0.79645  0.49610  0.82133  Biso   1.000  C
  H165     1.0000 0.75250  0.46090  0.80523  Biso   1.000  H
  C184     1.0000 0.78622  0.45110  0.85009  Biso   1.000  C
  C185     1.0000 0.70113  0.35199  0.85482  Biso   1.000  C
  C186     1.0000 0.62571  0.30387  0.83048  Biso   1.000  C
  H166     1.0000 0.61730  0.35400  0.81953  Biso   1.000  H
  H167     1.0000 0.56260  0.25750  0.84013  Biso   1.000  H
  C187     1.0000 0.65330  0.24940  0.80755  Biso   1.000  C
  H168     1.0000 0.71720  0.29440  0.79863  Biso   1.000  H
  H169     1.0000 0.60410  0.22250  0.79133  Biso   1.000  H
  H170     1.0000 0.65630  0.19610  0.81793  Biso   1.000  H
  C188     1.0000 0.75880  0.12920  0.91052  Biso   1.000  C
  H171     1.0000 0.77570  0.18470  0.92413  Biso   1.000  H
  H172     1.0000 0.81880  0.13350  0.90253  Biso   1.000  H
  H173     1.0000 0.72150  0.06820  0.92193  Biso   1.000  H
  C189     1.0000 0.69723  0.13125  0.88387  Biso   1.000  C
  H174     1.0000 0.74020  0.18290  0.86933  Biso   1.000  H
  H175     1.0000 0.66810  0.06800  0.87293  Biso   1.000  H
  C190     1.0000 0.61803  0.14946  0.89381  Biso   1.000  C
  C191     1.0000 0.52982  0.07175  0.90942  Biso   1.000  C
  C192     1.0000 0.51273  0.97662  0.91040  Biso   1.000  C
  H176     1.0000 0.55930  0.96250  0.90173  Biso   1.000  H
  C193     1.0000 0.36431  0.92571  0.93680  Biso   1.000  C
  C194     1.0000 0.27755  0.85259  0.94855  Biso   1.000  C
  H177     1.0000 0.26230  0.78640  0.94803  Biso   1.000  H
  C195     1.0000 0.21446  0.87766  0.96084  Biso   1.000  C
  H178     1.0000 0.15490  0.82820  0.96943  Biso   1.000  H
  C196     1.0000 0.23480  0.97570  0.96129  Biso   1.000  C
  H179     1.0000 0.18980  0.99150  0.97033  Biso   1.000  H
  C197     1.0000 0.31805  0.04601  0.94892  Biso   1.000  C
  H180     1.0000 0.33080  0.11140  0.94903  Biso   1.000  H
  C198     1.0000 0.38780  0.02517  0.93565  Biso   1.000  C
  N49      1.0000 0.86647  0.58633  0.81685  Biso   1.000  N
  N50      1.0000 0.84809  0.49602  0.87309  Biso   1.000  N
  N51      1.0000 0.70035  0.31257  0.88045  Biso   1.000  N
  N52      1.0000 0.61742  0.22864  0.89003  Biso   1.000  N
  N53      1.0000 0.46801  0.09657  0.92260  Biso   1.000  N
  N54      1.0000 0.43312  0.90537  0.92315  Biso   1.000  N
  O17      1.0000 0.41699  0.81556  0.92366  Biso   1.000  O
  O18      1.0000 0.88037  0.62952  0.79008  Biso   1.000  O
  C199     1.0000 0.66765  0.58777  0.63156  Biso   1.000  C
  C200     1.0000 0.65174  0.63950  0.60774  Biso   1.000  C
  H181     1.0000 0.62490  0.60790  0.58877  Biso   1.000  H
  C201     1.0000 0.67480  0.73437  0.61188  Biso   1.000  C
  H182     1.0000 0.66140  0.76730  0.59607  Biso   1.000  H
  C202     1.0000 0.71920  0.78456  0.63978  Biso   1.000  C
  H183     1.0000 0.73610  0.85090  0.64217  Biso   1.000  H
  C203     1.0000 0.73747  0.73790  0.66315  Biso   1.000  C
  H184     1.0000 0.76880  0.77150  0.68137  Biso   1.000  H
  C204     1.0000 0.70877  0.64003  0.65929  Biso   1.000  C
  C205     1.0000 0.69965  0.49610  0.67867  Biso   1.000  C
  H185     1.0000 0.70840  0.46090  0.69477  Biso   1.000  H
  C206     1.0000 0.66488  0.45110  0.64991  Biso   1.000  C
  C207     1.0000 0.65086  0.35199  0.64518  Biso   1.000  C
  C208     1.0000 0.67816  0.30387  0.66952  Biso   1.000  C
  H186     1.0000 0.73670  0.35400  0.68047  Biso   1.000  H
  H187     1.0000 0.69490  0.25750  0.65987  Biso   1.000  H
  C209     1.0000 0.59610  0.24940  0.69245  Biso   1.000  C
  H188     1.0000 0.57720  0.29440  0.70137  Biso   1.000  H
  H189     1.0000 0.61840  0.22250  0.70867  Biso   1.000  H
  H190     1.0000 0.53980  0.19610  0.68207  Biso   1.000  H
  C210     1.0000 0.37040  0.12920  0.58948  Biso   1.000  C
  H191     1.0000 0.40900  0.18470  0.57587  Biso   1.000  H
  H192     1.0000 0.31470  0.13350  0.59747  Biso   1.000  H
  H193     1.0000 0.34670  0.06820  0.57807  Biso   1.000  H
  C211     1.0000 0.43402  0.13125  0.61613  Biso   1.000  C
  H194     1.0000 0.44270  0.18290  0.63067  Biso   1.000  H
  H195     1.0000 0.39990  0.06800  0.62707  Biso   1.000  H
  C212     1.0000 0.53143  0.14946  0.60619  Biso   1.000  C
  C213     1.0000 0.54193  0.07175  0.59058  Biso   1.000  C
  C214     1.0000 0.46389  0.97662  0.58960  Biso   1.000  C
  H196     1.0000 0.40320  0.96250  0.59827  Biso   1.000  H
  C215     1.0000 0.56140  0.92571  0.56320  Biso   1.000  C
  C216     1.0000 0.57504  0.85259  0.55145  Biso   1.000  C
  H197     1.0000 0.52410  0.78640  0.55197  Biso   1.000  H
  C217     1.0000 0.66320  0.87766  0.53916  Biso   1.000  C
  H198     1.0000 0.67330  0.82820  0.53057  Biso   1.000  H
  C218     1.0000 0.74090  0.97570  0.53871  Biso   1.000  C
  H199     1.0000 0.80170  0.99150  0.52967  Biso   1.000  H
  C219     1.0000 0.72796  0.04601  0.55108  Biso   1.000  C
  H200     1.0000 0.78060  0.11140  0.55097  Biso   1.000  H
  C220     1.0000 0.63737  0.02517  0.56435  Biso   1.000  C
  N55      1.0000 0.71986  0.58633  0.68315  Biso   1.000  N
  N56      1.0000 0.64793  0.49602  0.62691  Biso   1.000  N
  N57      1.0000 0.61222  0.31257  0.61955  Biso   1.000  N
  N58      1.0000 0.61122  0.22864  0.60997  Biso   1.000  N
  N59      1.0000 0.62856  0.09657  0.57740  Biso   1.000  N
  N60      1.0000 0.47225  0.90537  0.57685  Biso   1.000  N
  O19      1.0000 0.39857  0.81556  0.57634  Biso   1.000  O
  O20      1.0000 0.74915  0.62952  0.70992  Biso   1.000  O
  C221     1.0000 0.92012  0.33235  0.96489  Biso   1.000  C
  C222     1.0000 0.98776  0.34826  0.94107  Biso   1.000  C
  H201     1.0000 0.98300  0.37510  0.92210  Biso   1.000  H
  C223     1.0000 0.05957  0.32520  0.94521  Biso   1.000  C
  H202     1.0000 0.10590  0.33860  0.92940  Biso   1.000  H
  C224     1.0000 0.06536  0.28080  0.97311  Biso   1.000  C
  H203     1.0000 0.11480  0.26390  0.97550  Biso   1.000  H
  C225     1.0000 0.00043  0.26253  0.99648  Biso   1.000  C
  H204     1.0000 0.00270  0.23120  0.01470  Biso   1.000  H
  C226     1.0000 0.93126  0.29123  0.99262  Biso   1.000  C
  C227     1.0000 0.79645  0.30035  0.01200  Biso   1.000  C
  H205     1.0000 0.75250  0.29160  0.02810  Biso   1.000  H
  C228     1.0000 0.78622  0.33512  0.98324  Biso   1.000  C
  C229     1.0000 0.70113  0.34914  0.97851  Biso   1.000  C
  C230     1.0000 0.62571  0.32184  0.00285  Biso   1.000  C
  H206     1.0000 0.61730  0.26330  0.01380  Biso   1.000  H
  H207     1.0000 0.56260  0.30510  0.99320  Biso   1.000  H
  C231     1.0000 0.65330  0.40390  0.02578  Biso   1.000  C
  H208     1.0000 0.71720  0.42280  0.03470  Biso   1.000  H
  H209     1.0000 0.60410  0.38160  0.04200  Biso   1.000  H
  H210     1.0000 0.65630  0.46020  0.01540  Biso   1.000  H
  C232     1.0000 0.75880  0.62960  0.92281  Biso   1.000  C
  H211     1.0000 0.77570  0.59100  0.90920  Biso   1.000  H
  H212     1.0000 0.81880  0.68530  0.93080  Biso   1.000  H
  H213     1.0000 0.72150  0.65330  0.91140  Biso   1.000  H
  C233     1.0000 0.69723  0.56598  0.94946  Biso   1.000  C
  H214     1.0000 0.74020  0.55730  0.96400  Biso   1.000  H
  H215     1.0000 0.66810  0.60010  0.96040  Biso   1.000  H
  C234     1.0000 0.61803  0.46857  0.93952  Biso   1.000  C
  C235     1.0000 0.52982  0.45807  0.92391  Biso   1.000  C
  C236     1.0000 0.51273  0.53611  0.92293  Biso   1.000  C
  H216     1.0000 0.55930  0.59680  0.93160  Biso   1.000  H
  C237     1.0000 0.36431  0.43860  0.89653  Biso   1.000  C
  C238     1.0000 0.27755  0.42496  0.88478  Biso   1.000  C
  H217     1.0000 0.26230  0.47590  0.88530  Biso   1.000  H
  C239     1.0000 0.21446  0.33680  0.87249  Biso   1.000  C
  H218     1.0000 0.15490  0.32670  0.86390  Biso   1.000  H
  C240     1.0000 0.23480  0.25910  0.87204  Biso   1.000  C
  H219     1.0000 0.18980  0.19830  0.86300  Biso   1.000  H
  C241     1.0000 0.31805  0.27204  0.88441  Biso   1.000  C
  H220     1.0000 0.33080  0.21940  0.88430  Biso   1.000  H
  C242     1.0000 0.38780  0.36263  0.89768  Biso   1.000  C
  N61      1.0000 0.86647  0.28014  0.01648  Biso   1.000  N
  N62      1.0000 0.84809  0.35207  0.96024  Biso   1.000  N
  N63      1.0000 0.70035  0.38778  0.95288  Biso   1.000  N
  N64      1.0000 0.61742  0.38878  0.94330  Biso   1.000  N
  N65      1.0000 0.46801  0.37144  0.91073  Biso   1.000  N
  N66      1.0000 0.43312  0.52775  0.91018  Biso   1.000  N
  O21      1.0000 0.41699  0.60143  0.90967  Biso   1.000  O
  O22      1.0000 0.88037  0.25085  0.04325  Biso   1.000  O
  C243     1.0000 0.41223  0.07988  0.29822  Biso   1.000  C
  C244     1.0000 0.36050  0.01224  0.27440  Biso   1.000  C
  H221     1.0000 0.39210  0.01700  0.25543  Biso   1.000  H
  C245     1.0000 0.26563  0.94043  0.27854  Biso   1.000  C
  H222     1.0000 0.23270  0.89410  0.26273  Biso   1.000  H
  C246     1.0000 0.21544  0.93464  0.30644  Biso   1.000  C
  H223     1.0000 0.14910  0.88520  0.30883  Biso   1.000  H
  C247     1.0000 0.26210  0.99957  0.32981  Biso   1.000  C
  H224     1.0000 0.22850  0.99730  0.34803  Biso   1.000  H
  C248     1.0000 0.35997  0.06874  0.32595  Biso   1.000  C
  C249     1.0000 0.50390  0.20355  0.34533  Biso   1.000  C
  H225     1.0000 0.53910  0.24750  0.36143  Biso   1.000  H
  C250     1.0000 0.54890  0.21378  0.31657  Biso   1.000  C
  C251     1.0000 0.64801  0.29887  0.31184  Biso   1.000  C
  C252     1.0000 0.69613  0.37429  0.33618  Biso   1.000  C
  H226     1.0000 0.64600  0.38270  0.34713  Biso   1.000  H
  H227     1.0000 0.74250  0.43740  0.32653  Biso   1.000  H
  C253     1.0000 0.75060  0.34670  0.35911  Biso   1.000  C
  H228     1.0000 0.70560  0.28280  0.36803  Biso   1.000  H
  H229     1.0000 0.77750  0.39590  0.37533  Biso   1.000  H
  H230     1.0000 0.80390  0.34370  0.34873  Biso   1.000  H
  C254     1.0000 0.87080  0.24120  0.25614  Biso   1.000  C
  H231     1.0000 0.81530  0.22430  0.24253  Biso   1.000  H
  H232     1.0000 0.86650  0.18120  0.26413  Biso   1.000  H
  H233     1.0000 0.93180  0.27850  0.24473  Biso   1.000  H
  C255     1.0000 0.86875  0.30277  0.28279  Biso   1.000  C
  H234     1.0000 0.81710  0.25980  0.29733  Biso   1.000  H
  H235     1.0000 0.93200  0.33190  0.29373  Biso   1.000  H
  C256     1.0000 0.85054  0.38197  0.27285  Biso   1.000  C
  C257     1.0000 0.92825  0.47018  0.25724  Biso   1.000  C
  C258     1.0000 0.02338  0.48727  0.25626  Biso   1.000  C
  H236     1.0000 0.03750  0.44070  0.26493  Biso   1.000  H
  C259     1.0000 0.07429  0.63569  0.22986  Biso   1.000  C
  C260     1.0000 0.14741  0.72245  0.21811  Biso   1.000  C
  H237     1.0000 0.21360  0.73770  0.21863  Biso   1.000  H
  C261     1.0000 0.12234  0.78554  0.20582  Biso   1.000  C
  H238     1.0000 0.17180  0.84510  0.19723  Biso   1.000  H
  C262     1.0000 0.02430  0.76520  0.20537  Biso   1.000  C
  H239     1.0000 0.00850  0.81020  0.19633  Biso   1.000  H
  C263     1.0000 0.95399  0.68195  0.21774  Biso   1.000  C
  H240     1.0000 0.88860  0.66920  0.21763  Biso   1.000  H
  C264     1.0000 0.97483  0.61220  0.23101  Biso   1.000  C
  N67      1.0000 0.41367  0.13353  0.34981  Biso   1.000  N
  N68      1.0000 0.50398  0.15191  0.29357  Biso   1.000  N
  N69      1.0000 0.68743  0.29965  0.28621  Biso   1.000  N
  N70      1.0000 0.77136  0.38258  0.27663  Biso   1.000  N
  N71      1.0000 0.90343  0.53199  0.24406  Biso   1.000  N
  N72      1.0000 0.09463  0.56688  0.24351  Biso   1.000  N
  O23      1.0000 0.18444  0.58301  0.24300  Biso   1.000  O
  O24      1.0000 0.37048  0.11963  0.37658  Biso   1.000  O
  Ag10     1.0000 0.58684  0.41316  0.58333  Biso   1.000  Ag
  Ag11     1.0000 0.75243  0.24757  0.58333  Biso   1.000  Ag
  Ag12     1.0000 0.58684  0.17367  0.25000  Biso   1.000  Ag
  Ag13     1.0000 0.75243  0.50485  0.25000  Biso   1.000  Ag
  Ag14     1.0000 0.82633  0.41316  0.91667  Biso   1.000  Ag
  Ag15     1.0000 0.49515  0.24757  0.91667  Biso   1.000  Ag
  Ag16     1.0000 0.45374  0.22687  0.41667  Biso   1.000  Ag
  Ag17     1.0000 0.77313  0.22687  0.08333  Biso   1.000  Ag
  Ag18     1.0000 0.77313  0.54626  0.75000  Biso   1.000  Ag
