data_image0
_cell_length_a       21.5012
_cell_length_b       11.7251
_cell_length_c       25.7606
_cell_angle_alpha    90
_cell_angle_beta     103.492
_cell_angle_gamma    90

_symmetry_space_group_name_H-M    "P 1"
_symmetry_int_tables_number       1

loop_
  _symmetry_equiv_pos_as_xyz
  'x, y, z'

loop_
  _atom_site_label
  _atom_site_occupancy
  _atom_site_fract_x
  _atom_site_fract_y
  _atom_site_fract_z
  _atom_site_thermal_displace_type
  _atom_site_B_iso_or_equiv
  _atom_site_type_symbol
  Ag1      1.0000 0.05399  0.30408  0.03052  Biso   1.000  Ag
  Cr1      1.0000 0.23033  0.36263  0.33752  Biso   1.000  Cr
  O1       1.0000 0.20132  0.23224  0.29112  Biso   1.000  O
  O2       1.0000 0.20606  0.46394  0.27661  Biso   1.000  O
  O3       1.0000 0.26170  0.50592  0.88181  Biso   1.000  O
  O4       1.0000 0.14658  0.62080  0.85297  Biso   1.000  O
  O5       1.0000 0.81633  0.15369  0.82600  Biso   1.000  O
  O6       1.0000 0.75292  0.23721  0.89914  Biso   1.000  O
  N1       1.0000 0.08651  0.31120  0.11658  Biso   1.000  N
  N2       1.0000 0.12975  0.36430  0.98816  Biso   1.000  N
  N3       1.0000 0.96720  0.32690  0.96587  Biso   1.000  N
  C1       1.0000 0.15146  0.11720  0.21829  Biso   1.000  C
  H1       1.0000 0.15980  0.05810  0.24590  Biso   1.000  H
  H2       1.0000 0.17700  0.10190  0.19210  Biso   1.000  H
  H3       1.0000 0.10590  0.11700  0.20040  Biso   1.000  H
  C2       1.0000 0.16927  0.23124  0.24335  Biso   1.000  C
  C3       1.0000 0.15221  0.33210  0.21300  Biso   1.000  C
  C4       1.0000 0.17239  0.44270  0.23087  Biso   1.000  C
  C5       1.0000 0.15561  0.54370  0.19442  Biso   1.000  C
  H4       1.0000 0.11130  0.56640  0.19260  Biso   1.000  H
  H5       1.0000 0.16030  0.52330  0.15860  Biso   1.000  H
  H6       1.0000 0.18430  0.60720  0.20820  Biso   1.000  H
  C6       1.0000 0.11528  0.31980  0.15978  Biso   1.000  C
  C7       1.0000 0.27103  0.35410  0.94302  Biso   1.000  C
  H7       1.0000 0.31370  0.34980  0.93560  Biso   1.000  H
  H8       1.0000 0.27520  0.36630  0.98130  Biso   1.000  H
  H9       1.0000 0.24800  0.28260  0.93220  Biso   1.000  H
  C8       1.0000 0.23475  0.45100  0.91243  Biso   1.000  C
  C9       1.0000 0.17248  0.47600  0.91807  Biso   1.000  C
  C10      1.0000 0.13025  0.55670  0.88698  Biso   1.000  C
  C11      1.0000 0.06341  0.56770  0.89300  Biso   1.000  C
  H10      1.0000 0.03660  0.50960  0.87120  Biso   1.000  H
  H11      1.0000 0.06260  0.55710  0.93060  Biso   1.000  H
  H12      1.0000 0.04700  0.64370  0.88120  Biso   1.000  H
  C12      1.0000 0.14893  0.41260  0.95656  Biso   1.000  C
  C13      1.0000 0.80969  0.34380  0.97200  Biso   1.000  C
  H13      1.0000 0.83680  0.30650  0.00320  Biso   1.000  H
  H14      1.0000 0.82740  0.41910  0.96710  Biso   1.000  H
  H15      1.0000 0.76630  0.35270  0.97740  Biso   1.000  H
  C14      1.0000 0.80753  0.27220  0.92320  Biso   1.000  C
  C15      1.0000 0.86368  0.25110  0.90559  Biso   1.000  C
  C16      1.0000 0.86579  0.19199  0.85790  Biso   1.000  C
  C17      1.0000 0.92737  0.17410  0.84242  Biso   1.000  C
  H16      1.0000 0.91970  0.13110  0.80890  Biso   1.000  H
  H17      1.0000 0.94640  0.24810  0.83760  Biso   1.000  H
  H18      1.0000 0.95660  0.13110  0.87050  Biso   1.000  H
  C18      1.0000 0.92182  0.29090  0.93840  Biso   1.000  C
  Ag2      1.0000 0.55399  0.80408  0.03052  Biso   1.000  Ag
  Cr2      1.0000 0.73033  0.86263  0.33752  Biso   1.000  Cr
  O7       1.0000 0.70132  0.73224  0.29112  Biso   1.000  O
  O8       1.0000 0.70606  0.96394  0.27661  Biso   1.000  O
  O9       1.0000 0.76170  0.00592  0.88181  Biso   1.000  O
  O10      1.0000 0.64658  0.12080  0.85297  Biso   1.000  O
  O11      1.0000 0.31633  0.65369  0.82600  Biso   1.000  O
  O12      1.0000 0.25292  0.73721  0.89914  Biso   1.000  O
  N4       1.0000 0.58651  0.81120  0.11658  Biso   1.000  N
  N5       1.0000 0.62975  0.86430  0.98816  Biso   1.000  N
  N6       1.0000 0.46720  0.82690  0.96587  Biso   1.000  N
  C19      1.0000 0.65146  0.61720  0.21829  Biso   1.000  C
  H19      1.0000 0.65980  0.55810  0.24590  Biso   1.000  H
  H20      1.0000 0.67700  0.60190  0.19210  Biso   1.000  H
  H21      1.0000 0.60590  0.61700  0.20040  Biso   1.000  H
  C20      1.0000 0.66927  0.73124  0.24335  Biso   1.000  C
  C21      1.0000 0.65221  0.83210  0.21300  Biso   1.000  C
  C22      1.0000 0.67239  0.94270  0.23087  Biso   1.000  C
  C23      1.0000 0.65561  0.04370  0.19442  Biso   1.000  C
  H22      1.0000 0.61130  0.06640  0.19260  Biso   1.000  H
  H23      1.0000 0.66030  0.02330  0.15860  Biso   1.000  H
  H24      1.0000 0.68430  0.10720  0.20820  Biso   1.000  H
  C24      1.0000 0.61528  0.81980  0.15978  Biso   1.000  C
  C25      1.0000 0.77103  0.85410  0.94302  Biso   1.000  C
  H25      1.0000 0.81370  0.84980  0.93560  Biso   1.000  H
  H26      1.0000 0.77520  0.86630  0.98130  Biso   1.000  H
  H27      1.0000 0.74800  0.78260  0.93220  Biso   1.000  H
  C26      1.0000 0.73475  0.95100  0.91243  Biso   1.000  C
  C27      1.0000 0.67248  0.97600  0.91807  Biso   1.000  C
  C28      1.0000 0.63025  0.05670  0.88698  Biso   1.000  C
  C29      1.0000 0.56341  0.06770  0.89300  Biso   1.000  C
  H28      1.0000 0.53660  0.00960  0.87120  Biso   1.000  H
  H29      1.0000 0.56260  0.05710  0.93060  Biso   1.000  H
  H30      1.0000 0.54700  0.14370  0.88120  Biso   1.000  H
  C30      1.0000 0.64893  0.91260  0.95656  Biso   1.000  C
  C31      1.0000 0.30969  0.84380  0.97200  Biso   1.000  C
  H31      1.0000 0.33680  0.80650  0.00320  Biso   1.000  H
  H32      1.0000 0.32740  0.91910  0.96710  Biso   1.000  H
  H33      1.0000 0.26630  0.85270  0.97740  Biso   1.000  H
  C32      1.0000 0.30753  0.77220  0.92320  Biso   1.000  C
  C33      1.0000 0.36368  0.75110  0.90559  Biso   1.000  C
  C34      1.0000 0.36579  0.69199  0.85790  Biso   1.000  C
  C35      1.0000 0.42737  0.67410  0.84242  Biso   1.000  C
  H34      1.0000 0.41970  0.63110  0.80890  Biso   1.000  H
  H35      1.0000 0.44640  0.74810  0.83760  Biso   1.000  H
  H36      1.0000 0.45660  0.63110  0.87050  Biso   1.000  H
  C36      1.0000 0.42182  0.79090  0.93840  Biso   1.000  C
  Ag3      1.0000 0.05399  0.69592  0.53052  Biso   1.000  Ag
  Cr3      1.0000 0.23033  0.63737  0.83752  Biso   1.000  Cr
  O13      1.0000 0.20132  0.76776  0.79112  Biso   1.000  O
  O14      1.0000 0.20606  0.53606  0.77661  Biso   1.000  O
  O15      1.0000 0.26170  0.49408  0.38181  Biso   1.000  O
  O16      1.0000 0.14658  0.37920  0.35297  Biso   1.000  O
  O17      1.0000 0.81633  0.84631  0.32600  Biso   1.000  O
  O18      1.0000 0.75292  0.76279  0.39914  Biso   1.000  O
  N7       1.0000 0.08651  0.68880  0.61658  Biso   1.000  N
  N8       1.0000 0.12975  0.63570  0.48816  Biso   1.000  N
  N9       1.0000 0.96720  0.67310  0.46587  Biso   1.000  N
  C37      1.0000 0.15146  0.88280  0.71829  Biso   1.000  C
  H37      1.0000 0.15980  0.94190  0.74590  Biso   1.000  H
  H38      1.0000 0.17700  0.89810  0.69210  Biso   1.000  H
  H39      1.0000 0.10590  0.88300  0.70040  Biso   1.000  H
  C38      1.0000 0.16927  0.76876  0.74335  Biso   1.000  C
  C39      1.0000 0.15221  0.66790  0.71300  Biso   1.000  C
  C40      1.0000 0.17239  0.55730  0.73087  Biso   1.000  C
  C41      1.0000 0.15561  0.45630  0.69442  Biso   1.000  C
  H40      1.0000 0.11130  0.43360  0.69260  Biso   1.000  H
  H41      1.0000 0.16030  0.47670  0.65860  Biso   1.000  H
  H42      1.0000 0.18430  0.39280  0.70820  Biso   1.000  H
  C42      1.0000 0.11528  0.68020  0.65978  Biso   1.000  C
  C43      1.0000 0.27103  0.64590  0.44302  Biso   1.000  C
  H43      1.0000 0.31370  0.65020  0.43560  Biso   1.000  H
  H44      1.0000 0.27520  0.63370  0.48130  Biso   1.000  H
  H45      1.0000 0.24800  0.71740  0.43220  Biso   1.000  H
  C44      1.0000 0.23475  0.54900  0.41243  Biso   1.000  C
  C45      1.0000 0.17248  0.52400  0.41807  Biso   1.000  C
  C46      1.0000 0.13025  0.44330  0.38698  Biso   1.000  C
  C47      1.0000 0.06341  0.43230  0.39300  Biso   1.000  C
  H46      1.0000 0.03660  0.49040  0.37120  Biso   1.000  H
  H47      1.0000 0.06260  0.44290  0.43060  Biso   1.000  H
  H48      1.0000 0.04700  0.35630  0.38120  Biso   1.000  H
  C48      1.0000 0.14893  0.58740  0.45656  Biso   1.000  C
  C49      1.0000 0.80969  0.65620  0.47200  Biso   1.000  C
  H49      1.0000 0.83680  0.69350  0.50320  Biso   1.000  H
  H50      1.0000 0.82740  0.58090  0.46710  Biso   1.000  H
  H51      1.0000 0.76630  0.64730  0.47740  Biso   1.000  H
  C50      1.0000 0.80753  0.72780  0.42320  Biso   1.000  C
  C51      1.0000 0.86368  0.74890  0.40559  Biso   1.000  C
  C52      1.0000 0.86579  0.80801  0.35790  Biso   1.000  C
  C53      1.0000 0.92737  0.82590  0.34242  Biso   1.000  C
  H52      1.0000 0.91970  0.86890  0.30890  Biso   1.000  H
  H53      1.0000 0.94640  0.75190  0.33760  Biso   1.000  H
  H54      1.0000 0.95660  0.86890  0.37050  Biso   1.000  H
  C54      1.0000 0.92182  0.70910  0.43840  Biso   1.000  C
  Ag4      1.0000 0.55399  0.19592  0.53052  Biso   1.000  Ag
  Cr4      1.0000 0.73033  0.13737  0.83752  Biso   1.000  Cr
  O19      1.0000 0.70132  0.26776  0.79112  Biso   1.000  O
  O20      1.0000 0.70606  0.03606  0.77661  Biso   1.000  O
  O21      1.0000 0.76170  0.99408  0.38181  Biso   1.000  O
  O22      1.0000 0.64658  0.87920  0.35297  Biso   1.000  O
  O23      1.0000 0.31633  0.34631  0.32600  Biso   1.000  O
  O24      1.0000 0.25292  0.26279  0.39914  Biso   1.000  O
  N10      1.0000 0.58651  0.18880  0.61658  Biso   1.000  N
  N11      1.0000 0.62975  0.13570  0.48816  Biso   1.000  N
  N12      1.0000 0.46720  0.17310  0.46587  Biso   1.000  N
  C55      1.0000 0.65146  0.38280  0.71829  Biso   1.000  C
  H55      1.0000 0.65980  0.44190  0.74590  Biso   1.000  H
  H56      1.0000 0.67700  0.39810  0.69210  Biso   1.000  H
  H57      1.0000 0.60590  0.38300  0.70040  Biso   1.000  H
  C56      1.0000 0.66927  0.26876  0.74335  Biso   1.000  C
  C57      1.0000 0.65221  0.16790  0.71300  Biso   1.000  C
  C58      1.0000 0.67239  0.05730  0.73087  Biso   1.000  C
  C59      1.0000 0.65561  0.95630  0.69442  Biso   1.000  C
  H58      1.0000 0.61130  0.93360  0.69260  Biso   1.000  H
  H59      1.0000 0.66030  0.97670  0.65860  Biso   1.000  H
  H60      1.0000 0.68430  0.89280  0.70820  Biso   1.000  H
  C60      1.0000 0.61528  0.18020  0.65978  Biso   1.000  C
  C61      1.0000 0.77103  0.14590  0.44302  Biso   1.000  C
  H61      1.0000 0.81370  0.15020  0.43560  Biso   1.000  H
  H62      1.0000 0.77520  0.13370  0.48130  Biso   1.000  H
  H63      1.0000 0.74800  0.21740  0.43220  Biso   1.000  H
  C62      1.0000 0.73475  0.04900  0.41243  Biso   1.000  C
  C63      1.0000 0.67248  0.02400  0.41807  Biso   1.000  C
  C64      1.0000 0.63025  0.94330  0.38698  Biso   1.000  C
  C65      1.0000 0.56341  0.93230  0.39300  Biso   1.000  C
  H64      1.0000 0.53660  0.99040  0.37120  Biso   1.000  H
  H65      1.0000 0.56260  0.94290  0.43060  Biso   1.000  H
  H66      1.0000 0.54700  0.85630  0.38120  Biso   1.000  H
  C66      1.0000 0.64893  0.08740  0.45656  Biso   1.000  C
  C67      1.0000 0.30969  0.15620  0.47200  Biso   1.000  C
  H67      1.0000 0.33680  0.19350  0.50320  Biso   1.000  H
  H68      1.0000 0.32740  0.08090  0.46710  Biso   1.000  H
  H69      1.0000 0.26630  0.14730  0.47740  Biso   1.000  H
  C68      1.0000 0.30753  0.22780  0.42320  Biso   1.000  C
  C69      1.0000 0.36368  0.24890  0.40559  Biso   1.000  C
  C70      1.0000 0.36579  0.30801  0.35790  Biso   1.000  C
  C71      1.0000 0.42737  0.32590  0.34242  Biso   1.000  C
  H70      1.0000 0.41970  0.36890  0.30890  Biso   1.000  H
  H71      1.0000 0.44640  0.25190  0.33760  Biso   1.000  H
  H72      1.0000 0.45660  0.36890  0.37050  Biso   1.000  H
  C72      1.0000 0.42182  0.20910  0.43840  Biso   1.000  C
  Ag5      1.0000 0.94601  0.30408  0.46948  Biso   1.000  Ag
  Cr5      1.0000 0.76967  0.36263  0.16248  Biso   1.000  Cr
  O25      1.0000 0.79868  0.23224  0.20888  Biso   1.000  O
  O26      1.0000 0.79394  0.46394  0.22339  Biso   1.000  O
  O27      1.0000 0.73830  0.50592  0.61819  Biso   1.000  O
  O28      1.0000 0.85342  0.62080  0.64703  Biso   1.000  O
  O29      1.0000 0.18367  0.15369  0.67400  Biso   1.000  O
  O30      1.0000 0.24708  0.23721  0.60086  Biso   1.000  O
  N13      1.0000 0.91349  0.31120  0.38342  Biso   1.000  N
  N14      1.0000 0.87025  0.36430  0.51184  Biso   1.000  N
  N15      1.0000 0.03280  0.32690  0.53413  Biso   1.000  N
  C73      1.0000 0.84854  0.11720  0.28171  Biso   1.000  C
  H73      1.0000 0.84020  0.05810  0.25410  Biso   1.000  H
  H74      1.0000 0.82300  0.10190  0.30790  Biso   1.000  H
  H75      1.0000 0.89410  0.11700  0.29960  Biso   1.000  H
  C74      1.0000 0.83073  0.23124  0.25665  Biso   1.000  C
  C75      1.0000 0.84779  0.33210  0.28700  Biso   1.000  C
  C76      1.0000 0.82761  0.44270  0.26913  Biso   1.000  C
  C77      1.0000 0.84439  0.54370  0.30558  Biso   1.000  C
  H76      1.0000 0.88870  0.56640  0.30740  Biso   1.000  H
  H77      1.0000 0.83970  0.52330  0.34140  Biso   1.000  H
  H78      1.0000 0.81570  0.60720  0.29180  Biso   1.000  H
  C78      1.0000 0.88472  0.31980  0.34022  Biso   1.000  C
  C79      1.0000 0.72897  0.35410  0.55698  Biso   1.000  C
  H79      1.0000 0.68630  0.34980  0.56440  Biso   1.000  H
  H80      1.0000 0.72480  0.36630  0.51870  Biso   1.000  H
  H81      1.0000 0.75200  0.28260  0.56780  Biso   1.000  H
  C80      1.0000 0.76525  0.45100  0.58757  Biso   1.000  C
  C81      1.0000 0.82752  0.47600  0.58193  Biso   1.000  C
  C82      1.0000 0.86975  0.55670  0.61302  Biso   1.000  C
  C83      1.0000 0.93659  0.56770  0.60700  Biso   1.000  C
  H82      1.0000 0.96340  0.50960  0.62880  Biso   1.000  H
  H83      1.0000 0.93740  0.55710  0.56940  Biso   1.000  H
  H84      1.0000 0.95300  0.64370  0.61880  Biso   1.000  H
  C84      1.0000 0.85107  0.41260  0.54344  Biso   1.000  C
  C85      1.0000 0.19031  0.34380  0.52800  Biso   1.000  C
  H85      1.0000 0.16320  0.30650  0.49680  Biso   1.000  H
  H86      1.0000 0.17260  0.41910  0.53290  Biso   1.000  H
  H87      1.0000 0.23370  0.35270  0.52260  Biso   1.000  H
  C86      1.0000 0.19247  0.27220  0.57680  Biso   1.000  C
  C87      1.0000 0.13632  0.25110  0.59441  Biso   1.000  C
  C88      1.0000 0.13421  0.19199  0.64210  Biso   1.000  C
  C89      1.0000 0.07263  0.17410  0.65758  Biso   1.000  C
  H88      1.0000 0.08030  0.13110  0.69110  Biso   1.000  H
  H89      1.0000 0.05360  0.24810  0.66240  Biso   1.000  H
  H90      1.0000 0.04340  0.13110  0.62950  Biso   1.000  H
  C90      1.0000 0.07818  0.29090  0.56160  Biso   1.000  C
  Ag6      1.0000 0.44601  0.80408  0.46948  Biso   1.000  Ag
  Cr6      1.0000 0.26967  0.86263  0.16248  Biso   1.000  Cr
  O31      1.0000 0.29868  0.73224  0.20888  Biso   1.000  O
  O32      1.0000 0.29394  0.96394  0.22339  Biso   1.000  O
  O33      1.0000 0.23830  0.00592  0.61819  Biso   1.000  O
  O34      1.0000 0.35342  0.12080  0.64703  Biso   1.000  O
  O35      1.0000 0.68367  0.65369  0.67400  Biso   1.000  O
  O36      1.0000 0.74708  0.73721  0.60086  Biso   1.000  O
  N16      1.0000 0.41349  0.81120  0.38342  Biso   1.000  N
  N17      1.0000 0.37025  0.86430  0.51184  Biso   1.000  N
  N18      1.0000 0.53280  0.82690  0.53413  Biso   1.000  N
  C91      1.0000 0.34854  0.61720  0.28171  Biso   1.000  C
  H91      1.0000 0.34020  0.55810  0.25410  Biso   1.000  H
  H92      1.0000 0.32300  0.60190  0.30790  Biso   1.000  H
  H93      1.0000 0.39410  0.61700  0.29960  Biso   1.000  H
  C92      1.0000 0.33073  0.73124  0.25665  Biso   1.000  C
  C93      1.0000 0.34779  0.83210  0.28700  Biso   1.000  C
  C94      1.0000 0.32761  0.94270  0.26913  Biso   1.000  C
  C95      1.0000 0.34439  0.04370  0.30558  Biso   1.000  C
  H94      1.0000 0.38870  0.06640  0.30740  Biso   1.000  H
  H95      1.0000 0.33970  0.02330  0.34140  Biso   1.000  H
  H96      1.0000 0.31570  0.10720  0.29180  Biso   1.000  H
  C96      1.0000 0.38472  0.81980  0.34022  Biso   1.000  C
  C97      1.0000 0.22897  0.85410  0.55698  Biso   1.000  C
  H97      1.0000 0.18630  0.84980  0.56440  Biso   1.000  H
  H98      1.0000 0.22480  0.86630  0.51870  Biso   1.000  H
  H99      1.0000 0.25200  0.78260  0.56780  Biso   1.000  H
  C98      1.0000 0.26525  0.95100  0.58757  Biso   1.000  C
  C99      1.0000 0.32752  0.97600  0.58193  Biso   1.000  C
  C100     1.0000 0.36975  0.05670  0.61302  Biso   1.000  C
  C101     1.0000 0.43659  0.06770  0.60700  Biso   1.000  C
  H100     1.0000 0.46340  0.00960  0.62880  Biso   1.000  H
  H101     1.0000 0.43740  0.05710  0.56940  Biso   1.000  H
  H102     1.0000 0.45300  0.14370  0.61880  Biso   1.000  H
  C102     1.0000 0.35107  0.91260  0.54344  Biso   1.000  C
  C103     1.0000 0.69031  0.84380  0.52800  Biso   1.000  C
  H103     1.0000 0.66320  0.80650  0.49680  Biso   1.000  H
  H104     1.0000 0.67260  0.91910  0.53290  Biso   1.000  H
  H105     1.0000 0.73370  0.85270  0.52260  Biso   1.000  H
  C104     1.0000 0.69247  0.77220  0.57680  Biso   1.000  C
  C105     1.0000 0.63632  0.75110  0.59441  Biso   1.000  C
  C106     1.0000 0.63421  0.69199  0.64210  Biso   1.000  C
  C107     1.0000 0.57263  0.67410  0.65758  Biso   1.000  C
  H106     1.0000 0.58030  0.63110  0.69110  Biso   1.000  H
  H107     1.0000 0.55360  0.74810  0.66240  Biso   1.000  H
  H108     1.0000 0.54340  0.63110  0.62950  Biso   1.000  H
  C108     1.0000 0.57818  0.79090  0.56160  Biso   1.000  C
  Ag7      1.0000 0.94601  0.69592  0.96948  Biso   1.000  Ag
  Cr7      1.0000 0.76967  0.63737  0.66248  Biso   1.000  Cr
  O37      1.0000 0.79868  0.76776  0.70888  Biso   1.000  O
  O38      1.0000 0.79394  0.53606  0.72339  Biso   1.000  O
  O39      1.0000 0.73830  0.49408  0.11819  Biso   1.000  O
  O40      1.0000 0.85342  0.37920  0.14703  Biso   1.000  O
  O41      1.0000 0.18367  0.84631  0.17400  Biso   1.000  O
  O42      1.0000 0.24708  0.76279  0.10086  Biso   1.000  O
  N19      1.0000 0.91349  0.68880  0.88342  Biso   1.000  N
  N20      1.0000 0.87025  0.63570  0.01184  Biso   1.000  N
  N21      1.0000 0.03280  0.67310  0.03413  Biso   1.000  N
  C109     1.0000 0.84854  0.88280  0.78171  Biso   1.000  C
  H109     1.0000 0.84020  0.94190  0.75410  Biso   1.000  H
  H110     1.0000 0.82300  0.89810  0.80790  Biso   1.000  H
  H111     1.0000 0.89410  0.88300  0.79960  Biso   1.000  H
  C110     1.0000 0.83073  0.76876  0.75665  Biso   1.000  C
  C111     1.0000 0.84779  0.66790  0.78700  Biso   1.000  C
  C112     1.0000 0.82761  0.55730  0.76913  Biso   1.000  C
  C113     1.0000 0.84439  0.45630  0.80558  Biso   1.000  C
  H112     1.0000 0.88870  0.43360  0.80740  Biso   1.000  H
  H113     1.0000 0.83970  0.47670  0.84140  Biso   1.000  H
  H114     1.0000 0.81570  0.39280  0.79180  Biso   1.000  H
  C114     1.0000 0.88472  0.68020  0.84022  Biso   1.000  C
  C115     1.0000 0.72897  0.64590  0.05698  Biso   1.000  C
  H115     1.0000 0.68630  0.65020  0.06440  Biso   1.000  H
  H116     1.0000 0.72480  0.63370  0.01870  Biso   1.000  H
  H117     1.0000 0.75200  0.71740  0.06780  Biso   1.000  H
  C116     1.0000 0.76525  0.54900  0.08757  Biso   1.000  C
  C117     1.0000 0.82752  0.52400  0.08193  Biso   1.000  C
  C118     1.0000 0.86975  0.44330  0.11302  Biso   1.000  C
  C119     1.0000 0.93659  0.43230  0.10700  Biso   1.000  C
  H118     1.0000 0.96340  0.49040  0.12880  Biso   1.000  H
  H119     1.0000 0.93740  0.44290  0.06940  Biso   1.000  H
  H120     1.0000 0.95300  0.35630  0.11880  Biso   1.000  H
  C120     1.0000 0.85107  0.58740  0.04344  Biso   1.000  C
  C121     1.0000 0.19031  0.65620  0.02800  Biso   1.000  C
  H121     1.0000 0.16320  0.69350  0.99680  Biso   1.000  H
  H122     1.0000 0.17260  0.58090  0.03290  Biso   1.000  H
  H123     1.0000 0.23370  0.64730  0.02260  Biso   1.000  H
  C122     1.0000 0.19247  0.72780  0.07680  Biso   1.000  C
  C123     1.0000 0.13632  0.74890  0.09441  Biso   1.000  C
  C124     1.0000 0.13421  0.80801  0.14210  Biso   1.000  C
  C125     1.0000 0.07263  0.82590  0.15758  Biso   1.000  C
  H124     1.0000 0.08030  0.86890  0.19110  Biso   1.000  H
  H125     1.0000 0.05360  0.75190  0.16240  Biso   1.000  H
  H126     1.0000 0.04340  0.86890  0.12950  Biso   1.000  H
  C126     1.0000 0.07818  0.70910  0.06160  Biso   1.000  C
  Ag8      1.0000 0.44601  0.19592  0.96948  Biso   1.000  Ag
  Cr8      1.0000 0.26967  0.13737  0.66248  Biso   1.000  Cr
  O43      1.0000 0.29868  0.26776  0.70888  Biso   1.000  O
  O44      1.0000 0.29394  0.03606  0.72339  Biso   1.000  O
  O45      1.0000 0.23830  0.99408  0.11819  Biso   1.000  O
  O46      1.0000 0.35342  0.87920  0.14703  Biso   1.000  O
  O47      1.0000 0.68367  0.34631  0.17400  Biso   1.000  O
  O48      1.0000 0.74708  0.26279  0.10086  Biso   1.000  O
  N22      1.0000 0.41349  0.18880  0.88342  Biso   1.000  N
  N23      1.0000 0.37025  0.13570  0.01184  Biso   1.000  N
  N24      1.0000 0.53280  0.17310  0.03413  Biso   1.000  N
  C127     1.0000 0.34854  0.38280  0.78171  Biso   1.000  C
  H127     1.0000 0.34020  0.44190  0.75410  Biso   1.000  H
  H128     1.0000 0.32300  0.39810  0.80790  Biso   1.000  H
  H129     1.0000 0.39410  0.38300  0.79960  Biso   1.000  H
  C128     1.0000 0.33073  0.26876  0.75665  Biso   1.000  C
  C129     1.0000 0.34779  0.16790  0.78700  Biso   1.000  C
  C130     1.0000 0.32761  0.05730  0.76913  Biso   1.000  C
  C131     1.0000 0.34439  0.95630  0.80558  Biso   1.000  C
  H130     1.0000 0.38870  0.93360  0.80740  Biso   1.000  H
  H131     1.0000 0.33970  0.97670  0.84140  Biso   1.000  H
  H132     1.0000 0.31570  0.89280  0.79180  Biso   1.000  H
  C132     1.0000 0.38472  0.18020  0.84022  Biso   1.000  C
  C133     1.0000 0.22897  0.14590  0.05698  Biso   1.000  C
  H133     1.0000 0.18630  0.15020  0.06440  Biso   1.000  H
  H134     1.0000 0.22480  0.13370  0.01870  Biso   1.000  H
  H135     1.0000 0.25200  0.21740  0.06780  Biso   1.000  H
  C134     1.0000 0.26525  0.04900  0.08757  Biso   1.000  C
  C135     1.0000 0.32752  0.02400  0.08193  Biso   1.000  C
  C136     1.0000 0.36975  0.94330  0.11302  Biso   1.000  C
  C137     1.0000 0.43659  0.93230  0.10700  Biso   1.000  C
  H136     1.0000 0.46340  0.99040  0.12880  Biso   1.000  H
  H137     1.0000 0.43740  0.94290  0.06940  Biso   1.000  H
  H138     1.0000 0.45300  0.85630  0.11880  Biso   1.000  H
  C138     1.0000 0.35107  0.08740  0.04344  Biso   1.000  C
  C139     1.0000 0.69031  0.15620  0.02800  Biso   1.000  C
  H139     1.0000 0.66320  0.19350  0.99680  Biso   1.000  H
  H140     1.0000 0.67260  0.08090  0.03290  Biso   1.000  H
  H141     1.0000 0.73370  0.14730  0.02260  Biso   1.000  H
  C140     1.0000 0.69247  0.22780  0.07680  Biso   1.000  C
  C141     1.0000 0.63632  0.24890  0.09441  Biso   1.000  C
  C142     1.0000 0.63421  0.30801  0.14210  Biso   1.000  C
  C143     1.0000 0.57263  0.32590  0.15758  Biso   1.000  C
  H142     1.0000 0.58030  0.36890  0.19110  Biso   1.000  H
  H143     1.0000 0.55360  0.25190  0.16240  Biso   1.000  H
  H144     1.0000 0.54340  0.36890  0.12950  Biso   1.000  H
  C144     1.0000 0.57818  0.20910  0.06160  Biso   1.000  C
