data_XOMJUE_clean
_audit_creation_date              2014-07-02
_audit_creation_method            'Materials Studio'
_symmetry_space_group_name_H-M    'P1'
_symmetry_Int_Tables_number       1
_symmetry_cell_setting            triclinic
loop_
_symmetry_equiv_pos_as_xyz
  x,y,z
_cell_length_a                    12.7760
_cell_length_b                    18.3001
_cell_length_c                    24.7240
_cell_angle_alpha                 90.0000
_cell_angle_beta                  90.0000
_cell_angle_gamma                 110.4300
loop_
_atom_site_label
_atom_site_type_symbol
_atom_site_fract_x
_atom_site_fract_y
_atom_site_fract_z
_atom_site_U_iso_or_equiv
_atom_site_adp_type
_atom_site_occupancy
Er1    Er    0.23021   0.76948   0.78565   0.01267  Uiso   1.00
Er2    Er    0.76979   0.23052   0.28565   0.01267  Uiso   1.00
Er3    Er    0.53927   0.76948   0.71435   0.01267  Uiso   1.00
Er4    Er    0.46073   0.23052   0.21435   0.01267  Uiso   1.00
H1     H     0.07290   0.88860   0.76210   0.01267  Uiso   1.00
H2     H     0.03080   0.99140   0.79930   0.01267  Uiso   1.00
H3     H     0.12440   0.05420   0.87600   0.01267  Uiso   1.00
H4     H     0.26020   0.01420   0.91540   0.01267  Uiso   1.00
H5     H     0.30220   0.91120   0.87830   0.01267  Uiso   1.00
H6     H     0.07120   0.54620   0.90290   0.01267  Uiso   1.00
H7     H     0.06470   0.79660   0.93480   0.01267  Uiso   1.00
H8     H     0.91860   0.78220   0.07950   0.01267  Uiso   1.00
H9     H     0.90190   0.65300   0.08810   0.01267  Uiso   1.00
H10    H     0.98790   0.42020   0.90700   0.01267  Uiso   1.00
H11    H     0.09890   0.42980   0.93880   0.01267  Uiso   1.00
H12    H     0.99280   0.29580   0.92880   0.01267  Uiso   1.00
H13    H     0.00310   0.31780   0.99040   0.01267  Uiso   1.00
H14    H     0.89250   0.30840   0.95900   0.01267  Uiso   1.00
H15    H     0.67770   0.36660   0.09200   0.01267  Uiso   1.00
H16    H     0.91800   0.43980   0.24120   0.01267  Uiso   1.00
H17    H     0.17990   0.62000   0.18580   0.01267  Uiso   1.00
H18    H     0.09340   0.61660   0.10510   0.01267  Uiso   1.00
H19    H     0.72120   0.34040   0.00090   0.01267  Uiso   1.00
H20    H     0.61560   0.36540   0.99500   0.01267  Uiso   1.00
H21    H     0.66880   0.33460   0.90900   0.01267  Uiso   1.00
H22    H     0.68300   0.42320   0.91060   0.01267  Uiso   1.00
H23    H     0.78770   0.39780   0.91650   0.01267  Uiso   1.00
H24    H     0.40390   0.84000   0.90930   0.01267  Uiso   1.00
H25    H     0.70940   0.97760   0.80180   0.01267  Uiso   1.00
H26    H     0.91040   0.13880   0.90040   0.01267  Uiso   1.00
H27    H     0.78900   0.09260   0.97170   0.01267  Uiso   1.00
H28    H     0.27500   0.84820   0.98050   0.01267  Uiso   1.00
H29    H     0.33470   0.78720   0.98980   0.01267  Uiso   1.00
H30    H     0.20370   0.77360   0.05590   0.01267  Uiso   1.00
H31    H     0.32300   0.80160   0.08200   0.01267  Uiso   1.00
H32    H     0.26170   0.86120   0.07230   0.01267  Uiso   1.00
H33    H     0.92710   0.11140   0.26210   0.01267  Uiso   1.00
H34    H     0.96920   0.00860   0.29930   0.01267  Uiso   1.00
H35    H     0.87560   0.94580   0.37600   0.01267  Uiso   1.00
H36    H     0.73980   0.98580   0.41540   0.01267  Uiso   1.00
H37    H     0.69780   0.08880   0.37830   0.01267  Uiso   1.00
H38    H     0.92880   0.45380   0.40290   0.01267  Uiso   1.00
H39    H     0.93530   0.20340   0.43480   0.01267  Uiso   1.00
H40    H     0.08140   0.21780   0.57950   0.01267  Uiso   1.00
H41    H     0.09810   0.34700   0.58810   0.01267  Uiso   1.00
H42    H     0.01210   0.57980   0.40700   0.01267  Uiso   1.00
H43    H     0.90110   0.57020   0.43880   0.01267  Uiso   1.00
H44    H     0.00720   0.70420   0.42880   0.01267  Uiso   1.00
H45    H     0.99690   0.68220   0.49040   0.01267  Uiso   1.00
H46    H     0.10750   0.69160   0.45900   0.01267  Uiso   1.00
H47    H     0.32230   0.63340   0.59200   0.01267  Uiso   1.00
H48    H     0.08200   0.56020   0.74120   0.01267  Uiso   1.00
H49    H     0.82010   0.38000   0.68580   0.01267  Uiso   1.00
H50    H     0.90660   0.38340   0.60510   0.01267  Uiso   1.00
H51    H     0.27880   0.65960   0.50090   0.01267  Uiso   1.00
H52    H     0.38440   0.63460   0.49500   0.01267  Uiso   1.00
H53    H     0.33120   0.66540   0.40900   0.01267  Uiso   1.00
H54    H     0.31700   0.57680   0.41060   0.01267  Uiso   1.00
H55    H     0.21230   0.60220   0.41650   0.01267  Uiso   1.00
H56    H     0.59610   0.16000   0.40930   0.01267  Uiso   1.00
H57    H     0.29060   0.02240   0.30180   0.01267  Uiso   1.00
H58    H     0.08960   0.86120   0.40040   0.01267  Uiso   1.00
H59    H     0.21100   0.90740   0.47170   0.01267  Uiso   1.00
H60    H     0.72500   0.15180   0.48050   0.01267  Uiso   1.00
H61    H     0.66530   0.21280   0.48980   0.01267  Uiso   1.00
H62    H     0.79630   0.22640   0.55590   0.01267  Uiso   1.00
H63    H     0.67700   0.19840   0.58200   0.01267  Uiso   1.00
H64    H     0.73830   0.13880   0.57230   0.01267  Uiso   1.00
H65    H     0.81570   0.88860   0.73790   0.01267  Uiso   1.00
H66    H     0.96060   0.99140   0.70070   0.01267  Uiso   1.00
H67    H     0.92980   0.05420   0.62400   0.01267  Uiso   1.00
H68    H     0.75400   0.01420   0.58460   0.01267  Uiso   1.00
H69    H     0.60900   0.91120   0.62170   0.01267  Uiso   1.00
H70    H     0.47500   0.54620   0.59710   0.01267  Uiso   1.00
H71    H     0.73190   0.79660   0.56520   0.01267  Uiso   1.00
H72    H     0.86360   0.78220   0.42050   0.01267  Uiso   1.00
H73    H     0.75110   0.65300   0.41190   0.01267  Uiso   1.00
H74    H     0.43230   0.42020   0.59300   0.01267  Uiso   1.00
H75    H     0.33090   0.42980   0.56120   0.01267  Uiso   1.00
H76    H     0.30300   0.29580   0.57120   0.01267  Uiso   1.00
H77    H     0.31470   0.31780   0.50960   0.01267  Uiso   1.00
H78    H     0.41590   0.30840   0.54100   0.01267  Uiso   1.00
H79    H     0.68890   0.36660   0.40800   0.01267  Uiso   1.00
H80    H     0.52180   0.43980   0.25880   0.01267  Uiso   1.00
H81    H     0.44010   0.62000   0.31420   0.01267  Uiso   1.00
H82    H     0.52320   0.61660   0.39490   0.01267  Uiso   1.00
H83    H     0.61920   0.34040   0.49910   0.01267  Uiso   1.00
H84    H     0.74980   0.36540   0.50500   0.01267  Uiso   1.00
H85    H     0.66580   0.33460   0.59100   0.01267  Uiso   1.00
H86    H     0.74020   0.42320   0.58940   0.01267  Uiso   1.00
H87    H     0.61010   0.39780   0.58350   0.01267  Uiso   1.00
H88    H     0.43610   0.84000   0.59070   0.01267  Uiso   1.00
H89    H     0.26820   0.97760   0.69820   0.01267  Uiso   1.00
H90    H     0.22840   0.13880   0.59960   0.01267  Uiso   1.00
H91    H     0.30360   0.09260   0.52830   0.01267  Uiso   1.00
H92    H     0.57320   0.84820   0.51950   0.01267  Uiso   1.00
H93    H     0.45250   0.78720   0.51020   0.01267  Uiso   1.00
H94    H     0.56990   0.77360   0.44410   0.01267  Uiso   1.00
H95    H     0.47860   0.80160   0.41800   0.01267  Uiso   1.00
H96    H     0.59950   0.86120   0.42770   0.01267  Uiso   1.00
H97    H     0.18430   0.11140   0.23790   0.01267  Uiso   1.00
H98    H     0.03940   0.00860   0.20070   0.01267  Uiso   1.00
H99    H     0.07020   0.94580   0.12400   0.01267  Uiso   1.00
H100   H     0.24600   0.98580   0.08460   0.01267  Uiso   1.00
H101   H     0.39100   0.08880   0.12170   0.01267  Uiso   1.00
H102   H     0.52500   0.45380   0.09710   0.01267  Uiso   1.00
H103   H     0.26810   0.20340   0.06520   0.01267  Uiso   1.00
H104   H     0.13640   0.21780   0.92050   0.01267  Uiso   1.00
H105   H     0.24890   0.34700   0.91190   0.01267  Uiso   1.00
H106   H     0.56770   0.57980   0.09300   0.01267  Uiso   1.00
H107   H     0.66910   0.57020   0.06120   0.01267  Uiso   1.00
H108   H     0.69700   0.70420   0.07120   0.01267  Uiso   1.00
H109   H     0.68530   0.68220   0.00960   0.01267  Uiso   1.00
H110   H     0.58410   0.69160   0.04100   0.01267  Uiso   1.00
H111   H     0.31110   0.63340   0.90800   0.01267  Uiso   1.00
H112   H     0.47820   0.56020   0.75880   0.01267  Uiso   1.00
H113   H     0.55990   0.38000   0.81420   0.01267  Uiso   1.00
H114   H     0.47680   0.38340   0.89490   0.01267  Uiso   1.00
H115   H     0.38080   0.65960   0.99910   0.01267  Uiso   1.00
H116   H     0.25020   0.63460   0.00500   0.01267  Uiso   1.00
H117   H     0.33420   0.66540   0.09100   0.01267  Uiso   1.00
H118   H     0.25980   0.57680   0.08940   0.01267  Uiso   1.00
H119   H     0.38990   0.60220   0.08350   0.01267  Uiso   1.00
H120   H     0.56390   0.16000   0.09070   0.01267  Uiso   1.00
H121   H     0.73180   0.02240   0.19820   0.01267  Uiso   1.00
H122   H     0.77160   0.86120   0.09960   0.01267  Uiso   1.00
H123   H     0.69640   0.90740   0.02830   0.01267  Uiso   1.00
H124   H     0.42680   0.15180   0.01950   0.01267  Uiso   1.00
H125   H     0.54750   0.21280   0.01020   0.01267  Uiso   1.00
H126   H     0.43010   0.22640   0.94410   0.01267  Uiso   1.00
H127   H     0.52140   0.19840   0.91800   0.01267  Uiso   1.00
H128   H     0.40050   0.13880   0.92770   0.01267  Uiso   1.00
C1     C     0.11050   0.91380   0.79290   0.01267  Uiso   1.00
C2     C     0.08520   0.97540   0.81510   0.01267  Uiso   1.00
C3     C     0.14130   0.01300   0.86110   0.01267  Uiso   1.00
C4     C     0.22260   0.98900   0.88470   0.01267  Uiso   1.00
C5     C     0.24790   0.92740   0.86240   0.01267  Uiso   1.00
C6     C     0.96320   0.56440   0.01930   0.01267  Uiso   1.00
C7     C     0.00020   0.52940   0.97700   0.01267  Uiso   1.00
C8     C     0.04790   0.57100   0.93080   0.01267  Uiso   1.00
C9     C     0.06090   0.64980   0.92630   0.01267  Uiso   1.00
C10    C     0.03230   0.76700   0.96500   0.01267  Uiso   1.00
C11    C     0.99210   0.79960   0.00550   0.01267  Uiso   1.00
C12    C     0.94410   0.75800   0.05200   0.01267  Uiso   1.00
C13    C     0.93440   0.68080   0.05720   0.01267  Uiso   1.00
C14    C     0.97426   0.64352   0.01520   0.01267  Uiso   1.00
C15    C     0.02510   0.68760   0.96850   0.01267  Uiso   1.00
C16    C     0.11690   0.69300   0.87620   0.01267  Uiso   1.00
C17    C     0.01810   0.41160   0.94150   0.01267  Uiso   1.00
C18    C     0.97240   0.32540   0.95630   0.01267  Uiso   1.00
C19    C     0.90593   0.51426   0.06670   0.01267  Uiso   1.00
C20    C     0.80180   0.45760   0.05740   0.01267  Uiso   1.00
C21    C     0.74750   0.40400   0.09870   0.01267  Uiso   1.00
C22    C     0.79579   0.40638   0.14770   0.01267  Uiso   1.00
C23    C     0.95300   0.47300   0.21300   0.01267  Uiso   1.00
C24    C     0.05440   0.53060   0.22100   0.01267  Uiso   1.00
C25    C     0.10940   0.58300   0.17980   0.01267  Uiso   1.00
C26    C     0.05890   0.57920   0.13110   0.01267  Uiso   1.00
C27    C     0.95430   0.51980   0.11840   0.01267  Uiso   1.00
C28    C     0.90086   0.46432   0.16020   0.01267  Uiso   1.00
C29    C     0.73540   0.34180   0.18800   0.01267  Uiso   1.00
C30    C     0.69410   0.37940   0.98590   0.01267  Uiso   1.00
C31    C     0.70980   0.38420   0.92490   0.01267  Uiso   1.00
C32    C     0.59350   0.97960   0.97340   0.01267  Uiso   1.00
C33    C     0.49660   0.91820   0.96500   0.01267  Uiso   1.00
C34    C     0.47060   0.88160   0.91410   0.01267  Uiso   1.00
C35    C     0.54440   0.90760   0.87130   0.01267  Uiso   1.00
C36    C     0.72430   0.99920   0.83630   0.01267  Uiso   1.00
C37    C     0.81980   0.06000   0.84610   0.01267  Uiso   1.00
C38    C     0.84480   0.09640   0.89560   0.01267  Uiso   1.00
C39    C     0.77140   0.06920   0.93790   0.01267  Uiso   1.00
C40    C     0.66840   0.00540   0.93090   0.01267  Uiso   1.00
C41    C     0.64780   0.96860   0.87860   0.01267  Uiso   1.00
C42    C     0.50350   0.86600   0.81890   0.01267  Uiso   1.00
C43    C     0.32400   0.83320   0.00460   0.01267  Uiso   1.00
C44    C     0.27380   0.81600   0.05830   0.01267  Uiso   1.00
C45    C     0.88950   0.08620   0.29290   0.01267  Uiso   1.00
C46    C     0.91480   0.02460   0.31510   0.01267  Uiso   1.00
C47    C     0.85870   0.98700   0.36110   0.01267  Uiso   1.00
C48    C     0.77740   0.01100   0.38470   0.01267  Uiso   1.00
C49    C     0.75210   0.07260   0.36240   0.01267  Uiso   1.00
C50    C     0.03680   0.43560   0.51930   0.01267  Uiso   1.00
C51    C     0.99980   0.47060   0.47700   0.01267  Uiso   1.00
C52    C     0.95210   0.42900   0.43080   0.01267  Uiso   1.00
C53    C     0.93910   0.35020   0.42630   0.01267  Uiso   1.00
C54    C     0.96770   0.23300   0.46500   0.01267  Uiso   1.00
C55    C     0.00790   0.20040   0.50550   0.01267  Uiso   1.00
C56    C     0.05590   0.24200   0.55200   0.01267  Uiso   1.00
C57    C     0.06560   0.31920   0.55720   0.01267  Uiso   1.00
C58    C     0.02574   0.35648   0.51520   0.01267  Uiso   1.00
C59    C     0.97490   0.31240   0.46850   0.01267  Uiso   1.00
C60    C     0.88310   0.30700   0.37620   0.01267  Uiso   1.00
C61    C     0.98190   0.58840   0.44150   0.01267  Uiso   1.00
C62    C     0.02760   0.67460   0.45630   0.01267  Uiso   1.00
C63    C     0.09407   0.48574   0.56670   0.01267  Uiso   1.00
C64    C     0.19820   0.54240   0.55740   0.01267  Uiso   1.00
C65    C     0.25250   0.59600   0.59870   0.01267  Uiso   1.00
C66    C     0.20421   0.59362   0.64770   0.01267  Uiso   1.00
C67    C     0.04700   0.52700   0.71300   0.01267  Uiso   1.00
C68    C     0.94560   0.46940   0.72100   0.01267  Uiso   1.00
C69    C     0.89060   0.41700   0.67980   0.01267  Uiso   1.00
C70    C     0.94110   0.42080   0.63110   0.01267  Uiso   1.00
C71    C     0.04570   0.48020   0.61840   0.01267  Uiso   1.00
C72    C     0.09914   0.53568   0.66020   0.01267  Uiso   1.00
C73    C     0.26460   0.65820   0.68800   0.01267  Uiso   1.00
C74    C     0.30590   0.62060   0.48590   0.01267  Uiso   1.00
C75    C     0.29020   0.61580   0.42490   0.01267  Uiso   1.00
C76    C     0.40650   0.02040   0.47340   0.01267  Uiso   1.00
C77    C     0.50340   0.08180   0.46500   0.01267  Uiso   1.00
C78    C     0.52940   0.11840   0.41410   0.01267  Uiso   1.00
C79    C     0.45560   0.09240   0.37130   0.01267  Uiso   1.00
C80    C     0.27570   0.00080   0.33630   0.01267  Uiso   1.00
C81    C     0.18020   0.94000   0.34610   0.01267  Uiso   1.00
C82    C     0.15520   0.90360   0.39560   0.01267  Uiso   1.00
C83    C     0.22860   0.93080   0.43790   0.01267  Uiso   1.00
C84    C     0.33160   0.99460   0.43090   0.01267  Uiso   1.00
C85    C     0.35220   0.03140   0.37860   0.01267  Uiso   1.00
C86    C     0.49650   0.13400   0.31890   0.01267  Uiso   1.00
C87    C     0.67600   0.16680   0.50460   0.01267  Uiso   1.00
C88    C     0.72620   0.18400   0.55830   0.01267  Uiso   1.00
C89    C     0.80330   0.91380   0.70710   0.01267  Uiso   1.00
C90    C     0.89020   0.97540   0.68490   0.01267  Uiso   1.00
C91    C     0.87170   0.01300   0.63890   0.01267  Uiso   1.00
C92    C     0.76640   0.98900   0.61530   0.01267  Uiso   1.00
C93    C     0.67950   0.92740   0.63760   0.01267  Uiso   1.00
C94    C     0.60120   0.56440   0.48070   0.01267  Uiso   1.00
C95    C     0.52920   0.52940   0.52300   0.01267  Uiso   1.00
C96    C     0.52310   0.57100   0.56920   0.01267  Uiso   1.00
C97    C     0.58890   0.64980   0.57370   0.01267  Uiso   1.00
C98    C     0.73470   0.76700   0.53500   0.01267  Uiso   1.00
C99    C     0.80750   0.79960   0.49450   0.01267  Uiso   1.00
C100   C     0.81390   0.75800   0.44800   0.01267  Uiso   1.00
C101   C     0.74640   0.68080   0.44280   0.01267  Uiso   1.00
C102   C     0.66926   0.64352   0.48480   0.01267  Uiso   1.00
C103   C     0.66250   0.68760   0.53150   0.01267  Uiso   1.00
C104   C     0.57610   0.69300   0.62380   0.01267  Uiso   1.00
C105   C     0.39350   0.41160   0.55850   0.01267  Uiso   1.00
C106   C     0.35300   0.32540   0.54370   0.01267  Uiso   1.00
C107   C     0.60833   0.51426   0.43330   0.01267  Uiso   1.00
C108   C     0.65580   0.45760   0.44260   0.01267  Uiso   1.00
C109   C     0.65650   0.40400   0.40130   0.01267  Uiso   1.00
C110   C     0.61059   0.40638   0.35230   0.01267  Uiso   1.00
C111   C     0.52000   0.47300   0.28700   0.01267  Uiso   1.00
C112   C     0.47620   0.53060   0.27900   0.01267  Uiso   1.00
C113   C     0.47360   0.58300   0.32020   0.01267  Uiso   1.00
C114   C     0.52030   0.57920   0.36890   0.01267  Uiso   1.00
C115   C     0.56550   0.51980   0.38160   0.01267  Uiso   1.00
C116   C     0.56346   0.46432   0.33980   0.01267  Uiso   1.00
C117   C     0.60640   0.34180   0.31200   0.01267  Uiso   1.00
C118   C     0.68530   0.37940   0.51410   0.01267  Uiso   1.00
C119   C     0.67440   0.38420   0.57510   0.01267  Uiso   1.00
C120   C     0.38610   0.97960   0.52660   0.01267  Uiso   1.00
C121   C     0.42160   0.91820   0.53500   0.01267  Uiso   1.00
C122   C     0.41100   0.88160   0.58590   0.01267  Uiso   1.00
C123   C     0.36320   0.90760   0.62870   0.01267  Uiso   1.00
C124   C     0.27490   0.99920   0.66370   0.01267  Uiso   1.00
C125   C     0.24020   0.06000   0.65390   0.01267  Uiso   1.00
C126   C     0.25160   0.09640   0.60440   0.01267  Uiso   1.00
C127   C     0.29780   0.06920   0.56210   0.01267  Uiso   1.00
C128   C     0.33700   0.00540   0.56910   0.01267  Uiso   1.00
C129   C     0.32080   0.96860   0.62140   0.01267  Uiso   1.00
C130   C     0.36250   0.86600   0.68110   0.01267  Uiso   1.00
C131   C     0.50920   0.83320   0.49540   0.01267  Uiso   1.00
C132   C     0.54220   0.81600   0.44170   0.01267  Uiso   1.00
C133   C     0.19670   0.08620   0.20710   0.01267  Uiso   1.00
C134   C     0.10980   0.02460   0.18490   0.01267  Uiso   1.00
C135   C     0.12830   0.98700   0.13890   0.01267  Uiso   1.00
C136   C     0.23360   0.01100   0.11530   0.01267  Uiso   1.00
C137   C     0.32050   0.07260   0.13760   0.01267  Uiso   1.00
C138   C     0.39880   0.43560   0.98070   0.01267  Uiso   1.00
C139   C     0.47080   0.47060   0.02300   0.01267  Uiso   1.00
C140   C     0.47690   0.42900   0.06920   0.01267  Uiso   1.00
C141   C     0.41110   0.35020   0.07370   0.01267  Uiso   1.00
C142   C     0.26530   0.23300   0.03500   0.01267  Uiso   1.00
C143   C     0.19250   0.20040   0.99450   0.01267  Uiso   1.00
C144   C     0.18610   0.24200   0.94800   0.01267  Uiso   1.00
C145   C     0.25360   0.31920   0.94280   0.01267  Uiso   1.00
C146   C     0.33074   0.35648   0.98480   0.01267  Uiso   1.00
C147   C     0.33750   0.31240   0.03150   0.01267  Uiso   1.00
C148   C     0.42390   0.30700   0.12380   0.01267  Uiso   1.00
C149   C     0.60650   0.58840   0.05850   0.01267  Uiso   1.00
C150   C     0.64700   0.67460   0.04370   0.01267  Uiso   1.00
C151   C     0.39167   0.48574   0.93330   0.01267  Uiso   1.00
C152   C     0.34420   0.54240   0.94260   0.01267  Uiso   1.00
C153   C     0.34350   0.59600   0.90130   0.01267  Uiso   1.00
C154   C     0.38941   0.59362   0.85230   0.01267  Uiso   1.00
C155   C     0.48000   0.52700   0.78700   0.01267  Uiso   1.00
C156   C     0.52380   0.46940   0.77900   0.01267  Uiso   1.00
C157   C     0.52640   0.41700   0.82020   0.01267  Uiso   1.00
C158   C     0.47970   0.42080   0.86890   0.01267  Uiso   1.00
C159   C     0.43450   0.48020   0.88160   0.01267  Uiso   1.00
C160   C     0.43654   0.53568   0.83980   0.01267  Uiso   1.00
C161   C     0.39360   0.65820   0.81200   0.01267  Uiso   1.00
C162   C     0.31470   0.62060   0.01410   0.01267  Uiso   1.00
C163   C     0.32560   0.61580   0.07510   0.01267  Uiso   1.00
C164   C     0.61390   0.02040   0.02660   0.01267  Uiso   1.00
C165   C     0.57840   0.08180   0.03500   0.01267  Uiso   1.00
C166   C     0.58900   0.11840   0.08590   0.01267  Uiso   1.00
C167   C     0.63680   0.09240   0.12870   0.01267  Uiso   1.00
C168   C     0.72510   0.00080   0.16370   0.01267  Uiso   1.00
C169   C     0.75980   0.94000   0.15390   0.01267  Uiso   1.00
C170   C     0.74840   0.90360   0.10440   0.01267  Uiso   1.00
C171   C     0.70220   0.93080   0.06210   0.01267  Uiso   1.00
C172   C     0.66300   0.99460   0.06910   0.01267  Uiso   1.00
C173   C     0.67920   0.03140   0.12140   0.01267  Uiso   1.00
C174   C     0.63750   0.13400   0.18110   0.01267  Uiso   1.00
C175   C     0.49080   0.16680   0.99540   0.01267  Uiso   1.00
C176   C     0.45780   0.18400   0.94170   0.01267  Uiso   1.00
N1     N     0.19176   0.88972   0.81650   0.01267  Uiso   1.00
N2     N     0.80824   0.11028   0.31650   0.01267  Uiso   1.00
N3     N     0.69796   0.88972   0.68350   0.01267  Uiso   1.00
N4     N     0.30204   0.11028   0.18350   0.01267  Uiso   1.00
Cl1    Cl    0.99738   0.89636   0.00027   0.01267  Uiso   1.00
Cl2    Cl    0.11830   0.53820   0.28485   0.01267  Uiso   1.00
Cl3    Cl    0.91634   0.09828   0.79327   0.01267  Uiso   1.00
Cl4    Cl    0.00262   0.10364   0.50027   0.01267  Uiso   1.00
Cl5    Cl    0.88170   0.46180   0.78485   0.01267  Uiso   1.00
Cl6    Cl    0.08366   0.90172   0.29327   0.01267  Uiso   1.00
Cl7    Cl    0.89898   0.89636   0.49973   0.01267  Uiso   1.00
Cl8    Cl    0.41990   0.53820   0.21515   0.01267  Uiso   1.00
Cl9    Cl    0.18194   0.09828   0.70673   0.01267  Uiso   1.00
Cl10   Cl    0.10102   0.10364   0.99973   0.01267  Uiso   1.00
Cl11   Cl    0.58010   0.46180   0.71515   0.01267  Uiso   1.00
Cl12   Cl    0.81806   0.90172   0.20673   0.01267  Uiso   1.00
O1     O     0.19385   0.75690   0.88033   0.01267  Uiso   1.00
O2     O     0.08491   0.66282   0.83062   0.01267  Uiso   1.00
O3     O     0.98417   0.45174   0.98380   0.01267  Uiso   1.00
O4     O     0.63185   0.31930   0.18730   0.01267  Uiso   1.00
O5     O     0.79495   0.31450   0.21580   0.01267  Uiso   1.00
O6     O     0.75718   0.45536   0.00700   0.01267  Uiso   1.00
O7     O     0.40250   0.84400   0.81000   0.01267  Uiso   1.00
O8     O     0.57523   0.85546   0.78790   0.01267  Uiso   1.00
O9     O     0.42600   0.89360   0.00900   0.01267  Uiso   1.00
O10    O     0.80615   0.24310   0.38033   0.01267  Uiso   1.00
O11    O     0.91509   0.33718   0.33062   0.01267  Uiso   1.00
O12    O     0.01583   0.54826   0.48380   0.01267  Uiso   1.00
O13    O     0.36815   0.68070   0.68730   0.01267  Uiso   1.00
O14    O     0.20505   0.68550   0.71580   0.01267  Uiso   1.00
O15    O     0.24282   0.54464   0.50700   0.01267  Uiso   1.00
O16    O     0.59750   0.15600   0.31000   0.01267  Uiso   1.00
O17    O     0.42477   0.14454   0.28790   0.01267  Uiso   1.00
O18    O     0.57400   0.10640   0.50900   0.01267  Uiso   1.00
O19    O     0.56305   0.75690   0.61967   0.01267  Uiso   1.00
O20    O     0.57791   0.66282   0.66938   0.01267  Uiso   1.00
O21    O     0.46757   0.45174   0.51620   0.01267  Uiso   1.00
O22    O     0.68745   0.31930   0.31270   0.01267  Uiso   1.00
O23    O     0.51955   0.31450   0.28420   0.01267  Uiso   1.00
O24    O     0.69818   0.45536   0.49300   0.01267  Uiso   1.00
O25    O     0.44150   0.84400   0.69000   0.01267  Uiso   1.00
O26    O     0.28023   0.85546   0.71210   0.01267  Uiso   1.00
O27    O     0.46760   0.89360   0.49100   0.01267  Uiso   1.00
O28    O     0.43695   0.24310   0.11967   0.01267  Uiso   1.00
O29    O     0.42209   0.33718   0.16938   0.01267  Uiso   1.00
O30    O     0.53243   0.54826   0.01620   0.01267  Uiso   1.00
O31    O     0.31255   0.68070   0.81270   0.01267  Uiso   1.00
O32    O     0.48045   0.68550   0.78420   0.01267  Uiso   1.00
O33    O     0.30182   0.54464   0.99300   0.01267  Uiso   1.00
O34    O     0.55850   0.15600   0.19000   0.01267  Uiso   1.00
O35    O     0.71977   0.14454   0.21210   0.01267  Uiso   1.00
O36    O     0.53240   0.10640   0.99100   0.01267  Uiso   1.00
