data_image0
_cell_length_a       10.134
_cell_length_b       10.836
_cell_length_c       13.741
_cell_angle_alpha    79.153
_cell_angle_beta     78.786
_cell_angle_gamma    86.276

_symmetry_space_group_name_H-M    "P 1"
_symmetry_int_tables_number       1

loop_
  _symmetry_equiv_pos_as_xyz
  'x, y, z'

loop_
  _atom_site_label
  _atom_site_occupancy
  _atom_site_fract_x
  _atom_site_fract_y
  _atom_site_fract_z
  _atom_site_thermal_displace_type
  _atom_site_B_iso_or_equiv
  _atom_site_type_symbol
  Eu1      1.0000 0.68102  0.07748  0.70312  Biso   1.000  Eu
  C1       1.0000 0.70180  0.47220  0.72680  Biso   1.000  C
  C2       1.0000 0.67850  0.41770  0.82850  Biso   1.000  C
  H1       1.0000 0.67290  0.33080  0.84690  Biso   1.000  H
  C3       1.0000 0.66360  0.49050  0.90240  Biso   1.000  C
  C4       1.0000 0.66500  0.62080  0.87450  Biso   1.000  C
  H2       1.0000 0.65350  0.67100  0.92350  Biso   1.000  H
  C5       1.0000 0.68370  0.67520  0.77360  Biso   1.000  C
  C6       1.0000 0.70370  0.60170  0.69990  Biso   1.000  C
  H3       1.0000 0.71840  0.63920  0.63210  Biso   1.000  H
  C7       1.0000 0.68700  0.81490  0.74750  Biso   1.000  C
  C8       1.0000 0.73260  0.39410  0.64620  Biso   1.000  C
  C9       1.0000 0.66580  0.48230  0.08210  Biso   1.000  C
  C10      1.0000 0.65160  0.40030  0.18390  Biso   1.000  C
  C11      1.0000 0.65120  0.26970  0.20190  Biso   1.000  C
  H4       1.0000 0.65460  0.22610  0.14920  Biso   1.000  H
  C12      1.0000 0.64570  0.20620  0.29910  Biso   1.000  C
  H5       1.0000 0.64530  0.11890  0.31010  Biso   1.000  H
  C13      1.0000 0.63930  0.38740  0.36060  Biso   1.000  C
  H6       1.0000 0.63460  0.42870  0.41470  Biso   1.000  H
  C14      1.0000 0.64440  0.45780  0.26610  Biso   1.000  C
  H7       1.0000 0.64300  0.54510  0.25740  Biso   1.000  H
  C15      1.0000 0.26250  0.11400  0.83210  Biso   1.000  C
  C16      1.0000 0.15860  0.10370  0.78340  Biso   1.000  C
  H8       1.0000 0.17670  0.08590  0.71840  Biso   1.000  H
  C17      1.0000 0.02590  0.12020  0.83170  Biso   1.000  C
  C18      1.0000 0.99900  0.14980  0.92710  Biso   1.000  C
  H9       1.0000 0.91050  0.16140  0.95900  Biso   1.000  H
  C19      1.0000 0.10410  0.16240  0.97550  Biso   1.000  C
  C20      1.0000 0.23470  0.14190  0.92980  Biso   1.000  C
  H10      1.0000 0.30480  0.14660  0.96370  Biso   1.000  H
  C21      1.0000 0.40670  0.09800  0.78490  Biso   1.000  C
  C22      1.0000 0.90920  0.10970  0.78220  Biso   1.000  C
  C23      1.0000 0.99360  0.29560  0.09200  Biso   1.000  C
  C24      1.0000 0.99030  0.33810  0.19050  Biso   1.000  C
  C25      1.0000 0.98300  0.25740  0.28100  Biso   1.000  C
  H11      1.0000 0.98300  0.17090  0.28400  Biso   1.000  H
  C26      1.0000 0.97550  0.30630  0.36740  Biso   1.000  C
  H12      1.0000 0.96770  0.25100  0.42860  Biso   1.000  H
  C27      1.0000 0.98520  0.50640  0.27860  Biso   1.000  C
  H13      1.0000 0.98680  0.59250  0.27710  Biso   1.000  H
  C28      1.0000 0.98940  0.46550  0.18920  Biso   1.000  C
  H14      1.0000 0.99150  0.52250  0.12920  Biso   1.000  H
  N1       1.0000 0.64590  0.43040  0.00430  Biso   1.000  N
  H15      1.0000 0.62020  0.35400  0.01800  Biso   1.000  H
  N2       1.0000 0.64080  0.26110  0.37830  Biso   1.000  N
  N3       1.0000 0.07920  0.19790  0.07230  Biso   1.000  N
  H16      1.0000 0.11900  0.15690  0.11890  Biso   1.000  H
  N4       1.0000 0.97910  0.42960  0.36770  Biso   1.000  N
  O1       1.0000 0.80700  0.43560  0.56480  Biso   1.000  O
  O2       1.0000 0.67980  0.28710  0.66430  Biso   1.000  O
  O3       1.0000 0.67080  0.87100  0.66100  Biso   1.000  O
  O4       1.0000 0.70580  0.87710  0.81070  Biso   1.000  O
  O5       1.0000 0.69140  0.59180  0.07450  Biso   1.000  O
  O6       1.0000 0.44100  0.09900  0.69070  Biso   1.000  O
  O7       1.0000 0.49630  0.08400  0.83730  Biso   1.000  O
  O8       1.0000 0.92690  0.09500  0.69050  Biso   1.000  O
  O9       1.0000 0.79150  0.11470  0.83280  Biso   1.000  O
  O10      1.0000 0.92430  0.35110  0.03320  Biso   1.000  O
  Eu2      1.0000 0.31898  0.92252  0.29688  Biso   1.000  Eu
  C29      1.0000 0.29820  0.52780  0.27320  Biso   1.000  C
  C30      1.0000 0.32150  0.58230  0.17150  Biso   1.000  C
  H17      1.0000 0.32710  0.66920  0.15310  Biso   1.000  H
  C31      1.0000 0.33640  0.50950  0.09760  Biso   1.000  C
  C32      1.0000 0.33500  0.37920  0.12550  Biso   1.000  C
  H18      1.0000 0.34650  0.32900  0.07650  Biso   1.000  H
  C33      1.0000 0.31630  0.32480  0.22640  Biso   1.000  C
  C34      1.0000 0.29630  0.39830  0.30010  Biso   1.000  C
  H19      1.0000 0.28160  0.36080  0.36790  Biso   1.000  H
  C35      1.0000 0.31300  0.18510  0.25250  Biso   1.000  C
  C36      1.0000 0.26740  0.60590  0.35380  Biso   1.000  C
  C37      1.0000 0.33420  0.51770  0.91790  Biso   1.000  C
  C38      1.0000 0.34840  0.59970  0.81610  Biso   1.000  C
  C39      1.0000 0.34880  0.73030  0.79810  Biso   1.000  C
  H20      1.0000 0.34540  0.77390  0.85080  Biso   1.000  H
  C40      1.0000 0.35430  0.79380  0.70090  Biso   1.000  C
  H21      1.0000 0.35470  0.88110  0.68990  Biso   1.000  H
  C41      1.0000 0.36070  0.61260  0.63940  Biso   1.000  C
  H22      1.0000 0.36540  0.57130  0.58530  Biso   1.000  H
  C42      1.0000 0.35560  0.54220  0.73390  Biso   1.000  C
  H23      1.0000 0.35700  0.45490  0.74260  Biso   1.000  H
  C43      1.0000 0.73750  0.88600  0.16790  Biso   1.000  C
  C44      1.0000 0.84140  0.89630  0.21660  Biso   1.000  C
  H24      1.0000 0.82330  0.91410  0.28160  Biso   1.000  H
  C45      1.0000 0.97410  0.87980  0.16830  Biso   1.000  C
  C46      1.0000 0.00100  0.85020  0.07290  Biso   1.000  C
  H25      1.0000 0.08950  0.83860  0.04100  Biso   1.000  H
  C47      1.0000 0.89590  0.83760  0.02450  Biso   1.000  C
  C48      1.0000 0.76530  0.85810  0.07020  Biso   1.000  C
  H26      1.0000 0.69520  0.85340  0.03630  Biso   1.000  H
  C49      1.0000 0.59330  0.90200  0.21510  Biso   1.000  C
  C50      1.0000 0.09080  0.89030  0.21780  Biso   1.000  C
  C51      1.0000 0.00640  0.70440  0.90800  Biso   1.000  C
  C52      1.0000 0.00970  0.66190  0.80950  Biso   1.000  C
  C53      1.0000 0.01700  0.74260  0.71900  Biso   1.000  C
  H27      1.0000 0.01700  0.82910  0.71600  Biso   1.000  H
  C54      1.0000 0.02450  0.69370  0.63260  Biso   1.000  C
  H28      1.0000 0.03230  0.74900  0.57140  Biso   1.000  H
  C55      1.0000 0.01480  0.49360  0.72140  Biso   1.000  C
  H29      1.0000 0.01320  0.40750  0.72290  Biso   1.000  H
  C56      1.0000 0.01060  0.53450  0.81080  Biso   1.000  C
  H30      1.0000 0.00850  0.47750  0.87080  Biso   1.000  H
  N5       1.0000 0.35410  0.56960  0.99570  Biso   1.000  N
  H31      1.0000 0.37980  0.64600  0.98200  Biso   1.000  H
  N6       1.0000 0.35920  0.73890  0.62170  Biso   1.000  N
  N7       1.0000 0.92080  0.80210  0.92770  Biso   1.000  N
  H32      1.0000 0.88100  0.84310  0.88110  Biso   1.000  H
  N8       1.0000 0.02090  0.57040  0.63230  Biso   1.000  N
  O11      1.0000 0.19300  0.56440  0.43520  Biso   1.000  O
  O12      1.0000 0.32020  0.71290  0.33570  Biso   1.000  O
  O13      1.0000 0.32920  0.12900  0.33900  Biso   1.000  O
  O14      1.0000 0.29420  0.12290  0.18930  Biso   1.000  O
  O15      1.0000 0.30860  0.40820  0.92550  Biso   1.000  O
  O16      1.0000 0.55900  0.90100  0.30930  Biso   1.000  O
  O17      1.0000 0.50370  0.91600  0.16270  Biso   1.000  O
  O18      1.0000 0.07310  0.90500  0.30950  Biso   1.000  O
  O19      1.0000 0.20850  0.88530  0.16720  Biso   1.000  O
  O20      1.0000 0.07570  0.64890  0.96680  Biso   1.000  O
  Ni1      1.0000 0.00000  0.50000  0.50000  Biso   1.000  Ni
