data_image0
_cell_length_a       13.834
_cell_length_b       13.834
_cell_length_c       6.162
_cell_angle_alpha    90
_cell_angle_beta     90
_cell_angle_gamma    90

_symmetry_space_group_name_H-M    "P 1"
_symmetry_int_tables_number       1

loop_
  _symmetry_equiv_pos_as_xyz
  'x, y, z'

loop_
  _atom_site_label
  _atom_site_occupancy
  _atom_site_fract_x
  _atom_site_fract_y
  _atom_site_fract_z
  _atom_site_thermal_displace_type
  _atom_site_B_iso_or_equiv
  _atom_site_type_symbol
  S1       1.0000 0.47298  0.60196  0.23856  Biso   1.000  S
  N1       1.0000 0.32319  0.65123  0.74730  Biso   1.000  N
  C1       1.0000 0.37797  0.55880  0.08620  Biso   1.000  C
  C2       1.0000 0.34311  0.47269  0.16390  Biso   1.000  C
  H1       1.0000 0.29210  0.43880  0.10170  Biso   1.000  H
  C3       1.0000 0.39397  0.44188  0.34910  Biso   1.000  C
  H2       1.0000 0.37980  0.38510  0.42320  Biso   1.000  H
  C4       1.0000 0.46636  0.50366  0.40930  Biso   1.000  C
  C5       1.0000 0.34690  0.60950  0.89860  Biso   1.000  C
  S2       1.0000 0.02702  0.89804  0.23856  Biso   1.000  S
  N2       1.0000 0.17681  0.84877  0.74730  Biso   1.000  N
  C6       1.0000 0.12203  0.94120  0.08620  Biso   1.000  C
  C7       1.0000 0.15689  0.02731  0.16390  Biso   1.000  C
  H3       1.0000 0.20790  0.06120  0.10170  Biso   1.000  H
  C8       1.0000 0.10603  0.05812  0.34910  Biso   1.000  C
  H4       1.0000 0.12020  0.11490  0.42320  Biso   1.000  H
  C9       1.0000 0.03364  0.99634  0.40930  Biso   1.000  C
  C10      1.0000 0.15310  0.89050  0.89860  Biso   1.000  C
  S3       1.0000 0.89804  0.47298  0.23856  Biso   1.000  S
  N3       1.0000 0.84877  0.32319  0.74730  Biso   1.000  N
  C11      1.0000 0.94120  0.37797  0.08620  Biso   1.000  C
  C12      1.0000 0.02731  0.34311  0.16390  Biso   1.000  C
  H5       1.0000 0.06120  0.29210  0.10170  Biso   1.000  H
  C13      1.0000 0.05812  0.39397  0.34910  Biso   1.000  C
  H6       1.0000 0.11490  0.37980  0.42320  Biso   1.000  H
  C14      1.0000 0.99634  0.46636  0.40930  Biso   1.000  C
  C15      1.0000 0.89050  0.34690  0.89860  Biso   1.000  C
  S4       1.0000 0.60196  0.02702  0.23856  Biso   1.000  S
  N4       1.0000 0.65123  0.17681  0.74730  Biso   1.000  N
  C16      1.0000 0.55880  0.12203  0.08620  Biso   1.000  C
  C17      1.0000 0.47269  0.15689  0.16390  Biso   1.000  C
  H7       1.0000 0.43880  0.20790  0.10170  Biso   1.000  H
  C18      1.0000 0.44188  0.10603  0.34910  Biso   1.000  C
  H8       1.0000 0.38510  0.12020  0.42320  Biso   1.000  H
  C19      1.0000 0.50366  0.03364  0.40930  Biso   1.000  C
  C20      1.0000 0.60950  0.15310  0.89860  Biso   1.000  C
  S5       1.0000 0.52702  0.39804  0.76144  Biso   1.000  S
  N5       1.0000 0.67681  0.34877  0.25270  Biso   1.000  N
  C21      1.0000 0.62203  0.44120  0.91380  Biso   1.000  C
  C22      1.0000 0.65689  0.52731  0.83610  Biso   1.000  C
  H9       1.0000 0.70790  0.56120  0.89830  Biso   1.000  H
  C23      1.0000 0.60603  0.55812  0.65090  Biso   1.000  C
  H10      1.0000 0.62020  0.61490  0.57680  Biso   1.000  H
  C24      1.0000 0.53364  0.49634  0.59070  Biso   1.000  C
  C25      1.0000 0.65310  0.39050  0.10140  Biso   1.000  C
  S6       1.0000 0.97298  0.10196  0.76144  Biso   1.000  S
  N6       1.0000 0.82319  0.15123  0.25270  Biso   1.000  N
  C26      1.0000 0.87797  0.05880  0.91380  Biso   1.000  C
  C27      1.0000 0.84311  0.97269  0.83610  Biso   1.000  C
  H11      1.0000 0.79210  0.93880  0.89830  Biso   1.000  H
  C28      1.0000 0.89397  0.94188  0.65090  Biso   1.000  C
  H12      1.0000 0.87980  0.88510  0.57680  Biso   1.000  H
  C29      1.0000 0.96636  0.00366  0.59070  Biso   1.000  C
  C30      1.0000 0.84690  0.10950  0.10140  Biso   1.000  C
  S7       1.0000 0.10196  0.52702  0.76144  Biso   1.000  S
  N7       1.0000 0.15123  0.67681  0.25270  Biso   1.000  N
  C31      1.0000 0.05880  0.62203  0.91380  Biso   1.000  C
  C32      1.0000 0.97269  0.65689  0.83610  Biso   1.000  C
  H13      1.0000 0.93880  0.70790  0.89830  Biso   1.000  H
  C33      1.0000 0.94188  0.60603  0.65090  Biso   1.000  C
  H14      1.0000 0.88510  0.62020  0.57680  Biso   1.000  H
  C34      1.0000 0.00366  0.53364  0.59070  Biso   1.000  C
  C35      1.0000 0.10950  0.65310  0.10140  Biso   1.000  C
  S8       1.0000 0.39804  0.97298  0.76144  Biso   1.000  S
  N8       1.0000 0.34877  0.82319  0.25270  Biso   1.000  N
  C36      1.0000 0.44120  0.87797  0.91380  Biso   1.000  C
  C37      1.0000 0.52731  0.84311  0.83610  Biso   1.000  C
  H15      1.0000 0.56120  0.79210  0.89830  Biso   1.000  H
  C38      1.0000 0.55812  0.89397  0.65090  Biso   1.000  C
  H16      1.0000 0.61490  0.87980  0.57680  Biso   1.000  H
  C39      1.0000 0.49634  0.96636  0.59070  Biso   1.000  C
  C40      1.0000 0.39050  0.84690  0.10140  Biso   1.000  C
  Ag1      1.0000 0.25000  0.75000  0.50000  Biso   1.000  Ag
  Ag2      1.0000 0.75000  0.25000  0.50000  Biso   1.000  Ag
