data_image0
_cell_length_a       13.6376
_cell_length_b       13.6376
_cell_length_c       6.2054
_cell_angle_alpha    90
_cell_angle_beta     90
_cell_angle_gamma    90

_symmetry_space_group_name_H-M    "P 1"
_symmetry_int_tables_number       1

loop_
  _symmetry_equiv_pos_as_xyz
  'x, y, z'

loop_
  _atom_site_label
  _atom_site_occupancy
  _atom_site_fract_x
  _atom_site_fract_y
  _atom_site_fract_z
  _atom_site_thermal_displace_type
  _atom_site_B_iso_or_equiv
  _atom_site_type_symbol
  S1       1.0000 0.47262  0.60431  0.24374  Biso   1.000  S
  N1       1.0000 0.32630  0.65270  0.74980  Biso   1.000  N
  C1       1.0000 0.38030  0.55840  0.08440  Biso   1.000  C
  C2       1.0000 0.34740  0.46910  0.15460  Biso   1.000  C
  H1       1.0000 0.29740  0.43230  0.08520  Biso   1.000  H
  C3       1.0000 0.39660  0.43870  0.34170  Biso   1.000  C
  H2       1.0000 0.38240  0.37930  0.41500  Biso   1.000  H
  C4       1.0000 0.46710  0.50330  0.40780  Biso   1.000  C
  C5       1.0000 0.34970  0.61030  0.89840  Biso   1.000  C
  S2       1.0000 0.02738  0.89569  0.24374  Biso   1.000  S
  N2       1.0000 0.17370  0.84730  0.74980  Biso   1.000  N
  C6       1.0000 0.11970  0.94160  0.08440  Biso   1.000  C
  C7       1.0000 0.15260  0.03090  0.15460  Biso   1.000  C
  H3       1.0000 0.20260  0.06770  0.08520  Biso   1.000  H
  C8       1.0000 0.10340  0.06130  0.34170  Biso   1.000  C
  H4       1.0000 0.11760  0.12070  0.41500  Biso   1.000  H
  C9       1.0000 0.03290  0.99670  0.40780  Biso   1.000  C
  C10      1.0000 0.15030  0.88970  0.89840  Biso   1.000  C
  S3       1.0000 0.89569  0.47262  0.24374  Biso   1.000  S
  N3       1.0000 0.84730  0.32630  0.74980  Biso   1.000  N
  C11      1.0000 0.94160  0.38030  0.08440  Biso   1.000  C
  C12      1.0000 0.03090  0.34740  0.15460  Biso   1.000  C
  H5       1.0000 0.06770  0.29740  0.08520  Biso   1.000  H
  C13      1.0000 0.06130  0.39660  0.34170  Biso   1.000  C
  H6       1.0000 0.12070  0.38240  0.41500  Biso   1.000  H
  C14      1.0000 0.99670  0.46710  0.40780  Biso   1.000  C
  C15      1.0000 0.88970  0.34970  0.89840  Biso   1.000  C
  S4       1.0000 0.60431  0.02738  0.24374  Biso   1.000  S
  N4       1.0000 0.65270  0.17370  0.74980  Biso   1.000  N
  C16      1.0000 0.55840  0.11970  0.08440  Biso   1.000  C
  C17      1.0000 0.46910  0.15260  0.15460  Biso   1.000  C
  H7       1.0000 0.43230  0.20260  0.08520  Biso   1.000  H
  C18      1.0000 0.43870  0.10340  0.34170  Biso   1.000  C
  H8       1.0000 0.37930  0.11760  0.41500  Biso   1.000  H
  C19      1.0000 0.50330  0.03290  0.40780  Biso   1.000  C
  C20      1.0000 0.61030  0.15030  0.89840  Biso   1.000  C
  S5       1.0000 0.52738  0.39569  0.75626  Biso   1.000  S
  N5       1.0000 0.67370  0.34730  0.25020  Biso   1.000  N
  C21      1.0000 0.61970  0.44160  0.91560  Biso   1.000  C
  C22      1.0000 0.65260  0.53090  0.84540  Biso   1.000  C
  H9       1.0000 0.70260  0.56770  0.91480  Biso   1.000  H
  C23      1.0000 0.60340  0.56130  0.65830  Biso   1.000  C
  H10      1.0000 0.61760  0.62070  0.58500  Biso   1.000  H
  C24      1.0000 0.53290  0.49670  0.59220  Biso   1.000  C
  C25      1.0000 0.65030  0.38970  0.10160  Biso   1.000  C
  S6       1.0000 0.97262  0.10431  0.75626  Biso   1.000  S
  N6       1.0000 0.82630  0.15270  0.25020  Biso   1.000  N
  C26      1.0000 0.88030  0.05840  0.91560  Biso   1.000  C
  C27      1.0000 0.84740  0.96910  0.84540  Biso   1.000  C
  H11      1.0000 0.79740  0.93230  0.91480  Biso   1.000  H
  C28      1.0000 0.89660  0.93870  0.65830  Biso   1.000  C
  H12      1.0000 0.88240  0.87930  0.58500  Biso   1.000  H
  C29      1.0000 0.96710  0.00330  0.59220  Biso   1.000  C
  C30      1.0000 0.84970  0.11030  0.10160  Biso   1.000  C
  S7       1.0000 0.10431  0.52738  0.75626  Biso   1.000  S
  N7       1.0000 0.15270  0.67370  0.25020  Biso   1.000  N
  C31      1.0000 0.05840  0.61970  0.91560  Biso   1.000  C
  C32      1.0000 0.96910  0.65260  0.84540  Biso   1.000  C
  H13      1.0000 0.93230  0.70260  0.91480  Biso   1.000  H
  C33      1.0000 0.93870  0.60340  0.65830  Biso   1.000  C
  H14      1.0000 0.87930  0.61760  0.58500  Biso   1.000  H
  C34      1.0000 0.00330  0.53290  0.59220  Biso   1.000  C
  C35      1.0000 0.11030  0.65030  0.10160  Biso   1.000  C
  S8       1.0000 0.39569  0.97262  0.75626  Biso   1.000  S
  N8       1.0000 0.34730  0.82630  0.25020  Biso   1.000  N
  C36      1.0000 0.44160  0.88030  0.91560  Biso   1.000  C
  C37      1.0000 0.53090  0.84740  0.84540  Biso   1.000  C
  H15      1.0000 0.56770  0.79740  0.91480  Biso   1.000  H
  C38      1.0000 0.56130  0.89660  0.65830  Biso   1.000  C
  H16      1.0000 0.62070  0.88240  0.58500  Biso   1.000  H
  C39      1.0000 0.49670  0.96710  0.59220  Biso   1.000  C
  C40      1.0000 0.38970  0.84970  0.10160  Biso   1.000  C
  Ag1      1.0000 0.25000  0.75000  0.50000  Biso   1.000  Ag
  Ag2      1.0000 0.75000  0.25000  0.50000  Biso   1.000  Ag
