data_XOPLOE_clean
_audit_creation_date              2014-07-02
_audit_creation_method            'Materials Studio'
_symmetry_space_group_name_H-M    'P1'
_symmetry_Int_Tables_number       1
_symmetry_cell_setting            triclinic
loop_
_symmetry_equiv_pos_as_xyz
  x,y,z
_cell_length_a                    16.0853
_cell_length_b                    17.4169
_cell_length_c                    19.3667
_cell_angle_alpha                 69.0900
_cell_angle_beta                  65.4630
_cell_angle_gamma                 62.4985
loop_
_atom_site_label
_atom_site_type_symbol
_atom_site_fract_x
_atom_site_fract_y
_atom_site_fract_z
_atom_site_U_iso_or_equiv
_atom_site_adp_type
_atom_site_occupancy
Cu1    Cu    0.51670   0.92428   0.04978   0.01267  Uiso   1.00
Cu2    Cu    0.45680   0.05576   0.54756   0.01267  Uiso   1.00
Cu3    Cu    0.49076   0.57572   0.45022   0.01267  Uiso   1.00
Cu4    Cu    0.06012   0.44424   0.95244   0.01267  Uiso   1.00
Cu5    Cu    0.48330   0.07572   0.95022   0.01267  Uiso   1.00
Cu6    Cu    0.54320   0.94424   0.45244   0.01267  Uiso   1.00
Cu7    Cu    0.50924   0.42428   0.54978   0.01267  Uiso   1.00
Cu8    Cu    0.93988   0.55576   0.04756   0.01267  Uiso   1.00
H1     H     0.81730   0.78610   0.92290   0.01267  Uiso   1.00
H2     H     0.97410   0.73330   0.83890   0.01267  Uiso   1.00
H3     H     0.92850   0.97080   0.69480   0.01267  Uiso   1.00
H4     H     0.76670   0.02530   0.77730   0.01267  Uiso   1.00
H5     H     0.21360   0.75290   0.61310   0.01267  Uiso   1.00
H6     H     0.34570   0.80110   0.55410   0.01267  Uiso   1.00
H7     H     0.19730   0.99010   0.68250   0.01267  Uiso   1.00
H8     H     0.06650   0.94100   0.73980   0.01267  Uiso   1.00
H9     H     0.61850   0.18910   0.01770   0.01267  Uiso   1.00
H10    H     0.66720   0.24740   0.07780   0.01267  Uiso   1.00
H11    H     0.62970   0.05720   0.27120   0.01267  Uiso   1.00
H12    H     0.57840   0.00100   0.21040   0.01267  Uiso   1.00
H13    H     0.83800   0.16570   0.10970   0.01267  Uiso   1.00
H14    H     0.93070   0.25400   0.05480   0.01267  Uiso   1.00
H15    H     0.74460   0.41280   0.20640   0.01267  Uiso   1.00
H16    H     0.64200   0.33160   0.25780   0.01267  Uiso   1.00
H17    H     0.52630   0.71390   0.57710   0.01267  Uiso   1.00
H18    H     0.54630   0.76670   0.66110   0.01267  Uiso   1.00
H19    H     0.59410   0.52920   0.80520   0.01267  Uiso   1.00
H20    H     0.56930   0.47470   0.72270   0.01267  Uiso   1.00
H21    H     0.57960   0.74710   0.88690   0.01267  Uiso   1.00
H22    H     0.70090   0.69890   0.94590   0.01267  Uiso   1.00
H23    H     0.86990   0.50990   0.81750   0.01267  Uiso   1.00
H24    H     0.74730   0.55900   0.76020   0.01267  Uiso   1.00
H25    H     0.82530   0.31090   0.48230   0.01267  Uiso   1.00
H26    H     0.99240   0.25260   0.42220   0.01267  Uiso   1.00
H27    H     0.95810   0.44280   0.22880   0.01267  Uiso   1.00
H28    H     0.78980   0.49900   0.28960   0.01267  Uiso   1.00
H29    H     0.11340   0.33430   0.39030   0.01267  Uiso   1.00
H30    H     0.23950   0.24600   0.44520   0.01267  Uiso   1.00
H31    H     0.36380   0.08720   0.29360   0.01267  Uiso   1.00
H32    H     0.23140   0.16840   0.24220   0.01267  Uiso   1.00
H33    H     0.18270   0.21390   0.07710   0.01267  Uiso   1.00
H34    H     0.02590   0.26670   0.16110   0.01267  Uiso   1.00
H35    H     0.07150   0.02920   0.30520   0.01267  Uiso   1.00
H36    H     0.23330   0.97470   0.22270   0.01267  Uiso   1.00
H37    H     0.78640   0.24710   0.38690   0.01267  Uiso   1.00
H38    H     0.65430   0.19890   0.44590   0.01267  Uiso   1.00
H39    H     0.80270   0.00990   0.31750   0.01267  Uiso   1.00
H40    H     0.93350   0.05900   0.26020   0.01267  Uiso   1.00
H41    H     0.38150   0.81090   0.98230   0.01267  Uiso   1.00
H42    H     0.33280   0.75260   0.92220   0.01267  Uiso   1.00
H43    H     0.37030   0.94280   0.72880   0.01267  Uiso   1.00
H44    H     0.42160   0.99900   0.78960   0.01267  Uiso   1.00
H45    H     0.16200   0.83430   0.89030   0.01267  Uiso   1.00
H46    H     0.06930   0.74600   0.94520   0.01267  Uiso   1.00
H47    H     0.25540   0.58720   0.79360   0.01267  Uiso   1.00
H48    H     0.35800   0.66840   0.74220   0.01267  Uiso   1.00
H49    H     0.47370   0.28610   0.42290   0.01267  Uiso   1.00
H50    H     0.45370   0.23330   0.33890   0.01267  Uiso   1.00
H51    H     0.40590   0.47080   0.19480   0.01267  Uiso   1.00
H52    H     0.43070   0.52530   0.27730   0.01267  Uiso   1.00
H53    H     0.42040   0.25290   0.11310   0.01267  Uiso   1.00
H54    H     0.29910   0.30110   0.05410   0.01267  Uiso   1.00
H55    H     0.13010   0.49010   0.18250   0.01267  Uiso   1.00
H56    H     0.25270   0.44100   0.23980   0.01267  Uiso   1.00
H57    H     0.17470   0.68910   0.51770   0.01267  Uiso   1.00
H58    H     0.00760   0.74740   0.57780   0.01267  Uiso   1.00
H59    H     0.04190   0.55720   0.77120   0.01267  Uiso   1.00
H60    H     0.21020   0.50100   0.71040   0.01267  Uiso   1.00
H61    H     0.88660   0.66570   0.60970   0.01267  Uiso   1.00
H62    H     0.76050   0.75400   0.55480   0.01267  Uiso   1.00
H63    H     0.63620   0.91280   0.70640   0.01267  Uiso   1.00
H64    H     0.76860   0.83160   0.75780   0.01267  Uiso   1.00
C1     C     0.67280   0.94480   0.90980   0.01267  Uiso   1.00
C2     C     0.77490   0.91120   0.85880   0.01267  Uiso   1.00
C3     C     0.83860   0.82430   0.87610   0.01267  Uiso   1.00
C4     C     0.93190   0.79290   0.82650   0.01267  Uiso   1.00
C5     C     0.96430   0.84740   0.75900   0.01267  Uiso   1.00
C6     C     0.90500   0.93310   0.74090   0.01267  Uiso   1.00
C7     C     0.80860   0.96590   0.79050   0.01267  Uiso   1.00
C8     C     0.12730   0.84550   0.67850   0.01267  Uiso   1.00
C9     C     0.21000   0.80230   0.62610   0.01267  Uiso   1.00
C10    C     0.28900   0.83010   0.59170   0.01267  Uiso   1.00
C11    C     0.28450   0.90120   0.61260   0.01267  Uiso   1.00
C12    C     0.20100   0.94200   0.66760   0.01267  Uiso   1.00
C13    C     0.12300   0.91340   0.70120   0.01267  Uiso   1.00
C14    C     0.36970   0.93380   0.57260   0.01267  Uiso   1.00
C15    C     0.59280   0.08920   0.10820   0.01267  Uiso   1.00
C16    C     0.61980   0.16290   0.06970   0.01267  Uiso   1.00
C17    C     0.64800   0.19800   0.10500   0.01267  Uiso   1.00
C18    C     0.64810   0.15970   0.18250   0.01267  Uiso   1.00
C19    C     0.62550   0.08510   0.22010   0.01267  Uiso   1.00
C20    C     0.59630   0.05140   0.18340   0.01267  Uiso   1.00
C21    C     0.72980   0.24230   0.18750   0.01267  Uiso   1.00
C22    C     0.81720   0.21750   0.12810   0.01267  Uiso   1.00
C23    C     0.87240   0.26900   0.09680   0.01267  Uiso   1.00
C24    C     0.84540   0.34330   0.12470   0.01267  Uiso   1.00
C25    C     0.76190   0.36420   0.18520   0.01267  Uiso   1.00
C26    C     0.70140   0.31510   0.21690   0.01267  Uiso   1.00
C27    C     0.90490   0.40050   0.08450   0.01267  Uiso   1.00
C28    C     0.55860   0.05430   0.06930   0.01267  Uiso   1.00
C29    C     0.52740   0.55520   0.59020   0.01267  Uiso   1.00
C30    C     0.54490   0.58880   0.64120   0.01267  Uiso   1.00
C31    C     0.53900   0.67570   0.62390   0.01267  Uiso   1.00
C32    C     0.55130   0.70710   0.67350   0.01267  Uiso   1.00
C33    C     0.57070   0.65260   0.74100   0.01267  Uiso   1.00
C34    C     0.57900   0.56690   0.75910   0.01267  Uiso   1.00
C35    C     0.56500   0.53410   0.70950   0.01267  Uiso   1.00
C36    C     0.65130   0.65450   0.82150   0.01267  Uiso   1.00
C37    C     0.63840   0.69770   0.87390   0.01267  Uiso   1.00
C38    C     0.71080   0.66990   0.90830   0.01267  Uiso   1.00
C39    C     0.79830   0.59880   0.88740   0.01267  Uiso   1.00
C40    C     0.81060   0.55800   0.83240   0.01267  Uiso   1.00
C41    C     0.73760   0.58660   0.79880   0.01267  Uiso   1.00
C42    C     0.87610   0.56620   0.92740   0.01267  Uiso   1.00
C43    C     0.79020   0.41080   0.39180   0.01267  Uiso   1.00
C44    C     0.85240   0.33710   0.43030   0.01267  Uiso   1.00
C45    C     0.95100   0.30200   0.39500   0.01267  Uiso   1.00
C46    C     0.99030   0.34030   0.31750   0.01267  Uiso   1.00
C47    C     0.93070   0.41490   0.27990   0.01267  Uiso   1.00
C48    C     0.83110   0.44860   0.31660   0.01267  Uiso   1.00
C49    C     0.15960   0.25770   0.31250   0.01267  Uiso   1.00
C50    C     0.16280   0.28250   0.37190   0.01267  Uiso   1.00
C51    C     0.23820   0.23100   0.40320   0.01267  Uiso   1.00
C52    C     0.31340   0.15670   0.37530   0.01267  Uiso   1.00
C53    C     0.31130   0.13580   0.31480   0.01267  Uiso   1.00
C54    C     0.23340   0.18490   0.28310   0.01267  Uiso   1.00
C55    C     0.38990   0.09950   0.41550   0.01267  Uiso   1.00
C56    C     0.68220   0.44570   0.43070   0.01267  Uiso   1.00
C57    C     0.32720   0.05520   0.09020   0.01267  Uiso   1.00
C58    C     0.22510   0.08880   0.14120   0.01267  Uiso   1.00
C59    C     0.16140   0.17570   0.12390   0.01267  Uiso   1.00
C60    C     0.06810   0.20710   0.17350   0.01267  Uiso   1.00
C61    C     0.03570   0.15260   0.24100   0.01267  Uiso   1.00
C62    C     0.09500   0.06690   0.25910   0.01267  Uiso   1.00
C63    C     0.19140   0.03410   0.20950   0.01267  Uiso   1.00
C64    C     0.87270   0.15450   0.32150   0.01267  Uiso   1.00
C65    C     0.79000   0.19770   0.37390   0.01267  Uiso   1.00
C66    C     0.71100   0.16990   0.40830   0.01267  Uiso   1.00
C67    C     0.71550   0.09880   0.38740   0.01267  Uiso   1.00
C68    C     0.79900   0.05800   0.33240   0.01267  Uiso   1.00
C69    C     0.87700   0.08660   0.29880   0.01267  Uiso   1.00
C70    C     0.63030   0.06620   0.42740   0.01267  Uiso   1.00
C71    C     0.40720   0.91080   0.89180   0.01267  Uiso   1.00
C72    C     0.38020   0.83710   0.93030   0.01267  Uiso   1.00
C73    C     0.35200   0.80200   0.89500   0.01267  Uiso   1.00
C74    C     0.35190   0.84030   0.81750   0.01267  Uiso   1.00
C75    C     0.37450   0.91490   0.77990   0.01267  Uiso   1.00
C76    C     0.40370   0.94860   0.81660   0.01267  Uiso   1.00
C77    C     0.27020   0.75770   0.81250   0.01267  Uiso   1.00
C78    C     0.18280   0.78250   0.87190   0.01267  Uiso   1.00
C79    C     0.12760   0.73100   0.90320   0.01267  Uiso   1.00
C80    C     0.15460   0.65670   0.87530   0.01267  Uiso   1.00
C81    C     0.23810   0.63580   0.81480   0.01267  Uiso   1.00
C82    C     0.29860   0.68490   0.78310   0.01267  Uiso   1.00
C83    C     0.09510   0.59950   0.91550   0.01267  Uiso   1.00
C84    C     0.44140   0.94570   0.93070   0.01267  Uiso   1.00
C85    C     0.47260   0.44480   0.40980   0.01267  Uiso   1.00
C86    C     0.45510   0.41120   0.35880   0.01267  Uiso   1.00
C87    C     0.46100   0.32430   0.37610   0.01267  Uiso   1.00
C88    C     0.44870   0.29290   0.32650   0.01267  Uiso   1.00
C89    C     0.42930   0.34740   0.25900   0.01267  Uiso   1.00
C90    C     0.42100   0.43310   0.24090   0.01267  Uiso   1.00
C91    C     0.43500   0.46590   0.29050   0.01267  Uiso   1.00
C92    C     0.34870   0.34550   0.17850   0.01267  Uiso   1.00
C93    C     0.36160   0.30230   0.12610   0.01267  Uiso   1.00
C94    C     0.28920   0.33010   0.09170   0.01267  Uiso   1.00
C95    C     0.20170   0.40120   0.11260   0.01267  Uiso   1.00
C96    C     0.18940   0.44200   0.16760   0.01267  Uiso   1.00
C97    C     0.26240   0.41340   0.20120   0.01267  Uiso   1.00
C98    C     0.12390   0.43380   0.07260   0.01267  Uiso   1.00
C99    C     0.20980   0.58920   0.60820   0.01267  Uiso   1.00
C100   C     0.14760   0.66290   0.56970   0.01267  Uiso   1.00
C101   C     0.04900   0.69800   0.60500   0.01267  Uiso   1.00
C102   C     0.00970   0.65970   0.68250   0.01267  Uiso   1.00
C103   C     0.06930   0.58510   0.72010   0.01267  Uiso   1.00
C104   C     0.16890   0.55140   0.68340   0.01267  Uiso   1.00
C105   C     0.84040   0.74230   0.68750   0.01267  Uiso   1.00
C106   C     0.83720   0.71750   0.62810   0.01267  Uiso   1.00
C107   C     0.76180   0.76900   0.59680   0.01267  Uiso   1.00
C108   C     0.68660   0.84330   0.62470   0.01267  Uiso   1.00
C109   C     0.68870   0.86420   0.68520   0.01267  Uiso   1.00
C110   C     0.76660   0.81510   0.71690   0.01267  Uiso   1.00
C111   C     0.61010   0.90050   0.58450   0.01267  Uiso   1.00
C112   C     0.31780   0.55430   0.56930   0.01267  Uiso   1.00
O1     O     0.64720   0.89420   0.97260   0.01267  Uiso   1.00
O2     O     0.61911   0.02248   0.88770   0.01267  Uiso   1.00
O3     O     0.05610   0.80820   0.71060   0.01267  Uiso   1.00
O4     O     0.36410   0.99320   0.59840   0.01267  Uiso   1.00
O5     O     0.43770   0.89830   0.51730   0.01267  Uiso   1.00
O6     O     0.55870   0.97640   0.09800   0.01267  Uiso   1.00
O7     O     0.66940   0.19310   0.22450   0.01267  Uiso   1.00
O8     O     0.97970   0.37580   0.02800   0.01267  Uiso   1.00
O9     O     0.87610   0.46940   0.10860   0.01267  Uiso   1.00
O10    O     0.53260   0.10510   0.01070   0.01267  Uiso   1.00
O11    O     0.51400   0.60580   0.52740   0.01267  Uiso   1.00
O12    O     0.52929   0.47752   0.61230   0.01267  Uiso   1.00
O13    O     0.57490   0.69180   0.78940   0.01267  Uiso   1.00
O14    O     0.95570   0.50680   0.90160   0.01267  Uiso   1.00
O15    O     0.85330   0.60170   0.98270   0.01267  Uiso   1.00
O16    O     0.63310   0.52360   0.40200   0.01267  Uiso   1.00
O17    O     0.08700   0.30690   0.27550   0.01267  Uiso   1.00
O18    O     0.38350   0.12420   0.47200   0.01267  Uiso   1.00
O19    O     0.45410   0.03060   0.39140   0.01267  Uiso   1.00
O20    O     0.64840   0.39490   0.48930   0.01267  Uiso   1.00
O21    O     0.35280   0.10580   0.02740   0.01267  Uiso   1.00
O22    O     0.38089   0.97752   0.11230   0.01267  Uiso   1.00
O23    O     0.94390   0.19180   0.28940   0.01267  Uiso   1.00
O24    O     0.63590   0.00680   0.40160   0.01267  Uiso   1.00
O25    O     0.56230   0.10170   0.48270   0.01267  Uiso   1.00
O26    O     0.44130   0.02360   0.90200   0.01267  Uiso   1.00
O27    O     0.33060   0.80690   0.77550   0.01267  Uiso   1.00
O28    O     0.02030   0.62420   0.97200   0.01267  Uiso   1.00
O29    O     0.12390   0.53060   0.89140   0.01267  Uiso   1.00
O30    O     0.46740   0.89490   0.98930   0.01267  Uiso   1.00
O31    O     0.48600   0.39420   0.47260   0.01267  Uiso   1.00
O32    O     0.47071   0.52248   0.38770   0.01267  Uiso   1.00
O33    O     0.42510   0.30820   0.21060   0.01267  Uiso   1.00
O34    O     0.04430   0.49320   0.09840   0.01267  Uiso   1.00
O35    O     0.14670   0.39830   0.01730   0.01267  Uiso   1.00
O36    O     0.36690   0.47640   0.59800   0.01267  Uiso   1.00
O37    O     0.91300   0.69310   0.72450   0.01267  Uiso   1.00
O38    O     0.61650   0.87580   0.52800   0.01267  Uiso   1.00
O39    O     0.54590   0.96940   0.60860   0.01267  Uiso   1.00
O40    O     0.35160   0.60510   0.51070   0.01267  Uiso   1.00
