data_image0
_cell_length_a       9.4327
_cell_length_b       10.1954
_cell_length_c       11.2452
_cell_angle_alpha    63.983
_cell_angle_beta     73.212
_cell_angle_gamma    83.22

_symmetry_space_group_name_H-M    "P 1"
_symmetry_int_tables_number       1

loop_
  _symmetry_equiv_pos_as_xyz
  'x, y, z'

loop_
  _atom_site_label
  _atom_site_occupancy
  _atom_site_fract_x
  _atom_site_fract_y
  _atom_site_fract_z
  _atom_site_thermal_displace_type
  _atom_site_B_iso_or_equiv
  _atom_site_type_symbol
  Cd1      1.0000 0.01420  0.34120  0.18680  Biso   1.000  Cd
  O1       1.0000 0.01630  0.99520  0.29130  Biso   1.000  O
  O2       1.0000 0.12910  0.18840  0.10330  Biso   1.000  O
  O3       1.0000 0.99710  0.55770  0.20430  Biso   1.000  O
  O4       1.0000 0.78470  0.26080  0.30530  Biso   1.000  O
  O5       1.0000 0.78070  0.10850  0.52240  Biso   1.000  O
  O6       1.0000 0.48840  0.24270  0.36440  Biso   1.000  O
  O7       1.0000 0.07610  0.83190  0.14630  Biso   1.000  O
  O8       1.0000 0.10690  0.23170  0.38390  Biso   1.000  O
  C1       1.0000 0.08950  0.05670  0.17020  Biso   1.000  C
  C2       1.0000 0.07780  0.63020  0.08510  Biso   1.000  C
  O9       1.0000 0.12230  0.58180  0.99600  Biso   1.000  O
  C3       1.0000 0.12450  0.77810  0.04840  Biso   1.000  C
  C4       1.0000 0.24250  0.27540  0.33170  Biso   1.000  C
  C5       1.0000 0.34030  0.21920  0.42470  Biso   1.000  C
  O10      1.0000 0.29070  0.36240  0.21100  Biso   1.000  O
  C6       1.0000 0.72170  0.18270  0.42900  Biso   1.000  C
  C7       1.0000 0.55690  0.18070  0.46650  Biso   1.000  C
  C8       1.0000 0.31410  0.14400  0.56300  Biso   1.000  C
  H1       1.0000 0.22250  0.11530  0.62670  Biso   1.000  H
  C9       1.0000 0.45490  0.11810  0.59060  Biso   1.000  C
  H2       1.0000 0.47400  0.06850  0.67610  Biso   1.000  H
  C10      1.0000 0.13360  0.96960  0.08820  Biso   1.000  C
  C11      1.0000 0.21090  0.87860  0.93210  Biso   1.000  C
  H3       1.0000 0.25920  0.86780  0.85220  Biso   1.000  H
  C12      1.0000 0.21320  0.00380  0.95600  Biso   1.000  C
  H4       1.0000 0.26010  0.09240  0.89330  Biso   1.000  H
  Cd2      1.0000 0.98580  0.65880  0.81320  Biso   1.000  Cd
  O11      1.0000 0.98370  0.00480  0.70870  Biso   1.000  O
  O12      1.0000 0.87090  0.81160  0.89670  Biso   1.000  O
  O13      1.0000 0.00290  0.44230  0.79570  Biso   1.000  O
  O14      1.0000 0.21530  0.73920  0.69470  Biso   1.000  O
  O15      1.0000 0.21930  0.89150  0.47760  Biso   1.000  O
  O16      1.0000 0.51160  0.75730  0.63560  Biso   1.000  O
  O17      1.0000 0.92390  0.16810  0.85370  Biso   1.000  O
  O18      1.0000 0.89310  0.76830  0.61610  Biso   1.000  O
  C13      1.0000 0.91050  0.94330  0.82980  Biso   1.000  C
  C14      1.0000 0.92220  0.36980  0.91490  Biso   1.000  C
  O19      1.0000 0.87770  0.41820  0.00400  Biso   1.000  O
  C15      1.0000 0.87550  0.22190  0.95160  Biso   1.000  C
  C16      1.0000 0.75750  0.72460  0.66830  Biso   1.000  C
  C17      1.0000 0.65970  0.78080  0.57530  Biso   1.000  C
  O20      1.0000 0.70930  0.63760  0.78900  Biso   1.000  O
  C18      1.0000 0.27830  0.81730  0.57100  Biso   1.000  C
  C19      1.0000 0.44310  0.81930  0.53350  Biso   1.000  C
  C20      1.0000 0.68590  0.85600  0.43700  Biso   1.000  C
  H5       1.0000 0.77750  0.88470  0.37330  Biso   1.000  H
  C21      1.0000 0.54510  0.88190  0.40940  Biso   1.000  C
  H6       1.0000 0.52600  0.93150  0.32390  Biso   1.000  H
  C22      1.0000 0.86640  0.03040  0.91180  Biso   1.000  C
  C23      1.0000 0.78910  0.12140  0.06790  Biso   1.000  C
  H7       1.0000 0.74080  0.13220  0.14780  Biso   1.000  H
  C24      1.0000 0.78680  0.99620  0.04400  Biso   1.000  C
  H8       1.0000 0.73990  0.90760  0.10670  Biso   1.000  H
  Cd3      1.0000 0.00000  0.00000  0.50000  Biso   1.000  Cd
