data_XOPMIA_clean
_audit_creation_date              2015-10-16
_audit_creation_method            'Materials Studio'
_symmetry_space_group_name_H-M    'P1'
_symmetry_Int_Tables_number       1
_symmetry_cell_setting            triclinic
loop_
_symmetry_equiv_pos_as_xyz
  x,y,z
_cell_length_a                    9.0720
_cell_length_b                    13.1400
_cell_length_c                    30.7000
_cell_angle_alpha                 92.7200
_cell_angle_beta                  90.2000
_cell_angle_gamma                 90.0100
loop_
_atom_site_label
_atom_site_type_symbol
_atom_site_fract_x
_atom_site_fract_y
_atom_site_fract_z
_atom_site_U_iso_or_equiv
_atom_site_adp_type
_atom_site_occupancy
Cd1    Cd    0.13557   0.42152   0.03696   0.01267  Uiso   1.00
Cd2    Cd    0.36497   0.42146   0.53711   0.01267  Uiso   1.00
Cd3    Cd    0.63503   0.57854   0.46289   0.01267  Uiso   1.00
Cd4    Cd    0.86443   0.57848   0.96304   0.01267  Uiso   1.00
H1     H     0.69610   0.84270   0.15920   0.01267  Uiso   1.00
H2     H     0.93760   0.78450   0.36330   0.01267  Uiso   1.00
H3     H     0.99240   0.43390   0.87230   0.01267  Uiso   1.00
H4     H     0.75010   0.37950   0.41100   0.01267  Uiso   1.00
H5     H     0.64100   0.07770   0.49710   0.01267  Uiso   1.00
H6     H     0.49230   0.21820   0.48810   0.01267  Uiso   1.00
H7     H     0.56210   0.78590   0.86270   0.01267  Uiso   1.00
H8     H     0.13530   0.97040   0.40930   0.01267  Uiso   1.00
H9     H     0.24990   0.62050   0.58900   0.01267  Uiso   1.00
H10    H     0.70530   0.76940   0.08810   0.01267  Uiso   1.00
H11    H     0.19610   0.15530   0.34130   0.01267  Uiso   1.00
H12    H     0.10730   0.17260   0.51260   0.01267  Uiso   1.00
H13    H     0.15620   0.52480   0.46850   0.01267  Uiso   1.00
H14    H     0.79510   0.76880   0.58800   0.01267  Uiso   1.00
H15    H     0.49420   0.56570   0.62780   0.01267  Uiso   1.00
H16    H     0.20490   0.23120   0.41200   0.01267  Uiso   1.00
H17    H     0.51270   0.33050   0.04160   0.01267  Uiso   1.00
H18    H     0.99440   0.35570   0.80240   0.01267  Uiso   1.00
H19    H     0.01200   0.14750   0.70450   0.01267  Uiso   1.00
H20    H     0.48510   0.14700   0.20490   0.01267  Uiso   1.00
H21    H     0.29470   0.23060   0.91190   0.01267  Uiso   1.00
H22    H     0.26070   0.80000   0.88550   0.01267  Uiso   1.00
H23    H     0.50770   0.78180   0.51190   0.01267  Uiso   1.00
H24    H     0.75990   0.19840   0.61500   0.01267  Uiso   1.00
H25    H     0.30870   0.34550   0.76090   0.01267  Uiso   1.00
H26    H     0.50580   0.43430   0.37220   0.01267  Uiso   1.00
H27    H     0.80390   0.84470   0.65870   0.01267  Uiso   1.00
H28    H     0.65570   0.47480   0.03170   0.01267  Uiso   1.00
H29    H     0.13990   0.92250   0.00350   0.01267  Uiso   1.00
H30    H     0.18990   0.34450   0.26060   0.01267  Uiso   1.00
H31    H     0.73930   0.20000   0.11450   0.01267  Uiso   1.00
H32    H     0.01040   0.21710   0.98870   0.01267  Uiso   1.00
H33    H     0.63570   0.59320   0.30750   0.01267  Uiso   1.00
H34    H     0.30390   0.15730   0.84080   0.01267  Uiso   1.00
H35    H     0.24010   0.80160   0.38500   0.01267  Uiso   1.00
H36    H     0.49320   0.64680   0.69740   0.01267  Uiso   1.00
H37    H     0.86010   0.07750   0.99650   0.01267  Uiso   1.00
H38    H     0.60800   0.82600   0.98730   0.01267  Uiso   1.00
H39    H     0.25320   0.61960   0.08870   0.01267  Uiso   1.00
H40    H     0.06240   0.21550   0.63670   0.01267  Uiso   1.00
H41    H     0.74680   0.38040   0.91130   0.01267  Uiso   1.00
H42    H     0.98800   0.85250   0.29550   0.01267  Uiso   1.00
H43    H     0.60450   0.23410   0.91730   0.01267  Uiso   1.00
H44    H     0.99350   0.33160   0.54110   0.01267  Uiso   1.00
H45    H     0.50680   0.35320   0.30260   0.01267  Uiso   1.00
H46    H     0.88670   0.34130   0.10160   0.01267  Uiso   1.00
H47    H     0.00760   0.56610   0.12770   0.01267  Uiso   1.00
H48    H     0.00560   0.64430   0.19760   0.01267  Uiso   1.00
H49    H     0.86360   0.59340   0.80780   0.01267  Uiso   1.00
H50    H     0.36420   0.96880   0.90970   0.01267  Uiso   1.00
H51    H     0.39550   0.76590   0.08270   0.01267  Uiso   1.00
H52    H     0.81010   0.65550   0.73940   0.01267  Uiso   1.00
H53    H     0.84380   0.47520   0.53150   0.01267  Uiso   1.00
H54    H     0.98960   0.78290   0.01130   0.01267  Uiso   1.00
H55    H     0.34430   0.52520   0.96830   0.01267  Uiso   1.00
H56    H     0.63580   0.03120   0.09030   0.01267  Uiso   1.00
H57    H     0.13640   0.40660   0.19220   0.01267  Uiso   1.00
H58    H     0.61520   0.34320   0.60150   0.01267  Uiso   1.00
H59    H     0.51490   0.85300   0.79510   0.01267  Uiso   1.00
H60    H     0.89270   0.82740   0.48740   0.01267  Uiso   1.00
H61    H     0.38480   0.65680   0.39850   0.01267  Uiso   1.00
H62    H     0.69130   0.65450   0.23910   0.01267  Uiso   1.00
H63    H     0.43790   0.21410   0.13730   0.01267  Uiso   1.00
H64    H     0.10680   0.76620   0.58300   0.01267  Uiso   1.00
H65    H     0.35900   0.92230   0.50290   0.01267  Uiso   1.00
H66    H     0.00650   0.66840   0.45890   0.01267  Uiso   1.00
H67    H     0.11330   0.65870   0.89840   0.01267  Uiso   1.00
H68    H     0.48730   0.66950   0.95840   0.01267  Uiso   1.00
H69    H     0.86470   0.02960   0.59070   0.01267  Uiso   1.00
H70    H     0.36430   0.40680   0.69250   0.01267  Uiso   1.00
H71    H     0.39200   0.17400   0.01270   0.01267  Uiso   1.00
H72    H     0.89320   0.23380   0.41700   0.01267  Uiso   1.00
C1     C     0.73860   0.78960   0.65210   0.01267  Uiso   1.00
C2     C     0.20760   0.35410   0.19470   0.01267  Uiso   1.00
C3     C     0.54850   0.21430   0.51410   0.01267  Uiso   1.00
C4     C     0.29290   0.35450   0.69500   0.01267  Uiso   1.00
C5     C     0.94520   0.66980   0.17520   0.01267  Uiso   1.00
C6     C     0.73840   0.68250   0.26460   0.01267  Uiso   1.00
C7     C     0.11800   0.71360   0.91960   0.01267  Uiso   1.00
C8     C     0.78110   0.12340   0.05660   0.01267  Uiso   1.00
C9     C     0.29190   0.79790   0.41180   0.01267  Uiso   1.00
C10    C     0.63730   0.61760   0.55490   0.01267  Uiso   1.00
C11    C     0.85530   0.42580   0.50820   0.01267  Uiso   1.00
C12    C     0.44540   0.37620   0.36630   0.01267  Uiso   1.00
C13    C     0.36280   0.86950   0.48070   0.01267  Uiso   1.00
C14    C     0.44650   0.17820   0.98650   0.01267  Uiso   1.00
C15    C     0.31680   0.96250   0.93700   0.01267  Uiso   1.00
C16    C     0.25710   0.35350   0.61380   0.01267  Uiso   1.00
C17    C     0.14470   0.57420   0.49180   0.01267  Uiso   1.00
C18    C     0.72030   0.12360   0.55660   0.01267  Uiso   1.00
C19    C     0.14020   0.33930   0.89920   0.01267  Uiso   1.00
C20    C     0.36270   0.38240   0.44510   0.01267  Uiso   1.00
C21    C     0.26140   0.21040   0.34790   0.01267  Uiso   1.00
C22    C     0.35510   0.57490   0.99160   0.01267  Uiso   1.00
C23    C     0.21890   0.87660   0.94340   0.01267  Uiso   1.00
C24    C     0.55350   0.82180   0.01350   0.01267  Uiso   1.00
C25    C     0.61470   0.76060   0.83780   0.01267  Uiso   1.00
C26    C     0.21960   0.31500   0.65760   0.01267  Uiso   1.00
C27    C     0.68320   0.03750   0.06300   0.01267  Uiso   1.00
C28    C     0.35740   0.33890   0.39930   0.01267  Uiso   1.00
C29    C     0.86730   0.61730   0.05480   0.01267  Uiso   1.00
C30    C     0.79240   0.64590   0.80530   0.01267  Uiso   1.00
C31    C     0.75590   0.64600   0.88630   0.01267  Uiso   1.00
C32    C     0.66240   0.76090   0.76150   0.01267  Uiso   1.00
C33    C     0.86430   0.13010   0.01880   0.01267  Uiso   1.00
C34    C     0.94710   0.82240   0.51370   0.01267  Uiso   1.00
C35    C     0.24410   0.35400   0.11370   0.01267  Uiso   1.00
C36    C     0.44100   0.66050   0.98570   0.01267  Uiso   1.00
C37    C     0.23770   0.21160   0.84770   0.01267  Uiso   1.00
C38    C     0.64490   0.42510   0.00840   0.01267  Uiso   1.00
C39    C     0.05290   0.17760   0.48630   0.01267  Uiso   1.00
C40    C     0.83850   0.76030   0.26190   0.01267  Uiso   1.00
C41    C     0.91670   0.80020   0.29810   0.01267  Uiso   1.00
C42    C     0.85500   0.75330   0.18380   0.01267  Uiso   1.00
C43    C     0.30250   0.63030   0.06200   0.01267  Uiso   1.00
C44    C     0.33760   0.23910   0.23850   0.01267  Uiso   1.00
C45    C     0.76230   0.78840   0.15230   0.01267  Uiso   1.00
C46    C     0.73440   0.74350   0.61020   0.01267  Uiso   1.00
C47    C     0.11450   0.71780   0.55910   0.01267  Uiso   1.00
C48    C     0.23390   0.25630   0.88970   0.01267  Uiso   1.00
C49    C     0.95260   0.21400   0.01430   0.01267  Uiso   1.00
C50    C     0.80060   0.36910   0.43760   0.01267  Uiso   1.00
C51    C     0.74290   0.64650   0.38620   0.01267  Uiso   1.00
C52    C     0.78040   0.68500   0.34240   0.01267  Uiso   1.00
C53    C     0.55460   0.62380   0.63370   0.01267  Uiso   1.00
C54    C     0.14500   0.24670   0.81620   0.01267  Uiso   1.00
C55    C     0.95920   0.26720   0.47990   0.01267  Uiso   1.00
C56    C     0.45150   0.78570   0.48590   0.01267  Uiso   1.00
C57    C     0.88550   0.28220   0.44090   0.01267  Uiso   1.00
C58    C     0.79240   0.20260   0.08800   0.01267  Uiso   1.00
C59    C     0.04740   0.78600   0.98570   0.01267  Uiso   1.00
C60    C     0.05480   0.33020   0.82480   0.01267  Uiso   1.00
C61    C     0.28060   0.31570   0.15760   0.01267  Uiso   1.00
C62    C     0.71940   0.68430   0.84240   0.01267  Uiso   1.00
C63    C     0.38160   0.71250   0.41940   0.01267  Uiso   1.00
C64    C     0.19940   0.63090   0.56240   0.01267  Uiso   1.00
C65    C     0.23790   0.31670   0.23530   0.01267  Uiso   1.00
C66    C     0.94650   0.62380   0.13370   0.01267  Uiso   1.00
C67    C     0.18220   0.96320   0.43670   0.01267  Uiso   1.00
C68    C     0.94430   0.33990   0.51420   0.01267  Uiso   1.00
C69    C     0.64260   0.66110   0.60070   0.01267  Uiso   1.00
C70    C     0.11480   0.24020   0.66190   0.01267  Uiso   1.00
C71    C     0.55490   0.67090   0.67510   0.01267  Uiso   1.00
C72    C     0.63720   0.13050   0.51930   0.01267  Uiso   1.00
C73    C     0.45890   0.73330   0.01990   0.01267  Uiso   1.00
C74    C     0.70810   0.20210   0.58820   0.01267  Uiso   1.00
C75    C     0.16150   0.23970   0.73810   0.01267  Uiso   1.00
C76    C     0.38530   0.23940   0.16220   0.01267  Uiso   1.00
C77    C     0.20760   0.79740   0.91200   0.01267  Uiso   1.00
C78    C     0.38710   0.71780   0.05880   0.01267  Uiso   1.00
C79    C     0.08330   0.19980   0.70190   0.01267  Uiso   1.00
C80    C     0.88520   0.75980   0.33810   0.01267  Uiso   1.00
C81    C     0.35230   0.24550   0.31660   0.01267  Uiso   1.00
C82    C     0.26560   0.25650   0.38980   0.01267  Uiso   1.00
C83    C     0.55900   0.33950   0.01430   0.01267  Uiso   1.00
C84    C     0.13570   0.86990   0.98120   0.01267  Uiso   1.00
C85    C     0.64770   0.75450   0.68340   0.01267  Uiso   1.00
C86    C     0.61290   0.28220   0.94120   0.01267  Uiso   1.00
C87    C     0.61840   0.28750   0.58060   0.01267  Uiso   1.00
C88    C     0.13270   0.38270   0.94520   0.01267  Uiso   1.00
C89    C     0.41450   0.19980   0.20220   0.01267  Uiso   1.00
C90    C     0.76610   0.74370   0.11030   0.01267  Uiso   1.00
C91    C     0.69750   0.36970   0.93800   0.01267  Uiso   1.00
C92    C     0.81780   0.03680   0.56330   0.01267  Uiso   1.00
C93    C     0.44510   0.32910   0.32490   0.01267  Uiso   1.00
C94    C     0.05570   0.66010   0.48580   0.01267  Uiso   1.00
C95    C     0.88200   0.28640   0.08040   0.01267  Uiso   1.00
C96    C     0.26160   0.31750   0.73540   0.01267  Uiso   1.00
C97    C     0.85980   0.66070   0.10080   0.01267  Uiso   1.00
C98    C     0.70710   0.64550   0.30500   0.01267  Uiso   1.00
C99    C     0.27970   0.87640   0.44340   0.01267  Uiso   1.00
C100   C     0.58550   0.80020   0.79780   0.01267  Uiso   1.00
C101   C     0.76210   0.68330   0.76470   0.01267  Uiso   1.00
C102   C     0.54110   0.26670   0.98010   0.01267  Uiso   1.00
C103   C     0.05350   0.37620   0.86630   0.01267  Uiso   1.00
C104   C     0.04080   0.73280   0.52010   0.01267  Uiso   1.00
N1     N     0.16040   0.02970   0.46820   0.01267  Uiso   1.00
N2     N     0.28780   0.56080   0.02910   0.01267  Uiso   1.00
N3     N     0.53880   0.29020   0.54440   0.01267  Uiso   1.00
N4     N     0.96130   0.29120   0.04400   0.01267  Uiso   1.00
N5     N     0.93870   0.89420   0.54380   0.01267  Uiso   1.00
N6     N     0.43670   0.10600   0.95660   0.01267  Uiso   1.00
N7     N     0.33960   0.03000   0.96830   0.01267  Uiso   1.00
N8     N     0.71220   0.43920   0.97090   0.01267  Uiso   1.00
N9     N     0.78710   0.43930   0.47070   0.01267  Uiso   1.00
N10    N     0.03870   0.70880   0.95600   0.01267  Uiso   1.00
N11    N     0.56330   0.89400   0.04340   0.01267  Uiso   1.00
N12    N     0.21290   0.56070   0.52930   0.01267  Uiso   1.00
N13    N     0.06130   0.10580   0.45620   0.01267  Uiso   1.00
N14    N     0.66040   0.97000   0.03170   0.01267  Uiso   1.00
N15    N     0.46120   0.70980   0.45560   0.01267  Uiso   1.00
N16    N     0.83960   0.97030   0.53180   0.01267  Uiso   1.00
O1     O     0.63730   0.80940   0.72310   0.01267  Uiso   1.00
O2     O     0.70280   0.69020   0.91999   0.01267  Uiso   1.00
O3     O     0.05290   0.45930   0.95410   0.01267  Uiso   1.00
O4     O     0.79600   0.69040   0.42009   0.01267  Uiso   1.00
O5     O     0.13500   0.19160   0.77670   0.01267  Uiso   1.00
O6     O     0.65530   0.56990   0.38812   0.01267  Uiso   1.00
O7     O     0.34470   0.43010   0.61188   0.01267  Uiso   1.00
O8     O     0.21260   0.34190   0.97350   0.01267  Uiso   1.00
O9     O     0.28870   0.34160   0.47354   0.01267  Uiso   1.00
O10    O     0.44490   0.45910   0.45440   0.01267  Uiso   1.00
O11    O     0.94710   0.54070   0.04590   0.01267  Uiso   1.00
O12    O     0.29720   0.30980   0.08001   0.01267  Uiso   1.00
O13    O     0.86500   0.80840   0.22330   0.01267  Uiso   1.00
O14    O     0.20400   0.30960   0.57991   0.01267  Uiso   1.00
O15    O     0.71130   0.65840   0.52646   0.01267  Uiso   1.00
O16    O     0.36270   0.19060   0.27690   0.01267  Uiso   1.00
O17    O     0.84360   0.56960   0.88832   0.01267  Uiso   1.00
O18    O     0.78740   0.65810   0.02650   0.01267  Uiso   1.00
O19    O     0.15640   0.43040   0.11168   0.01267  Uiso   1.00
O20    O     0.55510   0.54090   0.54560   0.01267  Uiso   1.00
