data_XOQXIL_clean
_audit_creation_date              2014-07-02
_audit_creation_method            'Materials Studio'
_symmetry_space_group_name_H-M    'P1'
_symmetry_Int_Tables_number       1
_symmetry_cell_setting            triclinic
loop_
_symmetry_equiv_pos_as_xyz
  x,y,z
_cell_length_a                    9.6788
_cell_length_b                    17.4058
_cell_length_c                    31.4114
_cell_angle_alpha                 77.0011
_cell_angle_beta                  81.1374
_cell_angle_gamma                 73.8571
loop_
_atom_site_label
_atom_site_type_symbol
_atom_site_fract_x
_atom_site_fract_y
_atom_site_fract_z
_atom_site_U_iso_or_equiv
_atom_site_adp_type
_atom_site_occupancy
Zn1    Zn    0.40538   0.44741   0.48821   0.01267  Uiso   1.00
Zn2    Zn    0.67104   0.34028   0.53766   0.01267  Uiso   1.00
Zn3    Zn    0.34100   0.05259   0.01179   0.01267  Uiso   1.00
Zn4    Zn    0.54898   0.15972   0.96234   0.01267  Uiso   1.00
Zn5    Zn    0.59462   0.55259   0.51179   0.01267  Uiso   1.00
Zn6    Zn    0.32896   0.65972   0.46234   0.01267  Uiso   1.00
Zn7    Zn    0.65900   0.94741   0.98821   0.01267  Uiso   1.00
Zn8    Zn    0.45102   0.84028   0.03766   0.01267  Uiso   1.00
Si1    Si    0.54034   0.99085   0.39215   0.01267  Uiso   1.00
Si2    Si    0.92334   0.50915   0.10785   0.01267  Uiso   1.00
Si3    Si    0.45966   0.00915   0.60785   0.01267  Uiso   1.00
Si4    Si    0.07666   0.49085   0.89215   0.01267  Uiso   1.00
Si5    Si    0.99880   0.25000   0.75000   0.01267  Uiso   1.00
Si6    Si    0.00120   0.75000   0.25000   0.01267  Uiso   1.00
H1     H     0.42200   0.16650   0.37790   0.01267  Uiso   1.00
H2     H     0.42500   0.27370   0.41030   0.01267  Uiso   1.00
H3     H     0.72690   0.11960   0.48740   0.01267  Uiso   1.00
H4     H     0.71170   0.01210   0.45710   0.01267  Uiso   1.00
H5     H     0.39790   0.86010   0.39870   0.01267  Uiso   1.00
H6     H     0.17020   0.84000   0.42000   0.01267  Uiso   1.00
H7     H     0.98740   0.93800   0.44740   0.01267  Uiso   1.00
H8     H     0.03580   0.06030   0.45470   0.01267  Uiso   1.00
H9     H     0.26490   0.07920   0.43480   0.01267  Uiso   1.00
H10    H     0.66470   0.10540   0.31980   0.01267  Uiso   1.00
H11    H     0.67180   0.14030   0.24550   0.01267  Uiso   1.00
H12    H     0.60250   0.06110   0.20670   0.01267  Uiso   1.00
H13    H     0.53400   0.94370   0.24610   0.01267  Uiso   1.00
H14    H     0.48360   0.92570   0.32150   0.01267  Uiso   1.00
H15    H     0.57730   0.85130   0.46670   0.01267  Uiso   1.00
H16    H     0.75670   0.73250   0.48750   0.01267  Uiso   1.00
H17    H     0.01240   0.79800   0.37920   0.01267  Uiso   1.00
H18    H     0.82800   0.91160   0.35600   0.01267  Uiso   1.00
H19    H     0.96690   0.37430   0.66690   0.01267  Uiso   1.00
H20    H     0.11550   0.40640   0.60460   0.01267  Uiso   1.00
H21    H     0.45390   0.23900   0.65760   0.01267  Uiso   1.00
H22    H     0.30370   0.20470   0.71990   0.01267  Uiso   1.00
H23    H     0.75960   0.24030   0.70870   0.01267  Uiso   1.00
H24    H     0.68700   0.14510   0.68350   0.01267  Uiso   1.00
H25    H     0.82130   0.01350   0.69410   0.01267  Uiso   1.00
H26    H     0.02480   0.97390   0.73290   0.01267  Uiso   1.00
H27    H     0.09780   0.07290   0.75810   0.01267  Uiso   1.00
H28    H     0.96640   0.33350   0.12210   0.01267  Uiso   1.00
H29    H     0.10900   0.22630   0.08970   0.01267  Uiso   1.00
H30    H     0.33390   0.38040   0.01260   0.01267  Uiso   1.00
H31    H     0.18090   0.48790   0.04290   0.01267  Uiso   1.00
H32    H     0.65670   0.63990   0.10130   0.01267  Uiso   1.00
H33    H     0.43020   0.66000   0.08000   0.01267  Uiso   1.00
H34    H     0.37280   0.56200   0.05260   0.01267  Uiso   1.00
H35    H     0.55080   0.43970   0.04530   0.01267  Uiso   1.00
H36    H     0.77890   0.42080   0.06520   0.01267  Uiso   1.00
H37    H     0.08990   0.39460   0.18020   0.01267  Uiso   1.00
H38    H     0.05760   0.35970   0.25450   0.01267  Uiso   1.00
H39    H     0.87030   0.43890   0.29330   0.01267  Uiso   1.00
H40    H     0.72380   0.55630   0.25390   0.01267  Uiso   1.00
H41    H     0.73080   0.57430   0.17850   0.01267  Uiso   1.00
H42    H     0.89530   0.64870   0.03330   0.01267  Uiso   1.00
H43    H     0.97670   0.76750   0.01250   0.01267  Uiso   1.00
H44    H     0.18960   0.70200   0.12080   0.01267  Uiso   1.00
H45    H     0.09560   0.58840   0.14400   0.01267  Uiso   1.00
H46    H     0.00810   0.12570   0.83310   0.01267  Uiso   1.00
H47    H     0.12650   0.09360   0.89540   0.01267  Uiso   1.00
H48    H     0.35050   0.26100   0.84240   0.01267  Uiso   1.00
H49    H     0.22830   0.29530   0.78010   0.01267  Uiso   1.00
H50    H     0.70860   0.25970   0.79130   0.01267  Uiso   1.00
H51    H     0.51560   0.35490   0.81650   0.01267  Uiso   1.00
H52    H     0.52890   0.48650   0.80590   0.01267  Uiso   1.00
H53    H     0.73160   0.52610   0.76710   0.01267  Uiso   1.00
H54    H     0.92880   0.42710   0.74190   0.01267  Uiso   1.00
H55    H     0.57800   0.83350   0.62210   0.01267  Uiso   1.00
H56    H     0.57500   0.72630   0.58970   0.01267  Uiso   1.00
H57    H     0.27310   0.88040   0.51260   0.01267  Uiso   1.00
H58    H     0.28830   0.98790   0.54290   0.01267  Uiso   1.00
H59    H     0.60210   0.13990   0.60130   0.01267  Uiso   1.00
H60    H     0.82980   0.16000   0.58000   0.01267  Uiso   1.00
H61    H     0.01260   0.06200   0.55260   0.01267  Uiso   1.00
H62    H     0.96420   0.93970   0.54530   0.01267  Uiso   1.00
H63    H     0.73510   0.92080   0.56520   0.01267  Uiso   1.00
H64    H     0.33530   0.89460   0.68020   0.01267  Uiso   1.00
H65    H     0.32820   0.85970   0.75450   0.01267  Uiso   1.00
H66    H     0.39750   0.93890   0.79330   0.01267  Uiso   1.00
H67    H     0.46600   0.05630   0.75390   0.01267  Uiso   1.00
H68    H     0.51640   0.07430   0.67850   0.01267  Uiso   1.00
H69    H     0.42270   0.14870   0.53330   0.01267  Uiso   1.00
H70    H     0.24330   0.26750   0.51250   0.01267  Uiso   1.00
H71    H     0.98760   0.20200   0.62080   0.01267  Uiso   1.00
H72    H     0.17200   0.08840   0.64400   0.01267  Uiso   1.00
H73    H     0.03310   0.62570   0.33310   0.01267  Uiso   1.00
H74    H     0.88450   0.59360   0.39540   0.01267  Uiso   1.00
H75    H     0.54610   0.76100   0.34240   0.01267  Uiso   1.00
H76    H     0.69630   0.79530   0.28010   0.01267  Uiso   1.00
H77    H     0.24040   0.75970   0.29130   0.01267  Uiso   1.00
H78    H     0.31300   0.85490   0.31650   0.01267  Uiso   1.00
H79    H     0.17870   0.98650   0.30590   0.01267  Uiso   1.00
H80    H     0.97520   0.02610   0.26710   0.01267  Uiso   1.00
H81    H     0.90220   0.92710   0.24190   0.01267  Uiso   1.00
H82    H     0.03360   0.66650   0.87790   0.01267  Uiso   1.00
H83    H     0.89100   0.77370   0.91030   0.01267  Uiso   1.00
H84    H     0.66610   0.61960   0.98740   0.01267  Uiso   1.00
H85    H     0.81910   0.51210   0.95710   0.01267  Uiso   1.00
H86    H     0.34330   0.36010   0.89870   0.01267  Uiso   1.00
H87    H     0.56980   0.34000   0.92000   0.01267  Uiso   1.00
H88    H     0.62720   0.43800   0.94740   0.01267  Uiso   1.00
H89    H     0.44920   0.56030   0.95470   0.01267  Uiso   1.00
H90    H     0.22110   0.57920   0.93480   0.01267  Uiso   1.00
H91    H     0.91010   0.60540   0.81980   0.01267  Uiso   1.00
H92    H     0.94240   0.64030   0.74550   0.01267  Uiso   1.00
H93    H     0.12970   0.56110   0.70670   0.01267  Uiso   1.00
H94    H     0.27620   0.44370   0.74610   0.01267  Uiso   1.00
H95    H     0.26920   0.42570   0.82150   0.01267  Uiso   1.00
H96    H     0.10470   0.35130   0.96670   0.01267  Uiso   1.00
H97    H     0.02330   0.23250   0.98750   0.01267  Uiso   1.00
H98    H     0.81040   0.29800   0.87920   0.01267  Uiso   1.00
H99    H     0.90440   0.41160   0.85600   0.01267  Uiso   1.00
H100   H     0.99190   0.87430   0.16690   0.01267  Uiso   1.00
H101   H     0.87350   0.90640   0.10460   0.01267  Uiso   1.00
H102   H     0.64950   0.73900   0.15760   0.01267  Uiso   1.00
H103   H     0.77170   0.70470   0.21990   0.01267  Uiso   1.00
H104   H     0.29140   0.74030   0.20870   0.01267  Uiso   1.00
H105   H     0.48440   0.64510   0.18350   0.01267  Uiso   1.00
H106   H     0.47110   0.51350   0.19410   0.01267  Uiso   1.00
H107   H     0.26840   0.47390   0.23290   0.01267  Uiso   1.00
H108   H     0.07120   0.57290   0.25810   0.01267  Uiso   1.00
C1     C     0.56417   0.07666   0.41460   0.01267  Uiso   1.00
C2     C     0.48180   0.15630   0.40090   0.01267  Uiso   1.00
C3     C     0.48456   0.22078   0.41970   0.01267  Uiso   1.00
C4     C     0.57571   0.20698   0.45260   0.01267  Uiso   1.00
C5     C     0.66223   0.12914   0.46580   0.01267  Uiso   1.00
C6     C     0.65401   0.06518   0.44720   0.01267  Uiso   1.00
C7     C     0.57282   0.27540   0.47476   0.01267  Uiso   1.00
C8     C     0.35685   0.97380   0.41330   0.01267  Uiso   1.00
C9     C     0.32426   0.90148   0.41000   0.01267  Uiso   1.00
C10    C     0.18890   0.88930   0.42270   0.01267  Uiso   1.00
C11    C     0.08130   0.94660   0.43900   0.01267  Uiso   1.00
C12    C     0.11010   0.01950   0.44330   0.01267  Uiso   1.00
C13    C     0.24600   0.03060   0.43100   0.01267  Uiso   1.00
C14    C     0.55890   0.01760   0.33040   0.01267  Uiso   1.00
C15    C     0.62470   0.07610   0.30490   0.01267  Uiso   1.00
C16    C     0.63630   0.09480   0.26060   0.01267  Uiso   1.00
C17    C     0.59740   0.04830   0.23790   0.01267  Uiso   1.00
C18    C     0.54980   0.98150   0.26130   0.01267  Uiso   1.00
C19    C     0.52510   0.96890   0.30650   0.01267  Uiso   1.00
C20    C     0.68281   0.89452   0.40906   0.01267  Uiso   1.00
C21    C     0.66527   0.84016   0.44830   0.01267  Uiso   1.00
C22    C     0.77294   0.77002   0.46130   0.01267  Uiso   1.00
C23    C     0.90264   0.75560   0.43592   0.01267  Uiso   1.00
C24    C     0.92284   0.80844   0.39688   0.01267  Uiso   1.00
C25    C     0.81345   0.87661   0.38329   0.01267  Uiso   1.00
C26    C     0.02604   0.68437   0.45075   0.01267  Uiso   1.00
C27    C     0.11790   0.28650   0.70130   0.01267  Uiso   1.00
C28    C     0.06643   0.34624   0.66550   0.01267  Uiso   1.00
C29    C     0.15509   0.36565   0.62837   0.01267  Uiso   1.00
C30    C     0.29934   0.32765   0.62487   0.01267  Uiso   1.00
C31    C     0.35440   0.26690   0.65950   0.01267  Uiso   1.00
C32    C     0.26430   0.24690   0.69670   0.01267  Uiso   1.00
C33    C     0.39757   0.34778   0.58508   0.01267  Uiso   1.00
C34    C     0.93620   0.16700   0.73660   0.01267  Uiso   1.00
C35    C     0.81530   0.18530   0.71390   0.01267  Uiso   1.00
C36    C     0.77140   0.12940   0.69860   0.01267  Uiso   1.00
C37    C     0.84930   0.05290   0.70510   0.01267  Uiso   1.00
C38    C     0.97090   0.02920   0.72780   0.01267  Uiso   1.00
C39    C     0.01350   0.08830   0.74310   0.01267  Uiso   1.00
C40    C     0.05543   0.42334   0.08540   0.01267  Uiso   1.00
C41    C     0.03900   0.34370   0.09910   0.01267  Uiso   1.00
C42    C     0.12504   0.27922   0.08030   0.01267  Uiso   1.00
C43    C     0.23529   0.29302   0.04740   0.01267  Uiso   1.00
C44    C     0.25717   0.37086   0.03420   0.01267  Uiso   1.00
C45    C     0.16639   0.43482   0.05280   0.01267  Uiso   1.00
C46    C     0.32298   0.22460   0.02524   0.01267  Uiso   1.00
C47    C     0.74395   0.52620   0.08670   0.01267  Uiso   1.00
C48    C     0.63574   0.59852   0.09000   0.01267  Uiso   1.00
C49    C     0.50090   0.61070   0.07730   0.01267  Uiso   1.00
C50    C     0.46690   0.55340   0.06100   0.01267  Uiso   1.00
C51    C     0.57290   0.48050   0.05670   0.01267  Uiso   1.00
C52    C     0.70760   0.46940   0.06900   0.01267  Uiso   1.00
C53    C     0.90690   0.48240   0.16960   0.01267  Uiso   1.00
C54    C     0.00570   0.42390   0.19510   0.01267  Uiso   1.00
C55    C     0.99170   0.40520   0.23940   0.01267  Uiso   1.00
C56    C     0.88360   0.45170   0.26210   0.01267  Uiso   1.00
C57    C     0.79260   0.51850   0.23870   0.01267  Uiso   1.00
C58    C     0.80050   0.53110   0.19350   0.01267  Uiso   1.00
C59    C     0.98639   0.60548   0.09094   0.01267  Uiso   1.00
C60    C     0.95373   0.65984   0.05170   0.01267  Uiso   1.00
C61    C     0.00426   0.72998   0.03870   0.01267  Uiso   1.00
C62    C     0.09416   0.74440   0.06408   0.01267  Uiso   1.00
C63    C     0.12816   0.69156   0.10312   0.01267  Uiso   1.00
C64    C     0.07335   0.62339   0.11671   0.01267  Uiso   1.00
C65    C     0.16116   0.81563   0.04925   0.01267  Uiso   1.00
C66    C     0.10570   0.21350   0.79870   0.01267  Uiso   1.00
C67    C     0.07817   0.15376   0.83450   0.01267  Uiso   1.00
C68    C     0.14911   0.13435   0.87163   0.01267  Uiso   1.00
C69    C     0.25186   0.17235   0.87513   0.01267  Uiso   1.00
C70    C     0.28080   0.23310   0.84050   0.01267  Uiso   1.00
C71    C     0.20790   0.25310   0.80330   0.01267  Uiso   1.00
C72    C     0.33043   0.15222   0.91492   0.01267  Uiso   1.00
C73    C     0.83980   0.33300   0.76340   0.01267  Uiso   1.00
C74    C     0.71450   0.31470   0.78610   0.01267  Uiso   1.00
C75    C     0.59940   0.37060   0.80140   0.01267  Uiso   1.00
C76    C     0.60730   0.44710   0.79490   0.01267  Uiso   1.00
C77    C     0.72790   0.47080   0.77220   0.01267  Uiso   1.00
C78    C     0.84490   0.41170   0.75690   0.01267  Uiso   1.00
C79    C     0.43583   0.92334   0.58540   0.01267  Uiso   1.00
C80    C     0.51820   0.84370   0.59910   0.01267  Uiso   1.00
C81    C     0.51544   0.77922   0.58030   0.01267  Uiso   1.00
C82    C     0.42429   0.79302   0.54740   0.01267  Uiso   1.00
C83    C     0.33777   0.87086   0.53420   0.01267  Uiso   1.00
C84    C     0.34599   0.93482   0.55280   0.01267  Uiso   1.00
C85    C     0.42718   0.72460   0.52524   0.01267  Uiso   1.00
C86    C     0.64315   0.02620   0.58670   0.01267  Uiso   1.00
C87    C     0.67574   0.09852   0.59000   0.01267  Uiso   1.00
C88    C     0.81110   0.11070   0.57730   0.01267  Uiso   1.00
C89    C     0.91870   0.05340   0.56100   0.01267  Uiso   1.00
C90    C     0.88990   0.98050   0.55670   0.01267  Uiso   1.00
C91    C     0.75400   0.96940   0.56900   0.01267  Uiso   1.00
C92    C     0.44110   0.98240   0.66960   0.01267  Uiso   1.00
C93    C     0.37530   0.92390   0.69510   0.01267  Uiso   1.00
C94    C     0.36370   0.90520   0.73940   0.01267  Uiso   1.00
C95    C     0.40260   0.95170   0.76210   0.01267  Uiso   1.00
C96    C     0.45020   0.01850   0.73870   0.01267  Uiso   1.00
C97    C     0.47490   0.03110   0.69350   0.01267  Uiso   1.00
C98    C     0.31719   0.10548   0.59094   0.01267  Uiso   1.00
C99    C     0.33473   0.15984   0.55170   0.01267  Uiso   1.00
C100   C     0.22706   0.22998   0.53870   0.01267  Uiso   1.00
C101   C     0.09736   0.24440   0.56408   0.01267  Uiso   1.00
C102   C     0.07716   0.19156   0.60312   0.01267  Uiso   1.00
C103   C     0.18655   0.12339   0.61671   0.01267  Uiso   1.00
C104   C     0.97396   0.31563   0.54925   0.01267  Uiso   1.00
C105   C     0.88210   0.71350   0.29870   0.01267  Uiso   1.00
C106   C     0.93357   0.65376   0.33450   0.01267  Uiso   1.00
C107   C     0.84491   0.63435   0.37163   0.01267  Uiso   1.00
C108   C     0.70066   0.67235   0.37513   0.01267  Uiso   1.00
C109   C     0.64560   0.73310   0.34050   0.01267  Uiso   1.00
C110   C     0.73570   0.75310   0.30330   0.01267  Uiso   1.00
C111   C     0.60243   0.65222   0.41492   0.01267  Uiso   1.00
C112   C     0.06380   0.83300   0.26340   0.01267  Uiso   1.00
C113   C     0.18470   0.81470   0.28610   0.01267  Uiso   1.00
C114   C     0.22860   0.87060   0.30140   0.01267  Uiso   1.00
C115   C     0.15070   0.94710   0.29490   0.01267  Uiso   1.00
C116   C     0.02910   0.97080   0.27220   0.01267  Uiso   1.00
C117   C     0.98650   0.91170   0.25690   0.01267  Uiso   1.00
C118   C     0.94457   0.57666   0.91460   0.01267  Uiso   1.00
C119   C     0.96100   0.65630   0.90090   0.01267  Uiso   1.00
C120   C     0.87496   0.72078   0.91970   0.01267  Uiso   1.00
C121   C     0.76471   0.70698   0.95260   0.01267  Uiso   1.00
C122   C     0.74283   0.62914   0.96580   0.01267  Uiso   1.00
C123   C     0.83361   0.56518   0.94720   0.01267  Uiso   1.00
C124   C     0.67702   0.77540   0.97476   0.01267  Uiso   1.00
C125   C     0.25605   0.47380   0.91330   0.01267  Uiso   1.00
C126   C     0.36426   0.40148   0.91000   0.01267  Uiso   1.00
C127   C     0.49910   0.38930   0.92270   0.01267  Uiso   1.00
C128   C     0.53310   0.44660   0.93900   0.01267  Uiso   1.00
C129   C     0.42710   0.51950   0.94330   0.01267  Uiso   1.00
C130   C     0.29240   0.53060   0.93100   0.01267  Uiso   1.00
C131   C     0.09310   0.51760   0.83040   0.01267  Uiso   1.00
C132   C     0.99430   0.57610   0.80490   0.01267  Uiso   1.00
C133   C     0.00830   0.59480   0.76060   0.01267  Uiso   1.00
C134   C     0.11640   0.54830   0.73790   0.01267  Uiso   1.00
C135   C     0.20740   0.48150   0.76130   0.01267  Uiso   1.00
C136   C     0.19950   0.46890   0.80650   0.01267  Uiso   1.00
C137   C     0.01361   0.39452   0.90906   0.01267  Uiso   1.00
C138   C     0.04627   0.34016   0.94830   0.01267  Uiso   1.00
C139   C     0.99574   0.27002   0.96130   0.01267  Uiso   1.00
C140   C     0.90584   0.25560   0.93592   0.01267  Uiso   1.00
C141   C     0.87184   0.30844   0.89688   0.01267  Uiso   1.00
C142   C     0.92665   0.37661   0.88329   0.01267  Uiso   1.00
C143   C     0.83884   0.18437   0.95075   0.01267  Uiso   1.00
C144   C     0.89430   0.78650   0.20130   0.01267  Uiso   1.00
C145   C     0.92183   0.84624   0.16550   0.01267  Uiso   1.00
C146   C     0.85089   0.86565   0.12837   0.01267  Uiso   1.00
C147   C     0.74814   0.82765   0.12487   0.01267  Uiso   1.00
C148   C     0.71920   0.76690   0.15950   0.01267  Uiso   1.00
C149   C     0.79210   0.74690   0.19670   0.01267  Uiso   1.00
C150   C     0.66957   0.84778   0.08508   0.01267  Uiso   1.00
C151   C     0.16020   0.66700   0.23660   0.01267  Uiso   1.00
C152   C     0.28550   0.68530   0.21390   0.01267  Uiso   1.00
C153   C     0.40060   0.62940   0.19860   0.01267  Uiso   1.00
C154   C     0.39270   0.55290   0.20510   0.01267  Uiso   1.00
C155   C     0.27210   0.52920   0.22780   0.01267  Uiso   1.00
C156   C     0.15510   0.58830   0.24310   0.01267  Uiso   1.00
O1     O     0.46760   0.33746   0.46874   0.01267  Uiso   1.00
O2     O     0.67262   0.26420   0.49856   0.01267  Uiso   1.00
O3     O     0.15165   0.69416   0.43494   0.01267  Uiso   1.00
O4     O     0.00388   0.62303   0.47661   0.01267  Uiso   1.00
O5     O     0.62548   0.44090   0.49554   0.01267  Uiso   1.00
O6     O     0.53147   0.31202   0.58604   0.01267  Uiso   1.00
O7     O     0.34401   0.39988   0.55310   0.01267  Uiso   1.00
O8     O     0.27380   0.16254   0.03126   0.01267  Uiso   1.00
O9     O     0.43538   0.23580   0.00144   0.01267  Uiso   1.00
O10    O     0.28075   0.80584   0.06506   0.01267  Uiso   1.00
O11    O     0.10352   0.87697   0.02339   0.01267  Uiso   1.00
O12    O     0.56192   0.05910   0.00446   0.01267  Uiso   1.00
O13    O     0.42953   0.18798   0.91396   0.01267  Uiso   1.00
O14    O     0.29699   0.10012   0.94690   0.01267  Uiso   1.00
O15    O     0.53240   0.66254   0.53126   0.01267  Uiso   1.00
O16    O     0.32738   0.73580   0.50144   0.01267  Uiso   1.00
O17    O     0.84835   0.30584   0.56506   0.01267  Uiso   1.00
O18    O     0.99612   0.37697   0.52339   0.01267  Uiso   1.00
O19    O     0.37452   0.55910   0.50446   0.01267  Uiso   1.00
O20    O     0.46853   0.68798   0.41396   0.01267  Uiso   1.00
O21    O     0.65599   0.60012   0.44690   0.01267  Uiso   1.00
O22    O     0.72620   0.83746   0.96874   0.01267  Uiso   1.00
O23    O     0.56462   0.76420   0.99856   0.01267  Uiso   1.00
O24    O     0.71925   0.19416   0.93494   0.01267  Uiso   1.00
O25    O     0.89648   0.12303   0.97661   0.01267  Uiso   1.00
O26    O     0.43808   0.94090   0.99554   0.01267  Uiso   1.00
O27    O     0.57047   0.81202   0.08604   0.01267  Uiso   1.00
O28    O     0.70301   0.89988   0.05310   0.01267  Uiso   1.00
