data_image0
_cell_length_a       20.723
_cell_length_b       5.2095
_cell_length_c       17.8741
_cell_angle_alpha    90
_cell_angle_beta     90
_cell_angle_gamma    90

_symmetry_space_group_name_H-M    "P 1"
_symmetry_int_tables_number       1

loop_
  _symmetry_equiv_pos_as_xyz
  'x, y, z'

loop_
  _atom_site_label
  _atom_site_occupancy
  _atom_site_fract_x
  _atom_site_fract_y
  _atom_site_fract_z
  _atom_site_thermal_displace_type
  _atom_site_B_iso_or_equiv
  _atom_site_type_symbol
  Zn1      1.0000 0.14899  0.78467  0.42511  Biso   1.000  Zn
  Zn2      1.0000 0.24657  0.27287  0.39400  Biso   1.000  Zn
  Zn3      1.0000 0.37154  0.65091  0.40747  Biso   1.000  Zn
  Zn4      1.0000 0.00102  0.22523  0.44115  Biso   1.000  Zn
  Zn5      1.0000 0.24991  0.61516  0.12879  Biso   1.000  Zn
  P1       1.0000 0.25749  0.76460  0.30388  Biso   1.000  P
  P2       1.0000 0.13943  0.26940  0.52174  Biso   1.000  P
  P3       1.0000 0.01207  0.75000  0.34610  Biso   1.000  P
  P4       1.0000 0.35927  0.14880  0.50469  Biso   1.000  P
  O1       1.0000 0.22073  0.62330  0.36910  Biso   1.000  O
  O2       1.0000 0.32875  0.70410  0.31356  Biso   1.000  O
  O3       1.0000 0.23178  0.66180  0.23078  Biso   1.000  O
  O4       1.0000 0.24308  0.04760  0.31130  Biso   1.000  O
  O5       1.0000 0.16251  0.19390  0.60005  Biso   1.000  O
  O6       1.0000 0.18145  0.12490  0.46230  Biso   1.000  O
  O7       1.0000 0.14948  0.55940  0.51157  Biso   1.000  O
  O8       1.0000 0.07017  0.18830  0.51322  Biso   1.000  O
  O9       1.0000 0.96370  0.90040  0.39790  Biso   1.000  O
  O10      1.0000 0.07755  0.86570  0.36480  Biso   1.000  O
  O11      1.0000 0.00720  0.46500  0.36210  Biso   1.000  O
  O12      1.0000 0.99616  0.80140  0.26500  Biso   1.000  O
  O13      1.0000 0.33178  0.31710  0.43984  Biso   1.000  O
  O14      1.0000 0.34200  0.86780  0.48901  Biso   1.000  O
  O15      1.0000 0.32733  0.23160  0.57776  Biso   1.000  O
  O16      1.0000 0.43096  0.19200  0.51010  Biso   1.000  O
  Zn6      1.0000 0.85101  0.21533  0.92511  Biso   1.000  Zn
  Zn7      1.0000 0.75343  0.72713  0.89400  Biso   1.000  Zn
  Zn8      1.0000 0.62846  0.34909  0.90747  Biso   1.000  Zn
  Zn9      1.0000 0.99898  0.77477  0.94115  Biso   1.000  Zn
  Zn10     1.0000 0.75009  0.38484  0.62879  Biso   1.000  Zn
  P5       1.0000 0.74251  0.23540  0.80388  Biso   1.000  P
  P6       1.0000 0.86057  0.73060  0.02174  Biso   1.000  P
  P7       1.0000 0.98793  0.25000  0.84610  Biso   1.000  P
  P8       1.0000 0.64073  0.85120  0.00469  Biso   1.000  P
  O17      1.0000 0.77927  0.37670  0.86910  Biso   1.000  O
  O18      1.0000 0.67125  0.29590  0.81356  Biso   1.000  O
  O19      1.0000 0.76822  0.33820  0.73078  Biso   1.000  O
  O20      1.0000 0.75692  0.95240  0.81130  Biso   1.000  O
  O21      1.0000 0.83749  0.80610  0.10005  Biso   1.000  O
  O22      1.0000 0.81855  0.87510  0.96230  Biso   1.000  O
  O23      1.0000 0.85052  0.44060  0.01157  Biso   1.000  O
  O24      1.0000 0.92983  0.81170  0.01322  Biso   1.000  O
  O25      1.0000 0.03630  0.09960  0.89790  Biso   1.000  O
  O26      1.0000 0.92245  0.13430  0.86480  Biso   1.000  O
  O27      1.0000 0.99280  0.53500  0.86210  Biso   1.000  O
  O28      1.0000 0.00384  0.19860  0.76500  Biso   1.000  O
  O29      1.0000 0.66822  0.68290  0.93984  Biso   1.000  O
  O30      1.0000 0.65800  0.13220  0.98901  Biso   1.000  O
  O31      1.0000 0.67267  0.76840  0.07776  Biso   1.000  O
  O32      1.0000 0.56904  0.80800  0.01010  Biso   1.000  O
  Zn11     1.0000 0.64899  0.71533  0.42511  Biso   1.000  Zn
  Zn12     1.0000 0.74657  0.22713  0.39400  Biso   1.000  Zn
  Zn13     1.0000 0.87154  0.84909  0.40747  Biso   1.000  Zn
  Zn14     1.0000 0.50102  0.27477  0.44115  Biso   1.000  Zn
  Zn15     1.0000 0.74991  0.88484  0.12879  Biso   1.000  Zn
  P9       1.0000 0.75749  0.73540  0.30388  Biso   1.000  P
  P10      1.0000 0.63943  0.23060  0.52174  Biso   1.000  P
  P11      1.0000 0.51207  0.75000  0.34610  Biso   1.000  P
  P12      1.0000 0.85927  0.35120  0.50469  Biso   1.000  P
  O33      1.0000 0.72073  0.87670  0.36910  Biso   1.000  O
  O34      1.0000 0.82875  0.79590  0.31356  Biso   1.000  O
  O35      1.0000 0.73178  0.83820  0.23078  Biso   1.000  O
  O36      1.0000 0.74308  0.45240  0.31130  Biso   1.000  O
  O37      1.0000 0.66251  0.30610  0.60005  Biso   1.000  O
  O38      1.0000 0.68145  0.37510  0.46230  Biso   1.000  O
  O39      1.0000 0.64948  0.94060  0.51157  Biso   1.000  O
  O40      1.0000 0.57017  0.31170  0.51322  Biso   1.000  O
  O41      1.0000 0.46370  0.59960  0.39790  Biso   1.000  O
  O42      1.0000 0.57755  0.63430  0.36480  Biso   1.000  O
  O43      1.0000 0.50720  0.03500  0.36210  Biso   1.000  O
  O44      1.0000 0.49616  0.69860  0.26500  Biso   1.000  O
  O45      1.0000 0.83178  0.18290  0.43984  Biso   1.000  O
  O46      1.0000 0.84200  0.63220  0.48901  Biso   1.000  O
  O47      1.0000 0.82733  0.26840  0.57776  Biso   1.000  O
  O48      1.0000 0.93096  0.30800  0.51010  Biso   1.000  O
  Zn16     1.0000 0.35101  0.28467  0.92511  Biso   1.000  Zn
  Zn17     1.0000 0.25343  0.77287  0.89400  Biso   1.000  Zn
  Zn18     1.0000 0.12846  0.15091  0.90747  Biso   1.000  Zn
  Zn19     1.0000 0.49898  0.72523  0.94115  Biso   1.000  Zn
  Zn20     1.0000 0.25009  0.11516  0.62879  Biso   1.000  Zn
  P13      1.0000 0.24251  0.26460  0.80388  Biso   1.000  P
  P14      1.0000 0.36057  0.76940  0.02174  Biso   1.000  P
  P15      1.0000 0.48793  0.25000  0.84610  Biso   1.000  P
  P16      1.0000 0.14073  0.64880  0.00469  Biso   1.000  P
  O49      1.0000 0.27927  0.12330  0.86910  Biso   1.000  O
  O50      1.0000 0.17125  0.20410  0.81356  Biso   1.000  O
  O51      1.0000 0.26822  0.16180  0.73078  Biso   1.000  O
  O52      1.0000 0.25692  0.54760  0.81130  Biso   1.000  O
  O53      1.0000 0.33749  0.69390  0.10005  Biso   1.000  O
  O54      1.0000 0.31855  0.62490  0.96230  Biso   1.000  O
  O55      1.0000 0.35052  0.05940  0.01157  Biso   1.000  O
  O56      1.0000 0.42983  0.68830  0.01322  Biso   1.000  O
  O57      1.0000 0.53630  0.40040  0.89790  Biso   1.000  O
  O58      1.0000 0.42245  0.36570  0.86480  Biso   1.000  O
  O59      1.0000 0.49280  0.96500  0.86210  Biso   1.000  O
  O60      1.0000 0.50384  0.30140  0.76500  Biso   1.000  O
  O61      1.0000 0.16822  0.81710  0.93984  Biso   1.000  O
  O62      1.0000 0.15800  0.36780  0.98901  Biso   1.000  O
  O63      1.0000 0.17267  0.73160  0.07776  Biso   1.000  O
  O64      1.0000 0.06904  0.69200  0.01010  Biso   1.000  O
