data_image0
_cell_length_a       9.984
_cell_length_b       12.354
_cell_length_c       12.834
_cell_angle_alpha    88.32
_cell_angle_beta     74.57
_cell_angle_gamma    75.81

_symmetry_space_group_name_H-M    "P 1"
_symmetry_int_tables_number       1

loop_
  _symmetry_equiv_pos_as_xyz
  'x, y, z'

loop_
  _atom_site_label
  _atom_site_occupancy
  _atom_site_fract_x
  _atom_site_fract_y
  _atom_site_fract_z
  _atom_site_thermal_displace_type
  _atom_site_B_iso_or_equiv
  _atom_site_type_symbol
  Zn1      1.0000 0.14229  0.73851  0.23476  Biso   1.000  Zn
  Zn2      1.0000 0.93247  0.97599  0.38030  Biso   1.000  Zn
  Zn3      1.0000 0.52642  0.73893  0.25653  Biso   1.000  Zn
  Zn4      1.0000 0.85309  0.57195  0.40013  Biso   1.000  Zn
  Zn5      1.0000 0.34002  0.61074  0.46378  Biso   1.000  Zn
  Zn6      1.0000 0.45874  0.44227  0.15085  Biso   1.000  Zn
  P1       1.0000 0.81200  0.79527  0.29361  Biso   1.000  P
  P2       1.0000 0.22059  0.85946  0.41431  Biso   1.000  P
  P3       1.0000 0.62959  0.49280  0.31305  Biso   1.000  P
  P4       1.0000 0.19950  0.49768  0.34943  Biso   1.000  P
  P5       1.0000 0.41204  0.68510  0.06067  Biso   1.000  P
  O1       1.0000 0.10840  0.85640  0.34950  Biso   1.000  O
  O2       1.0000 0.95720  0.74030  0.21630  Biso   1.000  O
  O3       1.0000 0.27290  0.77690  0.10580  Biso   1.000  O
  O4       1.0000 0.21720  0.61290  0.31380  Biso   1.000  O
  O5       1.0000 0.80280  0.91810  0.32150  Biso   1.000  O
  O6       1.0000 0.16780  0.97180  0.47630  Biso   1.000  O
  O7       1.0000 0.69480  0.79650  0.23730  Biso   1.000  O
  O8       1.0000 0.51820  0.60710  0.34700  Biso   1.000  O
  O9       1.0000 0.52800  0.70040  0.11210  Biso   1.000  O
  O10      1.0000 0.36550  0.85210  0.33580  Biso   1.000  O
  O11      1.0000 0.79000  0.73200  0.40020  Biso   1.000  O
  O12      1.0000 0.78020  0.51320  0.29200  Biso   1.000  O
  O13      1.0000 0.04820  0.48330  0.36470  Biso   1.000  O
  O14      1.0000 0.22340  0.76420  0.49230  Biso   1.000  O
  O15      1.0000 0.23910  0.48720  0.46050  Biso   1.000  O
  O16      1.0000 0.59910  0.41550  0.40530  Biso   1.000  O
  O17      1.0000 0.61930  0.44630  0.20830  Biso   1.000  O
  O18      1.0000 0.30550  0.40480  0.27090  Biso   1.000  O
  O19      1.0000 0.37620  0.57180  0.08220  Biso   1.000  O
  O20      1.0000 0.46700  0.69630  0.93790  Biso   1.000  O
  Zn7      1.0000 0.85771  0.26149  0.76524  Biso   1.000  Zn
  Zn8      1.0000 0.06753  0.02401  0.61970  Biso   1.000  Zn
  Zn9      1.0000 0.47358  0.26107  0.74347  Biso   1.000  Zn
  Zn10     1.0000 0.14691  0.42805  0.59987  Biso   1.000  Zn
  Zn11     1.0000 0.65998  0.38926  0.53622  Biso   1.000  Zn
  Zn12     1.0000 0.54126  0.55773  0.84915  Biso   1.000  Zn
  P6       1.0000 0.18800  0.20473  0.70639  Biso   1.000  P
  P7       1.0000 0.77941  0.14054  0.58569  Biso   1.000  P
  P8       1.0000 0.37041  0.50720  0.68695  Biso   1.000  P
  P9       1.0000 0.80050  0.50232  0.65057  Biso   1.000  P
  P10      1.0000 0.58796  0.31490  0.93933  Biso   1.000  P
  O21      1.0000 0.89160  0.14360  0.65050  Biso   1.000  O
  O22      1.0000 0.04280  0.25970  0.78370  Biso   1.000  O
  O23      1.0000 0.72710  0.22310  0.89420  Biso   1.000  O
  O24      1.0000 0.78280  0.38710  0.68620  Biso   1.000  O
  O25      1.0000 0.19720  0.08190  0.67850  Biso   1.000  O
  O26      1.0000 0.83220  0.02820  0.52370  Biso   1.000  O
  O27      1.0000 0.30520  0.20350  0.76270  Biso   1.000  O
  O28      1.0000 0.48180  0.39290  0.65300  Biso   1.000  O
  O29      1.0000 0.47200  0.29960  0.88790  Biso   1.000  O
  O30      1.0000 0.63450  0.14790  0.66420  Biso   1.000  O
  O31      1.0000 0.21000  0.26800  0.59980  Biso   1.000  O
  O32      1.0000 0.21980  0.48680  0.70800  Biso   1.000  O
  O33      1.0000 0.95180  0.51670  0.63530  Biso   1.000  O
  O34      1.0000 0.77660  0.23580  0.50770  Biso   1.000  O
  O35      1.0000 0.76090  0.51280  0.53950  Biso   1.000  O
  O36      1.0000 0.40090  0.58450  0.59470  Biso   1.000  O
  O37      1.0000 0.38070  0.55370  0.79170  Biso   1.000  O
  O38      1.0000 0.69450  0.59520  0.72910  Biso   1.000  O
  O39      1.0000 0.62380  0.42820  0.91780  Biso   1.000  O
  O40      1.0000 0.53300  0.30370  0.06210  Biso   1.000  O
