data_image0
_cell_length_a       20.794
_cell_length_b       5.2272
_cell_length_c       17.9628
_cell_angle_alpha    90
_cell_angle_beta     90
_cell_angle_gamma    90

_symmetry_space_group_name_H-M    "P 1"
_symmetry_int_tables_number       1

loop_
  _symmetry_equiv_pos_as_xyz
  'x, y, z'

loop_
  _atom_site_label
  _atom_site_occupancy
  _atom_site_fract_x
  _atom_site_fract_y
  _atom_site_fract_z
  _atom_site_thermal_displace_type
  _atom_site_B_iso_or_equiv
  _atom_site_type_symbol
  Zn1      1.0000 0.64889  0.28434  0.46652  Biso   1.000  Zn
  Zn2      1.0000 0.74644  0.77233  0.49751  Biso   1.000  Zn
  Zn3      1.0000 0.50064  0.72630  0.44990  Biso   1.000  Zn
  Zn4      1.0000 0.74987  0.61330  0.26270  Biso   1.000  Zn
  Zn5      1.0000 0.37115  0.34858  0.48363  Biso   1.000  Zn
  P1       1.0000 0.75730  0.26350  0.58705  Biso   1.000  P
  P2       1.0000 0.63930  0.76980  0.36921  Biso   1.000  P
  P3       1.0000 0.51169  0.25110  0.54428  Biso   1.000  P
  P4       1.0000 0.85888  0.64840  0.38579  Biso   1.000  P
  O1       1.0000 0.68090  0.62480  0.42900  Biso   1.000  O
  O2       1.0000 0.71980  0.12210  0.52200  Biso   1.000  O
  O3       1.0000 0.57640  0.36510  0.52520  Biso   1.000  O
  O4       1.0000 0.64940  0.06030  0.37940  Biso   1.000  O
  O5       1.0000 0.74280  0.54710  0.57990  Biso   1.000  O
  O6       1.0000 0.56990  0.69050  0.37830  Biso   1.000  O
  O7       1.0000 0.46340  0.39980  0.49280  Biso   1.000  O
  O8       1.0000 0.93040  0.69290  0.38060  Biso   1.000  O
  O9       1.0000 0.50670  0.96690  0.52760  Biso   1.000  O
  O10      1.0000 0.66200  0.69460  0.29150  Biso   1.000  O
  O11      1.0000 0.82690  0.73090  0.31310  Biso   1.000  O
  O12      1.0000 0.73170  0.16320  0.66050  Biso   1.000  O
  O13      1.0000 0.83200  0.81590  0.45170  Biso   1.000  O
  O14      1.0000 0.84180  0.36880  0.40210  Biso   1.000  O
  O15      1.0000 0.82870  0.20500  0.57640  Biso   1.000  O
  O16      1.0000 0.49550  0.30220  0.62360  Biso   1.000  O
  Zn6      1.0000 0.35111  0.71566  0.96652  Biso   1.000  Zn
  Zn7      1.0000 0.25356  0.22767  0.99751  Biso   1.000  Zn
  Zn8      1.0000 0.49936  0.27370  0.94990  Biso   1.000  Zn
  Zn9      1.0000 0.25013  0.38670  0.76270  Biso   1.000  Zn
  Zn10     1.0000 0.62885  0.65142  0.98363  Biso   1.000  Zn
  P5       1.0000 0.24270  0.73650  0.08705  Biso   1.000  P
  P6       1.0000 0.36070  0.23020  0.86921  Biso   1.000  P
  P7       1.0000 0.48831  0.74890  0.04428  Biso   1.000  P
  P8       1.0000 0.14112  0.35160  0.88579  Biso   1.000  P
  O17      1.0000 0.31910  0.37520  0.92900  Biso   1.000  O
  O18      1.0000 0.28020  0.87790  0.02200  Biso   1.000  O
  O19      1.0000 0.42360  0.63490  0.02520  Biso   1.000  O
  O20      1.0000 0.35060  0.93970  0.87940  Biso   1.000  O
  O21      1.0000 0.25720  0.45290  0.07990  Biso   1.000  O
  O22      1.0000 0.43010  0.30950  0.87830  Biso   1.000  O
  O23      1.0000 0.53660  0.60020  0.99280  Biso   1.000  O
  O24      1.0000 0.06960  0.30710  0.88060  Biso   1.000  O
  O25      1.0000 0.49330  0.03310  0.02760  Biso   1.000  O
  O26      1.0000 0.33800  0.30540  0.79150  Biso   1.000  O
  O27      1.0000 0.17310  0.26910  0.81310  Biso   1.000  O
  O28      1.0000 0.26830  0.83680  0.16050  Biso   1.000  O
  O29      1.0000 0.16800  0.18410  0.95170  Biso   1.000  O
  O30      1.0000 0.15820  0.63120  0.90210  Biso   1.000  O
  O31      1.0000 0.17130  0.79500  0.07640  Biso   1.000  O
  O32      1.0000 0.50450  0.69780  0.12360  Biso   1.000  O
  Zn11     1.0000 0.14889  0.21566  0.46652  Biso   1.000  Zn
  Zn12     1.0000 0.24644  0.72767  0.49751  Biso   1.000  Zn
  Zn13     1.0000 0.00064  0.77370  0.44990  Biso   1.000  Zn
  Zn14     1.0000 0.24987  0.88670  0.26270  Biso   1.000  Zn
  Zn15     1.0000 0.87115  0.15142  0.48363  Biso   1.000  Zn
  P9       1.0000 0.25730  0.23650  0.58705  Biso   1.000  P
  P10      1.0000 0.13930  0.73020  0.36921  Biso   1.000  P
  P11      1.0000 0.01169  0.24890  0.54428  Biso   1.000  P
  P12      1.0000 0.35888  0.85160  0.38579  Biso   1.000  P
  O33      1.0000 0.18090  0.87520  0.42900  Biso   1.000  O
  O34      1.0000 0.21980  0.37790  0.52200  Biso   1.000  O
  O35      1.0000 0.07640  0.13490  0.52520  Biso   1.000  O
  O36      1.0000 0.14940  0.43970  0.37940  Biso   1.000  O
  O37      1.0000 0.24280  0.95290  0.57990  Biso   1.000  O
  O38      1.0000 0.06990  0.80950  0.37830  Biso   1.000  O
  O39      1.0000 0.96340  0.10020  0.49280  Biso   1.000  O
  O40      1.0000 0.43040  0.80710  0.38060  Biso   1.000  O
  O41      1.0000 0.00670  0.53310  0.52760  Biso   1.000  O
  O42      1.0000 0.16200  0.80540  0.29150  Biso   1.000  O
  O43      1.0000 0.32690  0.76910  0.31310  Biso   1.000  O
  O44      1.0000 0.23170  0.33680  0.66050  Biso   1.000  O
  O45      1.0000 0.33200  0.68410  0.45170  Biso   1.000  O
  O46      1.0000 0.34180  0.13120  0.40210  Biso   1.000  O
  O47      1.0000 0.32870  0.29500  0.57640  Biso   1.000  O
  O48      1.0000 0.99550  0.19780  0.62360  Biso   1.000  O
  Zn16     1.0000 0.85111  0.78434  0.96652  Biso   1.000  Zn
  Zn17     1.0000 0.75356  0.27233  0.99751  Biso   1.000  Zn
  Zn18     1.0000 0.99936  0.22630  0.94990  Biso   1.000  Zn
  Zn19     1.0000 0.75013  0.11330  0.76270  Biso   1.000  Zn
  Zn20     1.0000 0.12885  0.84858  0.98363  Biso   1.000  Zn
  P13      1.0000 0.74270  0.76350  0.08705  Biso   1.000  P
  P14      1.0000 0.86070  0.26980  0.86921  Biso   1.000  P
  P15      1.0000 0.98831  0.75110  0.04428  Biso   1.000  P
  P16      1.0000 0.64112  0.14840  0.88579  Biso   1.000  P
  O49      1.0000 0.81910  0.12480  0.92900  Biso   1.000  O
  O50      1.0000 0.78020  0.62210  0.02200  Biso   1.000  O
  O51      1.0000 0.92360  0.86510  0.02520  Biso   1.000  O
  O52      1.0000 0.85060  0.56030  0.87940  Biso   1.000  O
  O53      1.0000 0.75720  0.04710  0.07990  Biso   1.000  O
  O54      1.0000 0.93010  0.19050  0.87830  Biso   1.000  O
  O55      1.0000 0.03660  0.89980  0.99280  Biso   1.000  O
  O56      1.0000 0.56960  0.19290  0.88060  Biso   1.000  O
  O57      1.0000 0.99330  0.46690  0.02760  Biso   1.000  O
  O58      1.0000 0.83800  0.19460  0.79150  Biso   1.000  O
  O59      1.0000 0.67310  0.23090  0.81310  Biso   1.000  O
  O60      1.0000 0.76830  0.66320  0.16050  Biso   1.000  O
  O61      1.0000 0.66800  0.31590  0.95170  Biso   1.000  O
  O62      1.0000 0.65820  0.86880  0.90210  Biso   1.000  O
  O63      1.0000 0.67130  0.70500  0.07640  Biso   1.000  O
  O64      1.0000 0.00450  0.80220  0.12360  Biso   1.000  O
