data_image0
_cell_length_a       13.7883
_cell_length_b       13.7883
_cell_length_c       9.345
_cell_angle_alpha    90
_cell_angle_beta     90
_cell_angle_gamma    120

_symmetry_space_group_name_H-M    "P 1"
_symmetry_int_tables_number       1

loop_
  _symmetry_equiv_pos_as_xyz
  'x, y, z'

loop_
  _atom_site_label
  _atom_site_occupancy
  _atom_site_fract_x
  _atom_site_fract_y
  _atom_site_fract_z
  _atom_site_thermal_displace_type
  _atom_site_B_iso_or_equiv
  _atom_site_type_symbol
  O1       1.0000 0.92930  0.07550  0.62880  Biso   1.000  O
  O2       1.0000 0.83140  0.38510  0.08570  Biso   1.000  O
  O3       1.0000 0.71280  0.14460  0.99820  Biso   1.000  O
  O4       1.0000 0.99950  0.43290  0.84440  Biso   1.000  O
  O5       1.0000 0.75990  0.31260  0.76060  Biso   1.000  O
  O6       1.0000 0.02790  0.14050  0.87210  Biso   1.000  O
  O7       1.0000 0.87630  0.18110  0.79150  Biso   1.000  O
  In1      1.0000 0.85380  0.29300  0.92422  Biso   1.000  In
  P1       1.0000 0.87616  0.50638  0.11850  Biso   1.000  P
  P2       1.0000 0.97197  0.16373  0.74659  Biso   1.000  P
  H1       1.0000 0.82100  0.51600  0.23500  Biso   1.000  H
  H2       1.0000 0.06200  0.26800  0.70600  Biso   1.000  H
  O8       1.0000 0.92450  0.85380  0.62880  Biso   1.000  O
  O9       1.0000 0.61490  0.44630  0.08570  Biso   1.000  O
  O10      1.0000 0.85540  0.56820  0.99820  Biso   1.000  O
  O11      1.0000 0.56710  0.56660  0.84440  Biso   1.000  O
  O12      1.0000 0.68740  0.44730  0.76060  Biso   1.000  O
  O13      1.0000 0.85950  0.88740  0.87210  Biso   1.000  O
  O14      1.0000 0.81890  0.69520  0.79150  Biso   1.000  O
  In2      1.0000 0.70700  0.56080  0.92422  Biso   1.000  In
  P3       1.0000 0.49362  0.36978  0.11850  Biso   1.000  P
  P4       1.0000 0.83627  0.80824  0.74659  Biso   1.000  P
  H3       1.0000 0.48400  0.30500  0.23500  Biso   1.000  H
  H4       1.0000 0.73200  0.79400  0.70600  Biso   1.000  H
  O15      1.0000 0.14620  0.07070  0.62880  Biso   1.000  O
  O16      1.0000 0.55370  0.16860  0.08570  Biso   1.000  O
  O17      1.0000 0.43180  0.28720  0.99820  Biso   1.000  O
  O18      1.0000 0.43340  0.00050  0.84440  Biso   1.000  O
  O19      1.0000 0.55270  0.24010  0.76060  Biso   1.000  O
  O20      1.0000 0.11260  0.97210  0.87210  Biso   1.000  O
  O21      1.0000 0.30480  0.12370  0.79150  Biso   1.000  O
  In3      1.0000 0.43920  0.14620  0.92422  Biso   1.000  In
  P5       1.0000 0.63022  0.12384  0.11850  Biso   1.000  P
  P6       1.0000 0.19176  0.02803  0.74659  Biso   1.000  P
  H5       1.0000 0.69500  0.17900  0.23500  Biso   1.000  H
  H6       1.0000 0.20600  0.93800  0.70600  Biso   1.000  H
  O22      1.0000 0.07070  0.92450  0.37120  Biso   1.000  O
  O23      1.0000 0.16860  0.61490  0.91430  Biso   1.000  O
  O24      1.0000 0.28720  0.85540  0.00180  Biso   1.000  O
  O25      1.0000 0.00050  0.56710  0.15560  Biso   1.000  O
  O26      1.0000 0.24010  0.68740  0.23940  Biso   1.000  O
  O27      1.0000 0.97210  0.85950  0.12790  Biso   1.000  O
  O28      1.0000 0.12370  0.81890  0.20850  Biso   1.000  O
  In4      1.0000 0.14620  0.70700  0.07578  Biso   1.000  In
  P7       1.0000 0.12384  0.49362  0.88150  Biso   1.000  P
  P8       1.0000 0.02803  0.83627  0.25341  Biso   1.000  P
  H7       1.0000 0.17900  0.48400  0.76500  Biso   1.000  H
  H8       1.0000 0.93800  0.73200  0.29400  Biso   1.000  H
  O29      1.0000 0.07550  0.14620  0.37120  Biso   1.000  O
  O30      1.0000 0.38510  0.55370  0.91430  Biso   1.000  O
  O31      1.0000 0.14460  0.43180  0.00180  Biso   1.000  O
  O32      1.0000 0.43290  0.43340  0.15560  Biso   1.000  O
  O33      1.0000 0.31260  0.55270  0.23940  Biso   1.000  O
  O34      1.0000 0.14050  0.11260  0.12790  Biso   1.000  O
  O35      1.0000 0.18110  0.30480  0.20850  Biso   1.000  O
  In5      1.0000 0.29300  0.43920  0.07578  Biso   1.000  In
  P9       1.0000 0.50638  0.63022  0.88150  Biso   1.000  P
  P10      1.0000 0.16373  0.19176  0.25341  Biso   1.000  P
  H9       1.0000 0.51600  0.69500  0.76500  Biso   1.000  H
  H10      1.0000 0.26800  0.20600  0.29400  Biso   1.000  H
  O36      1.0000 0.85380  0.92930  0.37120  Biso   1.000  O
  O37      1.0000 0.44630  0.83140  0.91430  Biso   1.000  O
  O38      1.0000 0.56820  0.71280  0.00180  Biso   1.000  O
  O39      1.0000 0.56660  0.99950  0.15560  Biso   1.000  O
  O40      1.0000 0.44730  0.75990  0.23940  Biso   1.000  O
  O41      1.0000 0.88740  0.02790  0.12790  Biso   1.000  O
  O42      1.0000 0.69520  0.87630  0.20850  Biso   1.000  O
  In6      1.0000 0.56080  0.85380  0.07578  Biso   1.000  In
  P11      1.0000 0.36978  0.87616  0.88150  Biso   1.000  P
  P12      1.0000 0.80824  0.97197  0.25341  Biso   1.000  P
  H11      1.0000 0.30500  0.82100  0.76500  Biso   1.000  H
  H12      1.0000 0.79400  0.06200  0.29400  Biso   1.000  H
  In7      1.0000 0.00000  0.00000  0.50000  Biso   1.000  In
  In8      1.0000 0.00000  0.00000  0.00000  Biso   1.000  In
  P13      1.0000 0.66667  0.33333  0.72000  Biso   1.000  P
  H13      1.0000 0.66667  0.33333  0.57200  Biso   1.000  H
  P14      1.0000 0.33333  0.66667  0.28000  Biso   1.000  P
  H14      1.0000 0.33333  0.66667  0.42800  Biso   1.000  H
