data_XOSQUR_ion_b
_audit_creation_date              2014-07-02
_audit_creation_method            'Materials Studio'
_symmetry_space_group_name_H-M    'P1'
_symmetry_Int_Tables_number       1
_symmetry_cell_setting            triclinic
loop_
_symmetry_equiv_pos_as_xyz
  x,y,z
_cell_length_a                    15.2840
_cell_length_b                    17.7260
_cell_length_c                    5.1882
_cell_angle_alpha                 90.0000
_cell_angle_beta                  90.0000
_cell_angle_gamma                 90.0000
loop_
_atom_site_label
_atom_site_type_symbol
_atom_site_fract_x
_atom_site_fract_y
_atom_site_fract_z
_atom_site_U_iso_or_equiv
_atom_site_adp_type
_atom_site_occupancy
Zn1    Zn    0.28064   0.80316   0.66760   0.00000  Uiso   1.00
Zn2    Zn    0.10691   0.80464   0.26480   0.00000  Uiso   1.00
Zn3    Zn    0.40651   0.75190   0.17260   0.00000  Uiso   1.00
Zn4    Zn    0.26684   0.06355   0.35040   0.00000  Uiso   1.00
P5     P     0.39952   0.65526   0.69000   0.00000  Uiso   1.00
P6     P     0.28031   0.89476   0.17300   0.00000  Uiso   1.00
P7     P     0.11210   0.70694   0.74880   0.00000  Uiso   1.00
O8     O     0.30500   0.88600   0.88860   0.00000  Uiso   1.00
O9     O     0.16010   0.77150   0.60410   0.00000  Uiso   1.00
O10    O     0.32430   0.82600   0.32290   0.00000  Uiso   1.00
O11    O     0.35650   0.72560   0.83130   0.00000  Uiso   1.00
O12    O     0.12120   0.72050   0.03500   0.00000  Uiso   1.00
O13    O     0.49380   0.64950   0.78400   0.00000  Uiso   1.00
O14    O     0.18250   0.89090   0.21340   0.00000  Uiso   1.00
O15    O     0.01970   0.70590   0.64600   0.00000  Uiso   1.00
O16    O     0.38890   0.66710   0.39860   0.00000  Uiso   1.00
O17    O     0.31820   0.96850   0.27810   0.00000  Uiso   1.00
O18    O     0.35380   0.58250   0.77030   0.00000  Uiso   1.00
O19    O     0.15570   0.63220   0.67600   0.00000  Uiso   1.00
O20    O     0.26210   0.08550   0.72900   0.00000  Uiso   1.00
H22    H     0.02370   0.03560   0.46830   0.00000  Uiso   1.00
C23    C     0.06930   0.96570   0.73100   0.00000  Uiso   1.00
H24    H     0.11340   0.94420   0.62170   0.00000  Uiso   1.00
H25    H     0.04430   0.92690   0.83700   0.00000  Uiso   1.00
H26    H     0.09510   0.00370   0.83860   0.00000  Uiso   1.00
Zn27   Zn    0.71936   0.19684   0.66760   0.00000  Uiso   1.00
Zn28   Zn    0.89309   0.19536   0.26480   0.00000  Uiso   1.00
Zn29   Zn    0.59349   0.24810   0.17260   0.00000  Uiso   1.00
Zn30   Zn    0.73316   0.93645   0.35040   0.00000  Uiso   1.00
P31    P     0.60048   0.34474   0.69000   0.00000  Uiso   1.00
P32    P     0.71969   0.10524   0.17300   0.00000  Uiso   1.00
P33    P     0.88790   0.29306   0.74880   0.00000  Uiso   1.00
O34    O     0.69500   0.11400   0.88860   0.00000  Uiso   1.00
O35    O     0.83990   0.22850   0.60410   0.00000  Uiso   1.00
O36    O     0.67570   0.17400   0.32290   0.00000  Uiso   1.00
O37    O     0.64350   0.27440   0.83130   0.00000  Uiso   1.00
O38    O     0.87880   0.27950   0.03500   0.00000  Uiso   1.00
O39    O     0.50620   0.35050   0.78400   0.00000  Uiso   1.00
O40    O     0.81750   0.10910   0.21340   0.00000  Uiso   1.00
O41    O     0.98030   0.29410   0.64600   0.00000  Uiso   1.00
O42    O     0.61110   0.33290   0.39860   0.00000  Uiso   1.00
O43    O     0.68180   0.03150   0.27810   0.00000  Uiso   1.00
O44    O     0.64620   0.41750   0.77030   0.00000  Uiso   1.00
O45    O     0.84430   0.36780   0.67600   0.00000  Uiso   1.00
O46    O     0.73790   0.91450   0.72900   0.00000  Uiso   1.00
H48    H     0.97630   0.96440   0.46830   0.00000  Uiso   1.00
C49    C     0.93070   0.03430   0.73100   0.00000  Uiso   1.00
H50    H     0.88660   0.05580   0.62170   0.00000  Uiso   1.00
H51    H     0.95570   0.07310   0.83700   0.00000  Uiso   1.00
H52    H     0.90490   0.99630   0.83860   0.00000  Uiso   1.00
Zn53   Zn    0.78064   0.69684   0.16760   0.00000  Uiso   1.00
Zn54   Zn    0.60691   0.69536   0.76480   0.00000  Uiso   1.00
Zn55   Zn    0.90651   0.74810   0.67260   0.00000  Uiso   1.00
Zn56   Zn    0.76684   0.43645   0.85040   0.00000  Uiso   1.00
P57    P     0.89952   0.84474   0.19000   0.00000  Uiso   1.00
P58    P     0.78031   0.60524   0.67300   0.00000  Uiso   1.00
P59    P     0.61210   0.79306   0.24880   0.00000  Uiso   1.00
O60    O     0.80500   0.61400   0.38860   0.00000  Uiso   1.00
O61    O     0.66010   0.72850   0.10410   0.00000  Uiso   1.00
O62    O     0.82430   0.67400   0.82290   0.00000  Uiso   1.00
O63    O     0.85650   0.77440   0.33130   0.00000  Uiso   1.00
O64    O     0.62120   0.77950   0.53500   0.00000  Uiso   1.00
O65    O     0.99380   0.85050   0.28400   0.00000  Uiso   1.00
O66    O     0.68250   0.60910   0.71340   0.00000  Uiso   1.00
O67    O     0.51970   0.79410   0.14600   0.00000  Uiso   1.00
O68    O     0.88890   0.83290   0.89860   0.00000  Uiso   1.00
O69    O     0.81820   0.53150   0.77810   0.00000  Uiso   1.00
O70    O     0.85380   0.91750   0.27030   0.00000  Uiso   1.00
O71    O     0.65570   0.86780   0.17600   0.00000  Uiso   1.00
O72    O     0.76210   0.41450   0.22900   0.00000  Uiso   1.00
H74    H     0.52370   0.46440   0.96830   0.00000  Uiso   1.00
C75    C     0.56930   0.53430   0.23100   0.00000  Uiso   1.00
H76    H     0.61340   0.55580   0.12170   0.00000  Uiso   1.00
H77    H     0.54430   0.57310   0.33700   0.00000  Uiso   1.00
H78    H     0.59510   0.49630   0.33860   0.00000  Uiso   1.00
Zn79   Zn    0.21936   0.30316   0.16760   0.00000  Uiso   1.00
Zn80   Zn    0.39309   0.30464   0.76480   0.00000  Uiso   1.00
Zn81   Zn    0.09349   0.25190   0.67260   0.00000  Uiso   1.00
Zn82   Zn    0.23316   0.56355   0.85040   0.00000  Uiso   1.00
P83    P     0.10048   0.15526   0.19000   0.00000  Uiso   1.00
P84    P     0.21969   0.39476   0.67300   0.00000  Uiso   1.00
P85    P     0.38790   0.20694   0.24880   0.00000  Uiso   1.00
O86    O     0.19500   0.38600   0.38860   0.00000  Uiso   1.00
O87    O     0.33990   0.27150   0.10410   0.00000  Uiso   1.00
O88    O     0.17570   0.32600   0.82290   0.00000  Uiso   1.00
O89    O     0.14350   0.22560   0.33130   0.00000  Uiso   1.00
O90    O     0.37880   0.22050   0.53500   0.00000  Uiso   1.00
O91    O     0.00620   0.14950   0.28400   0.00000  Uiso   1.00
O92    O     0.31750   0.39090   0.71340   0.00000  Uiso   1.00
O93    O     0.48030   0.20590   0.14600   0.00000  Uiso   1.00
O94    O     0.11110   0.16710   0.89860   0.00000  Uiso   1.00
O95    O     0.18180   0.46850   0.77810   0.00000  Uiso   1.00
O96    O     0.14620   0.08250   0.27030   0.00000  Uiso   1.00
O97    O     0.34430   0.13220   0.17600   0.00000  Uiso   1.00
O98    O     0.23790   0.58550   0.22900   0.00000  Uiso   1.00
H100   H     0.47630   0.53560   0.96830   0.00000  Uiso   1.00
C101   C     0.43070   0.46570   0.23100   0.00000  Uiso   1.00
H102   H     0.38660   0.44420   0.12170   0.00000  Uiso   1.00
H103   H     0.45570   0.42690   0.33700   0.00000  Uiso   1.00
H104   H     0.40490   0.50370   0.33860   0.00000  Uiso   1.00
N105   N     0.00000   0.00000   0.57000   0.00000  Uiso   1.00
N106   N     0.50000   0.50000   0.07000   0.00000  Uiso   1.00
loop_
_geom_bond_atom_site_label_1
_geom_bond_atom_site_label_2
_geom_bond_distance
_geom_bond_site_symmetry_2
_ccdc_geom_bond_type
Zn1    O8      1.900   .     S
Zn1    O9      1.954   .     S
Zn1    O10     1.951   .     S
Zn1    O11     1.989   .     S
Zn2    O9      2.026   .     S
Zn2    O12     1.922   .     S
Zn2    O14     1.935   .     S
Zn2    O65     1.913   1_455 S
Zn3    O10     1.978   .     S
Zn3    O16     1.925   .     S
Zn3    O67     1.890   .     S
Zn3    O11     1.984   1_554 S
Zn4    O20     2.004   .     S
Zn4    O96     1.920   .     S
Zn4    O97     1.924   .     S
Zn4    O17     1.896   1_545 S
P5     O11     1.589   .     S
P5     O13     1.525   .     A
P5     O16     1.535   .     A
P5     O18     1.525   .     A
P6     O10     1.595   .     S
P6     O14     1.511   .     A
P6     O17     1.530   .     A
P6     O8      1.531   1_554 S
P7     O9      1.553   .     S
P7     O15     1.510   .     A
P7     O19     1.530   .     A
P7     O12     1.511   1_556 S
O8     P6      1.531   1_556 S
O11    Zn3     1.984   1_556 S
O12    P7      1.511   1_554 S
O13    Zn54    1.913   .     S
O15    Zn55    1.890   1_455 S
O17    Zn4     1.896   1_565 S
O18    Zn82    1.920   .     S
O19    Zn82    1.924   .     S
H22    N105    0.899   .     S
C23    H24     0.960   .     S
C23    H25     0.960   .     S
C23    H26     0.960   1_565 S
C23    N105    1.480   1_565 S
H26    C23     0.960   1_545 S
Zn27   O34     1.900   .     S
Zn27   O35     1.954   .     S
Zn27   O36     1.951   .     S
Zn27   O37     1.989   .     S
Zn28   O35     2.026   .     S
Zn28   O38     1.922   .     S
Zn28   O40     1.935   .     S
Zn28   O91     1.913   1_655 S
Zn29   O36     1.978   .     S
Zn29   O42     1.925   .     S
Zn29   O93     1.890   .     S
Zn29   O37     1.984   1_554 A
Zn30   O46     2.004   .     S
Zn30   O70     1.920   .     S
Zn30   O71     1.924   .     S
Zn30   O43     1.896   1_565 A
P31    O37     1.589   .     S
P31    O39     1.525   .     A
P31    O42     1.535   .     A
P31    O44     1.525   .     A
P32    O36     1.595   .     S
P32    O40     1.511   .     A
P32    O43     1.530   .     A
P32    O34     1.531   1_554 A
P33    O35     1.553   .     S
P33    O41     1.510   .     A
P33    O45     1.530   .     A
P33    O38     1.511   1_556 S
O34    P32     1.531   1_556 A
O37    Zn29    1.984   1_556 A
O38    P33     1.511   1_554 S
O39    Zn80    1.913   .     S
O41    Zn81    1.890   1_655 A
O43    Zn30    1.896   1_545 A
O44    Zn56    1.920   .     S
O45    Zn56    1.924   .     S
H48    N105    0.899   1_665 S
C49    H50     0.960   .     S
C49    H51     0.960   .     S
C49    H52     0.960   1_545 S
C49    N105    1.480   1_655 S
H52    C49     0.960   1_565 S
Zn53   O60     1.900   .     S
Zn53   O61     1.954   .     S
Zn53   O63     1.989   .     S
Zn53   O62     1.951   1_554 S
Zn54   O64     1.922   .     S
Zn54   O66     1.935   .     S
Zn54   O61     2.026   1_556 S
Zn55   O62     1.978   .     S
Zn55   O63     1.984   .     S
Zn55   O68     1.925   .     S
Zn55   O15     1.890   1_655 S
Zn56   O69     1.896   .     S
Zn56   O72     2.004   1_556 S
P57    O63     1.589   .     S
P57    O65     1.525   .     A
P57    O70     1.525   .     A
P57    O68     1.535   1_554 S
P58    O60     1.531   .     A
P58    O62     1.595   .     S
P58    O66     1.511   .     A
P58    O69     1.530   .     A
P59    O61     1.553   .     S
P59    O64     1.511   .     A
P59    O67     1.510   .     A
P59    O71     1.530   .     A
O61    Zn54    2.026   1_554 S
O62    Zn53    1.951   1_556 S
O65    Zn2     1.913   1_655 S
O68    P57     1.535   1_556 S
O72    Zn56    2.004   1_554 S
H74    N106    0.899   1_556 S
C75    H76     0.960   .     S
C75    H77     0.960   .     S
C75    H78     0.960   .     S
C75    N106    1.480   .     S
Zn79   O86     1.900   .     S
Zn79   O87     1.954   .     S
Zn79   O89     1.989   .     S
Zn79   O88     1.951   1_554 S
Zn80   O90     1.922   .     S
Zn80   O92     1.935   .     S
Zn80   O87     2.026   1_556 S
Zn81   O88     1.978   .     S
Zn81   O89     1.984   .     S
Zn81   O94     1.925   .     S
Zn81   O41     1.890   1_455 A
Zn82   O95     1.896   .     S
Zn82   O98     2.004   1_556 S
P83    O89     1.589   .     S
P83    O91     1.525   .     A
P83    O96     1.525   .     A
P83    O94     1.535   1_554 S
P84    O86     1.531   .     A
P84    O88     1.595   .     S
P84    O92     1.511   .     A
P84    O95     1.530   .     A
P85    O87     1.553   .     S
P85    O90     1.511   .     A
P85    O93     1.510   .     A
P85    O97     1.530   .     A
O87    Zn80    2.026   1_554 S
O88    Zn79    1.951   1_556 S
O91    Zn28    1.913   1_455 S
O94    P83     1.535   1_556 S
O98    Zn82    2.004   1_554 S
H100   N106    0.899   1_556 A
C101   H102    0.960   .     S
C101   H103    0.960   .     S
C101   H104    0.960   .     S
C101   N106    1.480   .     S
N105   C23     1.480   1_545 S
N105   H48     0.899   1_445 S
N105   C49     1.480   1_455 S
N106   H74     0.899   1_554 S
N106   H100    0.899   1_554 A
