data_image0
_cell_length_a       9.0279
_cell_length_b       18.1362
_cell_length_c       8.5631
_cell_angle_alpha    90
_cell_angle_beta     102.735
_cell_angle_gamma    90

_symmetry_space_group_name_H-M    "P 1"
_symmetry_int_tables_number       1

loop_
  _symmetry_equiv_pos_as_xyz
  'x, y, z'

loop_
  _atom_site_label
  _atom_site_occupancy
  _atom_site_fract_x
  _atom_site_fract_y
  _atom_site_fract_z
  _atom_site_thermal_displace_type
  _atom_site_B_iso_or_equiv
  _atom_site_type_symbol
  Nd1      1.0000 0.26854  0.11924  0.06426  Biso   1.000  Nd
  O1       1.0000 0.48790  0.04090  0.18060  Biso   1.000  O
  O2       1.0000 0.41640  0.18660  0.30270  Biso   1.000  O
  O3       1.0000 0.14760  0.32550  0.30280  Biso   1.000  O
  O4       1.0000 0.14330  0.23240  0.13460  Biso   1.000  O
  O5       1.0000 0.42070  0.28140  0.47120  Biso   1.000  O
  O6       1.0000 0.18990  0.98710  0.99590  Biso   1.000  O
  O7       1.0000 0.00990  0.90400  0.99620  Biso   1.000  O
  O8       1.0000 0.59690  0.93530  0.13570  Biso   1.000  O
  C1       1.0000 0.20360  0.26900  0.25360  Biso   1.000  C
  C2       1.0000 0.36210  0.24300  0.35120  Biso   1.000  C
  C3       1.0000 0.52490  0.99300  0.09130  Biso   1.000  C
  C4       1.0000 0.05740  0.96870  0.99730  Biso   1.000  C
  Nd2      1.0000 0.73146  0.61924  0.43574  Biso   1.000  Nd
  O9       1.0000 0.51210  0.54090  0.31940  Biso   1.000  O
  O10      1.0000 0.58360  0.68660  0.19730  Biso   1.000  O
  O11      1.0000 0.85240  0.82550  0.19720  Biso   1.000  O
  O12      1.0000 0.85670  0.73240  0.36540  Biso   1.000  O
  O13      1.0000 0.57930  0.78140  0.02880  Biso   1.000  O
  O14      1.0000 0.81010  0.48710  0.50410  Biso   1.000  O
  O15      1.0000 0.99010  0.40400  0.50380  Biso   1.000  O
  O16      1.0000 0.40310  0.43530  0.36430  Biso   1.000  O
  C5       1.0000 0.79640  0.76900  0.24640  Biso   1.000  C
  C6       1.0000 0.63790  0.74300  0.14880  Biso   1.000  C
  C7       1.0000 0.47510  0.49300  0.40870  Biso   1.000  C
  C8       1.0000 0.94260  0.46870  0.50270  Biso   1.000  C
  Nd3      1.0000 0.73146  0.88077  0.93574  Biso   1.000  Nd
  O17      1.0000 0.51210  0.95910  0.81940  Biso   1.000  O
  O18      1.0000 0.58360  0.81340  0.69730  Biso   1.000  O
  O19      1.0000 0.85240  0.67450  0.69720  Biso   1.000  O
  O20      1.0000 0.85670  0.76760  0.86540  Biso   1.000  O
  O21      1.0000 0.57930  0.71860  0.52880  Biso   1.000  O
  O22      1.0000 0.81010  0.01290  0.00410  Biso   1.000  O
  O23      1.0000 0.99010  0.09600  0.00380  Biso   1.000  O
  O24      1.0000 0.40310  0.06470  0.86430  Biso   1.000  O
  C9       1.0000 0.79640  0.73100  0.74640  Biso   1.000  C
  C10      1.0000 0.63790  0.75700  0.64880  Biso   1.000  C
  C11      1.0000 0.47510  0.00700  0.90870  Biso   1.000  C
  C12      1.0000 0.94260  0.03130  0.00270  Biso   1.000  C
  Nd4      1.0000 0.26854  0.38077  0.56426  Biso   1.000  Nd
  O25      1.0000 0.48790  0.45910  0.68060  Biso   1.000  O
  O26      1.0000 0.41640  0.31340  0.80270  Biso   1.000  O
  O27      1.0000 0.14760  0.17450  0.80280  Biso   1.000  O
  O28      1.0000 0.14330  0.26760  0.63460  Biso   1.000  O
  O29      1.0000 0.42070  0.21860  0.97120  Biso   1.000  O
  O30      1.0000 0.18990  0.51290  0.49590  Biso   1.000  O
  O31      1.0000 0.00990  0.59600  0.49620  Biso   1.000  O
  O32      1.0000 0.59690  0.56470  0.63570  Biso   1.000  O
  C13      1.0000 0.20360  0.23100  0.75360  Biso   1.000  C
  C14      1.0000 0.36210  0.25700  0.85120  Biso   1.000  C
  C15      1.0000 0.52490  0.50700  0.59130  Biso   1.000  C
  C16      1.0000 0.05740  0.53130  0.49730  Biso   1.000  C
