data_image0
_cell_length_a       8.6222
_cell_length_b       9.5683
_cell_length_c       9.5712
_cell_angle_alpha    109.388
_cell_angle_beta     98.508
_cell_angle_gamma    102.361

_symmetry_space_group_name_H-M    "P 1"
_symmetry_int_tables_number       1

loop_
  _symmetry_equiv_pos_as_xyz
  'x, y, z'

loop_
  _atom_site_label
  _atom_site_occupancy
  _atom_site_fract_x
  _atom_site_fract_y
  _atom_site_fract_z
  _atom_site_thermal_displace_type
  _atom_site_B_iso_or_equiv
  _atom_site_type_symbol
  Nd1      1.0000 0.16140  0.22834  0.34985  Biso   1.000  Nd
  O1       1.0000 0.09760  0.19890  0.07950  Biso   1.000  O
  O2       1.0000 0.20390  0.06780  0.49850  Biso   1.000  O
  O3       1.0000 0.34400  0.46510  0.34530  Biso   1.000  O
  O4       1.0000 0.98240  0.39200  0.31030  Biso   1.000  O
  O5       1.0000 0.56850  0.65970  0.45600  Biso   1.000  O
  O6       1.0000 0.86180  0.57200  0.41180  Biso   1.000  O
  O7       1.0000 0.08360  0.87800  0.56800  Biso   1.000  O
  O8       1.0000 0.00130  0.04000  0.83470  Biso   1.000  O
  C1       1.0000 0.02860  0.06990  0.97670  Biso   1.000  C
  C2       1.0000 0.08260  0.98360  0.51930  Biso   1.000  C
  C3       1.0000 0.47490  0.53560  0.44200  Biso   1.000  C
  C4       1.0000 0.95520  0.48770  0.41950  Biso   1.000  C
  Nd2      1.0000 0.83860  0.77166  0.65015  Biso   1.000  Nd
  O9       1.0000 0.90240  0.80110  0.92050  Biso   1.000  O
  O10      1.0000 0.79610  0.93220  0.50150  Biso   1.000  O
  O11      1.0000 0.65600  0.53490  0.65470  Biso   1.000  O
  O12      1.0000 0.01760  0.60800  0.68970  Biso   1.000  O
  O13      1.0000 0.43150  0.34030  0.54400  Biso   1.000  O
  O14      1.0000 0.13820  0.42800  0.58820  Biso   1.000  O
  O15      1.0000 0.91640  0.12200  0.43200  Biso   1.000  O
  O16      1.0000 0.99870  0.96000  0.16530  Biso   1.000  O
  C5       1.0000 0.97140  0.93010  0.02330  Biso   1.000  C
  C6       1.0000 0.91740  0.01640  0.48070  Biso   1.000  C
  C7       1.0000 0.52510  0.46440  0.55800  Biso   1.000  C
  C8       1.0000 0.04480  0.51230  0.58050  Biso   1.000  C
