data_XOTKIA_charged
_audit_creation_date              2014-07-02
_audit_creation_method            'Materials Studio'
_symmetry_space_group_name_H-M    'P1'
_symmetry_Int_Tables_number       1
_symmetry_cell_setting            triclinic
loop_
_symmetry_equiv_pos_as_xyz
  x,y,z
_cell_length_a                    10.4867
_cell_length_b                    23.0260
_cell_length_c                    24.5500
_cell_angle_alpha                 90.0000
_cell_angle_beta                  98.7960
_cell_angle_gamma                 90.0000
loop_
_atom_site_label
_atom_site_type_symbol
_atom_site_fract_x
_atom_site_fract_y
_atom_site_fract_z
_atom_site_U_iso_or_equiv
_atom_site_adp_type
_atom_site_occupancy
Eu1    Eu    0.83477   0.99612   0.24270   0.01267  Uiso   1.00
Eu2    Eu    0.66523   0.49612   0.75730   0.01267  Uiso   1.00
Eu3    Eu    0.16523   0.00388   0.75730   0.01267  Uiso   1.00
Eu4    Eu    0.33477   0.50388   0.24270   0.01267  Uiso   1.00
Ba1    Ba    0.05595   0.71209   0.50140   0.01267  Uiso   1.00
Ba2    Ba    0.23413   0.74929   0.97006   0.01267  Uiso   1.00
Ba3    Ba    0.44405   0.21209   0.49860   0.01267  Uiso   1.00
Ba4    Ba    0.26587   0.24929   0.02994   0.01267  Uiso   1.00
Ba5    Ba    0.94405   0.28791   0.49860   0.01267  Uiso   1.00
Ba6    Ba    0.76587   0.25071   0.02994   0.01267  Uiso   1.00
Ba7    Ba    0.55595   0.78791   0.50140   0.01267  Uiso   1.00
Ba8    Ba    0.73413   0.75071   0.97006   0.01267  Uiso   1.00
H1     H     0.64060   0.91110   0.25810   0.01267  Uiso   1.00
H2     H     0.57760   0.95140   0.20800   0.01267  Uiso   1.00
H3     H     0.79790   0.87280   0.25620   0.01267  Uiso   1.00
H4     H     0.94970   0.88400   0.27210   0.01267  Uiso   1.00
H5     H     0.26820   0.87060   0.91130   0.01267  Uiso   1.00
H6     H     0.23730   0.82520   0.86170   0.01267  Uiso   1.00
H7     H     0.24450   0.68480   0.08910   0.01267  Uiso   1.00
H8     H     0.14750   0.73800   0.09180   0.01267  Uiso   1.00
H9     H     0.13980   0.90090   0.44290   0.01267  Uiso   1.00
H10    H     0.24990   0.82990   0.30700   0.01267  Uiso   1.00
H11    H     0.16420   0.91170   0.25540   0.01267  Uiso   1.00
H12    H     0.17850   0.02660   0.45210   0.01267  Uiso   1.00
H13    H     0.85670   0.12240   0.44900   0.01267  Uiso   1.00
H14    H     0.75270   0.06220   0.38090   0.01267  Uiso   1.00
H15    H     0.73570   0.93160   0.01460   0.01267  Uiso   1.00
H16    H     0.40300   0.91980   0.07830   0.01267  Uiso   1.00
H17    H     0.48800   0.98240   0.14850   0.01267  Uiso   1.00
H18    H     0.79750   0.05110   0.00690   0.01267  Uiso   1.00
H19    H     0.15350   0.09570   0.08350   0.01267  Uiso   1.00
H20    H     0.12350   0.03560   0.15700   0.01267  Uiso   1.00
H21    H     0.91740   0.23070   0.32700   0.01267  Uiso   1.00
H22    H     0.26680   0.15590   0.33250   0.01267  Uiso   1.00
H23    H     0.17400   0.08560   0.27000   0.01267  Uiso   1.00
H24    H     0.81060   0.24610   0.21540   0.01267  Uiso   1.00
H25    H     0.45960   0.17530   0.16620   0.01267  Uiso   1.00
H26    H     0.51880   0.09640   0.22290   0.01267  Uiso   1.00
H27    H     0.85940   0.41110   0.74190   0.01267  Uiso   1.00
H28    H     0.92240   0.45140   0.79200   0.01267  Uiso   1.00
H29    H     0.70210   0.37280   0.74380   0.01267  Uiso   1.00
H30    H     0.55030   0.38400   0.72790   0.01267  Uiso   1.00
H31    H     0.23180   0.37060   0.08870   0.01267  Uiso   1.00
H32    H     0.26270   0.32520   0.13830   0.01267  Uiso   1.00
H33    H     0.25550   0.18480   0.91090   0.01267  Uiso   1.00
H34    H     0.35250   0.23800   0.90820   0.01267  Uiso   1.00
H35    H     0.36020   0.40090   0.55710   0.01267  Uiso   1.00
H36    H     0.25010   0.32990   0.69300   0.01267  Uiso   1.00
H37    H     0.33580   0.41170   0.74460   0.01267  Uiso   1.00
H38    H     0.32150   0.52660   0.54790   0.01267  Uiso   1.00
H39    H     0.64330   0.62240   0.55100   0.01267  Uiso   1.00
H40    H     0.74730   0.56220   0.61910   0.01267  Uiso   1.00
H41    H     0.76430   0.43160   0.98540   0.01267  Uiso   1.00
H42    H     0.09700   0.41980   0.92170   0.01267  Uiso   1.00
H43    H     0.01200   0.48240   0.85150   0.01267  Uiso   1.00
H44    H     0.70250   0.55110   0.99310   0.01267  Uiso   1.00
H45    H     0.34650   0.59570   0.91650   0.01267  Uiso   1.00
H46    H     0.37650   0.53560   0.84300   0.01267  Uiso   1.00
H47    H     0.58260   0.73070   0.67300   0.01267  Uiso   1.00
H48    H     0.23320   0.65590   0.66750   0.01267  Uiso   1.00
H49    H     0.32600   0.58560   0.73000   0.01267  Uiso   1.00
H50    H     0.68940   0.74610   0.78460   0.01267  Uiso   1.00
H51    H     0.04040   0.67530   0.83380   0.01267  Uiso   1.00
H52    H     0.98120   0.59640   0.77710   0.01267  Uiso   1.00
H53    H     0.35940   0.08890   0.74190   0.01267  Uiso   1.00
H54    H     0.42240   0.04860   0.79200   0.01267  Uiso   1.00
H55    H     0.20210   0.12720   0.74380   0.01267  Uiso   1.00
H56    H     0.05030   0.11600   0.72790   0.01267  Uiso   1.00
H57    H     0.73180   0.12940   0.08870   0.01267  Uiso   1.00
H58    H     0.76270   0.17480   0.13830   0.01267  Uiso   1.00
H59    H     0.75550   0.31520   0.91090   0.01267  Uiso   1.00
H60    H     0.85250   0.26200   0.90820   0.01267  Uiso   1.00
H61    H     0.86020   0.09910   0.55710   0.01267  Uiso   1.00
H62    H     0.75010   0.17010   0.69300   0.01267  Uiso   1.00
H63    H     0.83580   0.08830   0.74460   0.01267  Uiso   1.00
H64    H     0.82150   0.97340   0.54790   0.01267  Uiso   1.00
H65    H     0.14330   0.87760   0.55100   0.01267  Uiso   1.00
H66    H     0.24730   0.93780   0.61910   0.01267  Uiso   1.00
H67    H     0.26430   0.06840   0.98540   0.01267  Uiso   1.00
H68    H     0.59700   0.08020   0.92170   0.01267  Uiso   1.00
H69    H     0.51200   0.01760   0.85150   0.01267  Uiso   1.00
H70    H     0.20250   0.94890   0.99310   0.01267  Uiso   1.00
H71    H     0.84650   0.90430   0.91650   0.01267  Uiso   1.00
H72    H     0.87650   0.96440   0.84300   0.01267  Uiso   1.00
H73    H     0.08260   0.76930   0.67300   0.01267  Uiso   1.00
H74    H     0.73320   0.84410   0.66750   0.01267  Uiso   1.00
H75    H     0.82600   0.91440   0.73000   0.01267  Uiso   1.00
H76    H     0.18940   0.75390   0.78460   0.01267  Uiso   1.00
H77    H     0.54040   0.82470   0.83380   0.01267  Uiso   1.00
H78    H     0.48120   0.90360   0.77710   0.01267  Uiso   1.00
H79    H     0.14060   0.58890   0.25810   0.01267  Uiso   1.00
H80    H     0.07760   0.54860   0.20800   0.01267  Uiso   1.00
H81    H     0.29790   0.62720   0.25620   0.01267  Uiso   1.00
H82    H     0.44970   0.61600   0.27210   0.01267  Uiso   1.00
H83    H     0.76820   0.62940   0.91130   0.01267  Uiso   1.00
H84    H     0.73730   0.67480   0.86170   0.01267  Uiso   1.00
H85    H     0.74450   0.81520   0.08910   0.01267  Uiso   1.00
H86    H     0.64750   0.76200   0.09180   0.01267  Uiso   1.00
H87    H     0.63980   0.59910   0.44290   0.01267  Uiso   1.00
H88    H     0.74990   0.67010   0.30700   0.01267  Uiso   1.00
H89    H     0.66420   0.58830   0.25540   0.01267  Uiso   1.00
H90    H     0.67850   0.47340   0.45210   0.01267  Uiso   1.00
H91    H     0.35670   0.37760   0.44900   0.01267  Uiso   1.00
H92    H     0.25270   0.43780   0.38090   0.01267  Uiso   1.00
H93    H     0.23570   0.56840   0.01460   0.01267  Uiso   1.00
H94    H     0.90300   0.58020   0.07830   0.01267  Uiso   1.00
H95    H     0.98800   0.51760   0.14850   0.01267  Uiso   1.00
H96    H     0.29750   0.44890   0.00690   0.01267  Uiso   1.00
H97    H     0.65350   0.40430   0.08350   0.01267  Uiso   1.00
H98    H     0.62350   0.46440   0.15700   0.01267  Uiso   1.00
H99    H     0.41740   0.26930   0.32700   0.01267  Uiso   1.00
H100   H     0.76680   0.34410   0.33250   0.01267  Uiso   1.00
H101   H     0.67400   0.41440   0.27000   0.01267  Uiso   1.00
H102   H     0.31060   0.25390   0.21540   0.01267  Uiso   1.00
H103   H     0.95960   0.32470   0.16620   0.01267  Uiso   1.00
H104   H     0.01880   0.40360   0.22290   0.01267  Uiso   1.00
C1     C     0.09270   0.94820   0.37360   0.01267  Uiso   1.00
C2     C     0.14390   0.90250   0.40450   0.01267  Uiso   1.00
C3     C     0.20220   0.85810   0.37900   0.01267  Uiso   1.00
C4     C     0.21000   0.86040   0.32420   0.01267  Uiso   1.00
C5     C     0.15820   0.90870   0.29350   0.01267  Uiso   1.00
C6     C     0.03050   0.99860   0.39650   0.01267  Uiso   1.00
C7     C     0.09120   0.03410   0.43690   0.01267  Uiso   1.00
C8     C     0.02780   0.08120   0.45620   0.01267  Uiso   1.00
C9     C     0.90170   0.09090   0.43570   0.01267  Uiso   1.00
C10    C     0.84030   0.05490   0.39570   0.01267  Uiso   1.00
C11    C     0.72950   0.98110   0.08220   0.01267  Uiso   1.00
C12    C     0.68370   0.94260   0.04140   0.01267  Uiso   1.00
C13    C     0.56210   0.91990   0.03930   0.01267  Uiso   1.00
C14    C     0.48740   0.93520   0.07950   0.01267  Uiso   1.00
C15    C     0.53740   0.97240   0.12060   0.01267  Uiso   1.00
C16    C     0.84910   0.01420   0.08180   0.01267  Uiso   1.00
C17    C     0.86470   0.04860   0.03750   0.01267  Uiso   1.00
C18    C     0.97680   0.07940   0.03720   0.01267  Uiso   1.00
C19    C     0.07530   0.07470   0.08260   0.01267  Uiso   1.00
C20    C     0.05740   0.03900   0.12610   0.01267  Uiso   1.00
C21    C     0.91910   0.16110   0.27680   0.01267  Uiso   1.00
C22    C     0.97100   0.20180   0.31470   0.01267  Uiso   1.00
C23    C     0.10210   0.20060   0.33500   0.01267  Uiso   1.00
C24    C     0.17720   0.15740   0.31860   0.01267  Uiso   1.00
C25    C     0.12240   0.11580   0.28150   0.01267  Uiso   1.00
C26    C     0.78640   0.16610   0.24740   0.01267  Uiso   1.00
C27    C     0.75130   0.21500   0.21590   0.01267  Uiso   1.00
C28    C     0.62980   0.21830   0.18510   0.01267  Uiso   1.00
C29    C     0.54340   0.17350   0.18730   0.01267  Uiso   1.00
C30    C     0.57910   0.12660   0.21990   0.01267  Uiso   1.00
C31    C     0.40730   0.44820   0.62640   0.01267  Uiso   1.00
C32    C     0.35610   0.40250   0.59550   0.01267  Uiso   1.00
C33    C     0.29780   0.35810   0.62100   0.01267  Uiso   1.00
C34    C     0.29000   0.36040   0.67580   0.01267  Uiso   1.00
C35    C     0.34180   0.40870   0.70650   0.01267  Uiso   1.00
C36    C     0.46950   0.49860   0.60350   0.01267  Uiso   1.00
C37    C     0.40880   0.53410   0.56310   0.01267  Uiso   1.00
C38    C     0.47220   0.58120   0.54380   0.01267  Uiso   1.00
C39    C     0.59830   0.59090   0.56430   0.01267  Uiso   1.00
C40    C     0.65970   0.55490   0.60430   0.01267  Uiso   1.00
C41    C     0.77050   0.48110   0.91780   0.01267  Uiso   1.00
C42    C     0.81630   0.44260   0.95860   0.01267  Uiso   1.00
C43    C     0.93790   0.41990   0.96070   0.01267  Uiso   1.00
C44    C     0.01260   0.43520   0.92050   0.01267  Uiso   1.00
C45    C     0.96260   0.47240   0.87940   0.01267  Uiso   1.00
C46    C     0.65090   0.51420   0.91820   0.01267  Uiso   1.00
C47    C     0.63530   0.54860   0.96250   0.01267  Uiso   1.00
C48    C     0.52320   0.57940   0.96280   0.01267  Uiso   1.00
C49    C     0.42470   0.57470   0.91740   0.01267  Uiso   1.00
C50    C     0.44260   0.53900   0.87390   0.01267  Uiso   1.00
C51    C     0.58090   0.66110   0.72320   0.01267  Uiso   1.00
C52    C     0.52900   0.70180   0.68530   0.01267  Uiso   1.00
C53    C     0.39790   0.70060   0.66500   0.01267  Uiso   1.00
C54    C     0.32280   0.65740   0.68140   0.01267  Uiso   1.00
C55    C     0.37760   0.61580   0.71850   0.01267  Uiso   1.00
C56    C     0.71360   0.66610   0.75260   0.01267  Uiso   1.00
C57    C     0.74870   0.71500   0.78410   0.01267  Uiso   1.00
C58    C     0.87020   0.71830   0.81490   0.01267  Uiso   1.00
C59    C     0.95660   0.67350   0.81270   0.01267  Uiso   1.00
C60    C     0.92090   0.62660   0.78010   0.01267  Uiso   1.00
C61    C     0.90730   0.05180   0.62640   0.01267  Uiso   1.00
C62    C     0.85610   0.09750   0.59550   0.01267  Uiso   1.00
C63    C     0.79780   0.14190   0.62100   0.01267  Uiso   1.00
C64    C     0.79000   0.13960   0.67580   0.01267  Uiso   1.00
C65    C     0.84180   0.09130   0.70650   0.01267  Uiso   1.00
C66    C     0.96950   0.00140   0.60350   0.01267  Uiso   1.00
C67    C     0.90880   0.96590   0.56310   0.01267  Uiso   1.00
C68    C     0.97220   0.91880   0.54380   0.01267  Uiso   1.00
C69    C     0.09830   0.90910   0.56430   0.01267  Uiso   1.00
C70    C     0.15970   0.94510   0.60430   0.01267  Uiso   1.00
C71    C     0.27050   0.01890   0.91780   0.01267  Uiso   1.00
C72    C     0.31630   0.05740   0.95860   0.01267  Uiso   1.00
C73    C     0.43790   0.08010   0.96070   0.01267  Uiso   1.00
C74    C     0.51260   0.06480   0.92050   0.01267  Uiso   1.00
C75    C     0.46260   0.02760   0.87940   0.01267  Uiso   1.00
C76    C     0.15090   0.98580   0.91820   0.01267  Uiso   1.00
C77    C     0.13530   0.95140   0.96250   0.01267  Uiso   1.00
C78    C     0.02320   0.92060   0.96280   0.01267  Uiso   1.00
C79    C     0.92470   0.92530   0.91740   0.01267  Uiso   1.00
C80    C     0.94260   0.96100   0.87390   0.01267  Uiso   1.00
C81    C     0.08090   0.83890   0.72320   0.01267  Uiso   1.00
C82    C     0.02900   0.79820   0.68530   0.01267  Uiso   1.00
C83    C     0.89790   0.79940   0.66500   0.01267  Uiso   1.00
C84    C     0.82280   0.84260   0.68140   0.01267  Uiso   1.00
C85    C     0.87760   0.88420   0.71850   0.01267  Uiso   1.00
C86    C     0.21360   0.83390   0.75260   0.01267  Uiso   1.00
C87    C     0.24870   0.78500   0.78410   0.01267  Uiso   1.00
C88    C     0.37020   0.78170   0.81490   0.01267  Uiso   1.00
C89    C     0.45660   0.82650   0.81270   0.01267  Uiso   1.00
C90    C     0.42090   0.87340   0.78010   0.01267  Uiso   1.00
C91    C     0.59270   0.55180   0.37360   0.01267  Uiso   1.00
C92    C     0.64390   0.59750   0.40450   0.01267  Uiso   1.00
C93    C     0.70220   0.64190   0.37900   0.01267  Uiso   1.00
C94    C     0.71000   0.63960   0.32420   0.01267  Uiso   1.00
C95    C     0.65820   0.59130   0.29350   0.01267  Uiso   1.00
C96    C     0.53050   0.50140   0.39650   0.01267  Uiso   1.00
C97    C     0.59120   0.46590   0.43690   0.01267  Uiso   1.00
C98    C     0.52780   0.41880   0.45620   0.01267  Uiso   1.00
C99    C     0.40170   0.40910   0.43570   0.01267  Uiso   1.00
C100   C     0.34030   0.44510   0.39570   0.01267  Uiso   1.00
C101   C     0.22950   0.51890   0.08220   0.01267  Uiso   1.00
C102   C     0.18370   0.55740   0.04140   0.01267  Uiso   1.00
C103   C     0.06210   0.58010   0.03930   0.01267  Uiso   1.00
C104   C     0.98740   0.56480   0.07950   0.01267  Uiso   1.00
C105   C     0.03740   0.52760   0.12060   0.01267  Uiso   1.00
C106   C     0.34910   0.48580   0.08180   0.01267  Uiso   1.00
C107   C     0.36470   0.45140   0.03750   0.01267  Uiso   1.00
C108   C     0.47680   0.42060   0.03720   0.01267  Uiso   1.00
C109   C     0.57530   0.42530   0.08260   0.01267  Uiso   1.00
C110   C     0.55740   0.46100   0.12610   0.01267  Uiso   1.00
C111   C     0.41910   0.33890   0.27680   0.01267  Uiso   1.00
C112   C     0.47100   0.29820   0.31470   0.01267  Uiso   1.00
C113   C     0.60210   0.29940   0.33500   0.01267  Uiso   1.00
C114   C     0.67720   0.34260   0.31860   0.01267  Uiso   1.00
C115   C     0.62240   0.38420   0.28150   0.01267  Uiso   1.00
C116   C     0.28640   0.33390   0.24740   0.01267  Uiso   1.00
C117   C     0.25130   0.28500   0.21590   0.01267  Uiso   1.00
C118   C     0.12980   0.28170   0.18510   0.01267  Uiso   1.00
C119   C     0.04340   0.32650   0.18730   0.01267  Uiso   1.00
C120   C     0.07910   0.37340   0.21990   0.01267  Uiso   1.00
S1     S     0.25630   0.79434   0.41717   0.01267  Uiso   1.00
S2     S     0.11390   0.12769   0.50752   0.01267  Uiso   1.00
S3     S     0.49970   0.87188   0.98415   0.01267  Uiso   1.00
S4     S     0.98780   0.12711   0.98062   0.01267  Uiso   1.00
S5     S     0.16680   0.25780   0.38017   0.01267  Uiso   1.00
S6     S     0.59550   0.27919   0.14000   0.01267  Uiso   1.00
S7     S     0.24370   0.29434   0.58283   0.01267  Uiso   1.00
S8     S     0.38610   0.62769   0.49248   0.01267  Uiso   1.00
S9     S     0.00030   0.37188   0.01585   0.01267  Uiso   1.00
S10    S     0.51220   0.62711   0.01938   0.01267  Uiso   1.00
S11    S     0.33320   0.75780   0.61983   0.01267  Uiso   1.00
S12    S     0.90450   0.77919   0.86000   0.01267  Uiso   1.00
S13    S     0.74370   0.20566   0.58283   0.01267  Uiso   1.00
S14    S     0.88610   0.87231   0.49248   0.01267  Uiso   1.00
S15    S     0.50030   0.12812   0.01585   0.01267  Uiso   1.00
S16    S     0.01220   0.87289   0.01938   0.01267  Uiso   1.00
S17    S     0.83320   0.74220   0.61983   0.01267  Uiso   1.00
S18    S     0.40450   0.72081   0.86000   0.01267  Uiso   1.00
S19    S     0.75630   0.70566   0.41717   0.01267  Uiso   1.00
S20    S     0.61390   0.37231   0.50752   0.01267  Uiso   1.00
S21    S     0.99970   0.62812   0.98415   0.01267  Uiso   1.00
S22    S     0.48780   0.37289   0.98062   0.01267  Uiso   1.00
S23    S     0.66680   0.24220   0.38017   0.01267  Uiso   1.00
S24    S     0.09550   0.22081   0.14000   0.01267  Uiso   1.00
N1     N     0.09960   0.95070   0.31910   0.01267  Uiso   1.00
N2     N     0.90100   0.00950   0.37710   0.01267  Uiso   1.00
N3     N     0.65720   0.99520   0.12180   0.01267  Uiso   1.00
N4     N     0.94730   0.00920   0.12500   0.01267  Uiso   1.00
N5     N     0.99450   0.11850   0.26170   0.01267  Uiso   1.00
N6     N     0.70080   0.12290   0.24820   0.01267  Uiso   1.00
N7     N     0.40040   0.45070   0.68090   0.01267  Uiso   1.00
N8     N     0.59900   0.50950   0.62290   0.01267  Uiso   1.00
N9     N     0.84280   0.49520   0.87820   0.01267  Uiso   1.00
N10    N     0.55270   0.50920   0.87500   0.01267  Uiso   1.00
N11    N     0.50550   0.61850   0.73830   0.01267  Uiso   1.00
N12    N     0.79920   0.62290   0.75180   0.01267  Uiso   1.00
N13    N     0.90040   0.04930   0.68090   0.01267  Uiso   1.00
N14    N     0.09900   0.99050   0.62290   0.01267  Uiso   1.00
N15    N     0.34280   0.00480   0.87820   0.01267  Uiso   1.00
N16    N     0.05270   0.99080   0.87500   0.01267  Uiso   1.00
N17    N     0.00550   0.88150   0.73830   0.01267  Uiso   1.00
N18    N     0.29920   0.87710   0.75180   0.01267  Uiso   1.00
N19    N     0.59960   0.54930   0.31910   0.01267  Uiso   1.00
N20    N     0.40100   0.49050   0.37710   0.01267  Uiso   1.00
N21    N     0.15720   0.50480   0.12180   0.01267  Uiso   1.00
N22    N     0.44730   0.49080   0.12500   0.01267  Uiso   1.00
N23    N     0.49450   0.38150   0.26170   0.01267  Uiso   1.00
N24    N     0.20080   0.37710   0.24820   0.01267  Uiso   1.00
O1     O     0.05100   0.99560   0.28840   0.01267  Uiso   1.00
O2     O     0.83950   0.97460   0.33890   0.01267  Uiso   1.00
O3     O     0.70090   0.03260   0.16170   0.01267  Uiso   1.00
O4     O     0.93520   0.97210   0.16460   0.01267  Uiso   1.00
O5     O     0.94270   0.08140   0.22270   0.01267  Uiso   1.00
O6     O     0.73150   0.07600   0.27870   0.01267  Uiso   1.00
O7     O     0.15280   0.75300   0.40690   0.01267  Uiso   1.00
O8     O     0.37120   0.77660   0.39580   0.01267  Uiso   1.00
O9     O     0.28300   0.81170   0.47450   0.01267  Uiso   1.00
O10    O     0.14720   0.09130   0.55580   0.01267  Uiso   1.00
O11    O     0.22520   0.14730   0.48430   0.01267  Uiso   1.00
O12    O     0.02340   0.17280   0.51520   0.01267  Uiso   1.00
O13    O     0.40660   0.90730   0.94930   0.01267  Uiso   1.00
O14    O     0.44120   0.82400   0.00960   0.01267  Uiso   1.00
O15    O     0.60960   0.85520   0.95920   0.01267  Uiso   1.00
O16    O     0.11000   0.15700   0.99380   0.01267  Uiso   1.00
O17    O     0.87680   0.16390   0.97750   0.01267  Uiso   1.00
O18    O     0.98360   0.08910   0.93320   0.01267  Uiso   1.00
O19    O     0.29780   0.24110   0.40000   0.01267  Uiso   1.00
O20    O     0.15540   0.30940   0.34710   0.01267  Uiso   1.00
O21    O     0.08700   0.25820   0.42280   0.01267  Uiso   1.00
O22    O     0.52440   0.31900   0.16910   0.01267  Uiso   1.00
O23    O     0.52250   0.25610   0.08960   0.01267  Uiso   1.00
O24    O     0.72060   0.30090   0.13110   0.01267  Uiso   1.00
O25    O     0.62780   0.95120   0.24510   0.01267  Uiso   1.00
O26    O     0.87270   0.89270   0.24530   0.01267  Uiso   1.00
O27    O     0.05740   0.61100   0.42240   0.01267  Uiso   1.00
O28    O     0.99160   0.62370   0.58140   0.01267  Uiso   1.00
O29    O     0.21190   0.83860   0.89630   0.01267  Uiso   1.00
O30    O     0.23110   0.72640   0.08210   0.01267  Uiso   1.00
O31    O     0.44900   0.49560   0.71160   0.01267  Uiso   1.00
O32    O     0.66050   0.47460   0.66110   0.01267  Uiso   1.00
O33    O     0.79910   0.53260   0.83830   0.01267  Uiso   1.00
O34    O     0.56480   0.47210   0.83540   0.01267  Uiso   1.00
O35    O     0.55730   0.58140   0.77730   0.01267  Uiso   1.00
O36    O     0.76850   0.57600   0.72130   0.01267  Uiso   1.00
O37    O     0.34720   0.25300   0.59310   0.01267  Uiso   1.00
O38    O     0.12880   0.27660   0.60420   0.01267  Uiso   1.00
O39    O     0.21700   0.31170   0.52550   0.01267  Uiso   1.00
O40    O     0.35280   0.59130   0.44420   0.01267  Uiso   1.00
O41    O     0.27480   0.64730   0.51570   0.01267  Uiso   1.00
O42    O     0.47660   0.67280   0.48480   0.01267  Uiso   1.00
O43    O     0.09340   0.40730   0.05070   0.01267  Uiso   1.00
O44    O     0.05880   0.32400   0.99040   0.01267  Uiso   1.00
O45    O     0.89040   0.35520   0.04080   0.01267  Uiso   1.00
O46    O     0.39000   0.65700   0.00620   0.01267  Uiso   1.00
O47    O     0.62320   0.66390   0.02250   0.01267  Uiso   1.00
O48    O     0.51640   0.58910   0.06680   0.01267  Uiso   1.00
O49    O     0.20220   0.74110   0.60000   0.01267  Uiso   1.00
O50    O     0.34460   0.80940   0.65290   0.01267  Uiso   1.00
O51    O     0.41300   0.75820   0.57720   0.01267  Uiso   1.00
O52    O     0.97560   0.81900   0.83090   0.01267  Uiso   1.00
O53    O     0.97750   0.75610   0.91040   0.01267  Uiso   1.00
O54    O     0.77940   0.80090   0.86890   0.01267  Uiso   1.00
O55    O     0.87220   0.45120   0.75490   0.01267  Uiso   1.00
O56    O     0.62730   0.39270   0.75470   0.01267  Uiso   1.00
O57    O     0.44260   0.11100   0.57760   0.01267  Uiso   1.00
O58    O     0.50840   0.12370   0.41860   0.01267  Uiso   1.00
O59    O     0.28810   0.33860   0.10370   0.01267  Uiso   1.00
O60    O     0.26890   0.22640   0.91790   0.01267  Uiso   1.00
O61    O     0.94900   0.00440   0.71160   0.01267  Uiso   1.00
O62    O     0.16050   0.02540   0.66110   0.01267  Uiso   1.00
O63    O     0.29910   0.96740   0.83830   0.01267  Uiso   1.00
O64    O     0.06480   0.02790   0.83540   0.01267  Uiso   1.00
O65    O     0.05730   0.91860   0.77730   0.01267  Uiso   1.00
O66    O     0.26850   0.92400   0.72130   0.01267  Uiso   1.00
O67    O     0.84720   0.24700   0.59310   0.01267  Uiso   1.00
O68    O     0.62880   0.22340   0.60420   0.01267  Uiso   1.00
O69    O     0.71700   0.18830   0.52550   0.01267  Uiso   1.00
O70    O     0.85280   0.90870   0.44420   0.01267  Uiso   1.00
O71    O     0.77480   0.85270   0.51570   0.01267  Uiso   1.00
O72    O     0.97660   0.82720   0.48480   0.01267  Uiso   1.00
O73    O     0.59340   0.09270   0.05070   0.01267  Uiso   1.00
O74    O     0.55880   0.17600   0.99040   0.01267  Uiso   1.00
O75    O     0.39040   0.14480   0.04080   0.01267  Uiso   1.00
O76    O     0.89000   0.84300   0.00620   0.01267  Uiso   1.00
O77    O     0.12320   0.83610   0.02250   0.01267  Uiso   1.00
O78    O     0.01640   0.91090   0.06680   0.01267  Uiso   1.00
O79    O     0.70220   0.75890   0.60000   0.01267  Uiso   1.00
O80    O     0.84460   0.69060   0.65290   0.01267  Uiso   1.00
O81    O     0.91300   0.74180   0.57720   0.01267  Uiso   1.00
O82    O     0.47560   0.68100   0.83090   0.01267  Uiso   1.00
O83    O     0.47750   0.74390   0.91040   0.01267  Uiso   1.00
O84    O     0.27940   0.69910   0.86890   0.01267  Uiso   1.00
O85    O     0.37220   0.04880   0.75490   0.01267  Uiso   1.00
O86    O     0.12730   0.10730   0.75470   0.01267  Uiso   1.00
O87    O     0.94260   0.38900   0.57760   0.01267  Uiso   1.00
O88    O     0.00840   0.37630   0.41860   0.01267  Uiso   1.00
O89    O     0.78810   0.16140   0.10370   0.01267  Uiso   1.00
O90    O     0.76890   0.27360   0.91790   0.01267  Uiso   1.00
O91    O     0.55100   0.50440   0.28840   0.01267  Uiso   1.00
O92    O     0.33950   0.52540   0.33890   0.01267  Uiso   1.00
O93    O     0.20090   0.46740   0.16170   0.01267  Uiso   1.00
O94    O     0.43520   0.52790   0.16460   0.01267  Uiso   1.00
O95    O     0.44270   0.41860   0.22270   0.01267  Uiso   1.00
O96    O     0.23150   0.42400   0.27870   0.01267  Uiso   1.00
O97    O     0.65280   0.74700   0.40690   0.01267  Uiso   1.00
O98    O     0.87120   0.72340   0.39580   0.01267  Uiso   1.00
O99    O     0.78300   0.68830   0.47450   0.01267  Uiso   1.00
O100   O     0.64720   0.40870   0.55580   0.01267  Uiso   1.00
O101   O     0.72520   0.35270   0.48430   0.01267  Uiso   1.00
O102   O     0.52340   0.32720   0.51520   0.01267  Uiso   1.00
O103   O     0.90660   0.59270   0.94930   0.01267  Uiso   1.00
O104   O     0.94120   0.67600   0.00960   0.01267  Uiso   1.00
O105   O     0.10960   0.64480   0.95920   0.01267  Uiso   1.00
O106   O     0.61000   0.34300   0.99380   0.01267  Uiso   1.00
O107   O     0.37680   0.33610   0.97750   0.01267  Uiso   1.00
O108   O     0.48360   0.41090   0.93320   0.01267  Uiso   1.00
O109   O     0.79780   0.25890   0.40000   0.01267  Uiso   1.00
O110   O     0.65540   0.19060   0.34710   0.01267  Uiso   1.00
O111   O     0.58700   0.24180   0.42280   0.01267  Uiso   1.00
O112   O     0.02440   0.18100   0.16910   0.01267  Uiso   1.00
O113   O     0.02250   0.24390   0.08960   0.01267  Uiso   1.00
O114   O     0.22060   0.19910   0.13110   0.01267  Uiso   1.00
O115   O     0.12780   0.54880   0.24510   0.01267  Uiso   1.00
O116   O     0.37270   0.60730   0.24530   0.01267  Uiso   1.00
O117   O     0.55740   0.88900   0.42240   0.01267  Uiso   1.00
O118   O     0.49160   0.87630   0.58140   0.01267  Uiso   1.00
O119   O     0.71190   0.66140   0.89630   0.01267  Uiso   1.00
O120   O     0.73110   0.77360   0.08210   0.01267  Uiso   1.00
Cl1    Cl    0.64290   0.98921   0.76511   0.01267  Uiso   1.00
Cl2    Cl    0.85710   0.48921   0.23489   0.01267  Uiso   1.00
Cl3    Cl    0.35710   0.01079   0.23489   0.01267  Uiso   1.00
Cl4    Cl    0.14290   0.51079   0.76511   0.01267  Uiso   1.00
