data_XOTSEG_clean
_audit_creation_date              2015-10-16
_audit_creation_method            'Materials Studio'
_symmetry_space_group_name_H-M    'P1'
_symmetry_Int_Tables_number       1
_symmetry_cell_setting            triclinic
loop_
_symmetry_equiv_pos_as_xyz
  x,y,z
_cell_length_a                    13.8783
_cell_length_b                    20.3674
_cell_length_c                    21.0344
_cell_angle_alpha                 62.5720
_cell_angle_beta                  82.4890
_cell_angle_gamma                 73.8500
loop_
_atom_site_label
_atom_site_type_symbol
_atom_site_fract_x
_atom_site_fract_y
_atom_site_fract_z
_atom_site_U_iso_or_equiv
_atom_site_adp_type
_atom_site_occupancy
Mn1    Mn    0.08736   0.31757   0.33984   0.01267  Uiso   1.00
Mn2    Mn    0.31424   0.29190   0.42329   0.01267  Uiso   1.00
Mn3    Mn    0.87694   0.24908   0.44151   0.01267  Uiso   1.00
H1     H     0.32540   0.09730   0.18690   0.01267  Uiso   1.00
H2     H     0.04250   0.06550   0.70140   0.01267  Uiso   1.00
H3     H     0.28410   0.87040   0.92930   0.01267  Uiso   1.00
H4     H     0.63090   0.14280   0.93220   0.01267  Uiso   1.00
H5     H     0.20400   0.92640   0.86940   0.01267  Uiso   1.00
H6     H     0.78930   0.12000   0.59540   0.01267  Uiso   1.00
H7     H     0.09720   0.54150   0.17460   0.01267  Uiso   1.00
H8     H     0.66380   0.84220   0.96210   0.01267  Uiso   1.00
H9     H     0.18720   0.26780   0.56820   0.01267  Uiso   1.00
H10    H     0.06800   0.16520   0.96380   0.01267  Uiso   1.00
H11    H     0.31620   0.52450   0.29170   0.01267  Uiso   1.00
H12    H     0.20140   0.20800   0.69260   0.01267  Uiso   1.00
H13    H     0.00830   0.16120   0.90780   0.01267  Uiso   1.00
H14    H     0.62920   0.61750   0.21110   0.01267  Uiso   1.00
H15    H     0.03290   0.12300   0.57900   0.01267  Uiso   1.00
H16    H     0.96080   0.52790   0.28440   0.01267  Uiso   1.00
H17    H     0.69130   0.49010   0.28530   0.01267  Uiso   1.00
H18    H     0.87570   0.14170   0.29820   0.01267  Uiso   1.00
H19    H     0.91490   0.07770   0.22750   0.01267  Uiso   1.00
H20    H     0.17930   0.85350   0.93350   0.01267  Uiso   1.00
H21    H     0.05750   0.27510   0.17820   0.01267  Uiso   1.00
H22    H     0.48410   0.20640   0.27760   0.01267  Uiso   1.00
H23    H     0.18780   0.86890   0.17580   0.01267  Uiso   1.00
H24    H     0.54640   0.14640   0.98870   0.01267  Uiso   1.00
H25    H     0.78530   0.02770   0.72640   0.01267  Uiso   1.00
H26    H     0.52350   0.13840   0.92190   0.01267  Uiso   1.00
H27    H     0.23710   0.15140   0.25920   0.01267  Uiso   1.00
H28    H     0.09870   0.66490   0.10020   0.01267  Uiso   1.00
H29    H     0.12060   0.16570   0.89300   0.01267  Uiso   1.00
H30    H     0.65110   0.90980   0.21430   0.01267  Uiso   1.00
H31    H     0.64090   0.83520   0.21400   0.01267  Uiso   1.00
H32    H     0.31810   0.64990   0.21650   0.01267  Uiso   1.00
H33    H     0.09470   0.21430   0.10620   0.01267  Uiso   1.00
H34    H     0.07780   0.86610   0.16960   0.01267  Uiso   1.00
H35    H     0.54500   0.90060   0.20740   0.01267  Uiso   1.00
H36    H     0.55890   0.27000   0.62070   0.01267  Uiso   1.00
H37    H     0.09710   0.93490   0.17630   0.01267  Uiso   1.00
H38    H     0.55450   0.19330   0.74120   0.01267  Uiso   1.00
H39    H     0.76970   0.82060   0.99500   0.01267  Uiso   1.00
H40    H     0.90100   0.65430   0.21030   0.01267  Uiso   1.00
H41    H     0.74080   0.89160   0.92060   0.01267  Uiso   1.00
H42    H     0.57220   0.14910   0.20650   0.01267  Uiso   1.00
C1     C     0.96580   0.21340   0.24680   0.01267  Uiso   1.00
C2     C     0.12680   0.12750   0.71140   0.01267  Uiso   1.00
C3     C     0.73300   0.52330   0.27060   0.01267  Uiso   1.00
C4     C     0.14190   0.56320   0.18300   0.01267  Uiso   1.00
C5     C     0.60070   0.17560   0.71290   0.01267  Uiso   1.00
C6     C     0.17250   0.93820   0.96170   0.01267  Uiso   1.00
C7     C     0.57350   0.12430   0.95650   0.01267  Uiso   1.00
C8     C     0.14260   0.63680   0.13880   0.01267  Uiso   1.00
C9     C     0.60150   0.22140   0.64120   0.01267  Uiso   1.00
C10    C     0.10130   0.02000   0.04120   0.01267  Uiso   1.00
C11    C     0.20890   0.67150   0.15040   0.01267  Uiso   1.00
C12    C     0.73950   0.13060   0.62580   0.01267  Uiso   1.00
C13    C     0.50960   0.08240   0.14590   0.01267  Uiso   1.00
C14    C     0.64490   0.99230   0.96390   0.01267  Uiso   1.00
C15    C     0.30410   0.15200   0.24830   0.01267  Uiso   1.00
C16    C     0.07350   0.10510   0.67490   0.01267  Uiso   1.00
C17    C     0.85860   0.62150   0.22510   0.01267  Uiso   1.00
C18    C     0.00920   0.14020   0.15880   0.01267  Uiso   1.00
C19    C     0.35770   0.11930   0.20520   0.01267  Uiso   1.00
C20    C     0.10600   0.06040   0.96600   0.01267  Uiso   1.00
C21    C     0.87300   0.41110   0.34630   0.01267  Uiso   1.00
C22    C     0.66470   0.87990   0.07850   0.01267  Uiso   1.00
C23    C     0.54900   0.04920   0.11010   0.01267  Uiso   1.00
C24    C     0.16820   0.19040   0.67030   0.01267  Uiso   1.00
C25    C     0.20450   0.75070   0.10700   0.01267  Uiso   1.00
C26    C     0.62540   0.92550   0.11400   0.01267  Uiso   1.00
C27    C     0.35230   0.18600   0.27520   0.01267  Uiso   1.00
C28    C     0.73950   0.07510   0.70710   0.01267  Uiso   1.00
C29    C     0.05130   0.19890   0.14490   0.01267  Uiso   1.00
C30    C     0.66580   0.19360   0.60160   0.01267  Uiso   1.00
C31    C     0.60410   0.03890   0.99810   0.01267  Uiso   1.00
C32    C     0.50460   0.15020   0.21640   0.01267  Uiso   1.00
C33    C     0.06620   0.14020   0.60160   0.01267  Uiso   1.00
C34    C     0.12220   0.89900   0.15680   0.01267  Uiso   1.00
C35    C     0.65650   0.02720   0.88770   0.01267  Uiso   1.00
C36    C     0.45680   0.11840   0.18900   0.01267  Uiso   1.00
C37    C     0.92080   0.15540   0.26040   0.01267  Uiso   1.00
C38    C     0.69590   0.59920   0.22570   0.01267  Uiso   1.00
C39    C     0.19180   0.81900   0.07260   0.01267  Uiso   1.00
C40    C     0.06370   0.06290   0.08300   0.01267  Uiso   1.00
C41    C     0.95190   0.24880   0.29800   0.01267  Uiso   1.00
C42    C     0.76090   0.64980   0.20150   0.01267  Uiso   1.00
C43    C     0.14010   0.01740   0.92730   0.01267  Uiso   1.00
C44    C     0.72180   0.73000   0.15610   0.01267  Uiso   1.00
C45    C     0.29220   0.22430   0.32080   0.01267  Uiso   1.00
C46    C     0.10060   0.24010   0.48190   0.01267  Uiso   1.00
C47    C     0.94330   0.11770   0.21750   0.01267  Uiso   1.00
C48    C     0.16430   0.90110   0.03650   0.01267  Uiso   1.00
C49    C     0.15910   0.22660   0.59540   0.01267  Uiso   1.00
C50    C     0.10830   0.20110   0.56160   0.01267  Uiso   1.00
C51    C     0.45140   0.18450   0.25950   0.01267  Uiso   1.00
C52    C     0.83180   0.49500   0.29470   0.01267  Uiso   1.00
C53    C     0.07280   0.14580   0.92940   0.01267  Uiso   1.00
C54    C     0.02910   0.23500   0.18840   0.01267  Uiso   1.00
C55    C     0.66080   0.24640   0.51590   0.01267  Uiso   1.00
C56    C     0.67050   0.09830   0.74830   0.01267  Uiso   1.00
C57    C     0.61460   0.88940   0.19480   0.01267  Uiso   1.00
C58    C     0.27270   0.55310   0.25290   0.01267  Uiso   1.00
C59    C     0.21370   0.89300   0.91960   0.01267  Uiso   1.00
C60    C     0.66330   0.05820   0.82440   0.01267  Uiso   1.00
C61    C     0.27350   0.62820   0.20790   0.01267  Uiso   1.00
C62    C     0.20680   0.43800   0.28980   0.01267  Uiso   1.00
C63    C     0.71600   0.86210   0.96710   0.01267  Uiso   1.00
C64    C     0.89410   0.54600   0.26990   0.01267  Uiso   1.00
C65    C     0.14010   0.05720   0.85050   0.01267  Uiso   1.00
C66    C     0.69540   0.79830   0.11990   0.01267  Uiso   1.00
C67    C     0.13590   0.08860   0.78810   0.01267  Uiso   1.00
C68    C     0.59300   0.00380   0.07450   0.01267  Uiso   1.00
C69    C     0.03830   0.09720   0.11630   0.01267  Uiso   1.00
C70    C     0.20640   0.52040   0.23980   0.01267  Uiso   1.00
C71    C     0.67450   0.91220   0.00430   0.01267  Uiso   1.00
C72    C     0.12850   0.94140   0.07620   0.01267  Uiso   1.00
O1     O     0.81340   0.36890   0.37010   0.01267  Uiso   1.00
O2     O     0.20120   0.23250   0.32460   0.01267  Uiso   1.00
O3     O     0.14980   0.40980   0.27420   0.01267  Uiso   1.00
O4     O     0.04240   0.22660   0.45120   0.01267  Uiso   1.00
O5     O     0.34230   0.24420   0.35040   0.01267  Uiso   1.00
O6     O     0.58230   0.30220   0.49460   0.01267  Uiso   1.00
O7     O     0.72580   0.23060   0.47870   0.01267  Uiso   1.00
O8     O     0.90060   0.22170   0.35340   0.01267  Uiso   1.00
O9     O     0.15570   0.28670   0.44580   0.01267  Uiso   1.00
O10    O     0.26230   0.40540   0.34320   0.01267  Uiso   1.00
O11    O     0.99030   0.30420   0.28020   0.01267  Uiso   1.00
O12    O     0.96280   0.39210   0.36370   0.01267  Uiso   1.00
Mn4    Mn    0.91264   0.68243   0.66016   0.01267  Uiso   1.00
Mn5    Mn    0.68576   0.70810   0.57671   0.01267  Uiso   1.00
Mn6    Mn    0.12306   0.75092   0.55849   0.01267  Uiso   1.00
H43    H     0.90530   0.78570   0.89380   0.01267  Uiso   1.00
H44    H     0.96710   0.87700   0.42100   0.01267  Uiso   1.00
H45    H     0.08510   0.92230   0.77250   0.01267  Uiso   1.00
H46    H     0.23030   0.17940   0.00500   0.01267  Uiso   1.00
H47    H     0.67460   0.90270   0.81310   0.01267  Uiso   1.00
H48    H     0.44550   0.80670   0.25880   0.01267  Uiso   1.00
H49    H     0.33620   0.15780   0.03790   0.01267  Uiso   1.00
H50    H     0.82070   0.14650   0.06650   0.01267  Uiso   1.00
H51    H     0.30870   0.50990   0.71470   0.01267  Uiso   1.00
H52    H     0.76290   0.84860   0.74080   0.01267  Uiso   1.00
H53    H     0.25920   0.10840   0.07940   0.01267  Uiso   1.00
H54    H     0.90280   0.45850   0.82540   0.01267  Uiso   1.00
H55    H     0.81220   0.13110   0.82420   0.01267  Uiso   1.00
H56    H     0.79860   0.79200   0.30740   0.01267  Uiso   1.00
H57    H     0.36910   0.85720   0.06780   0.01267  Uiso   1.00
H58    H     0.09900   0.34570   0.78970   0.01267  Uiso   1.00
H59    H     0.34890   0.09020   0.78570   0.01267  Uiso   1.00
H60    H     0.45360   0.85360   0.01130   0.01267  Uiso   1.00
H61    H     0.21470   0.97230   0.27360   0.01267  Uiso   1.00
H62    H     0.44110   0.73000   0.37930   0.01267  Uiso   1.00
H63    H     0.94250   0.72490   0.82180   0.01267  Uiso   1.00
H64    H     0.12430   0.85830   0.70180   0.01267  Uiso   1.00
H65    H     0.35910   0.16480   0.78600   0.01267  Uiso   1.00
H66    H     0.79600   0.07360   0.13060   0.01267  Uiso   1.00
H67    H     0.42780   0.85090   0.79350   0.01267  Uiso   1.00
H68    H     0.03920   0.47210   0.71560   0.01267  Uiso   1.00
H69    H     0.92220   0.13390   0.83040   0.01267  Uiso   1.00
H70    H     0.90130   0.33510   0.89980   0.01267  Uiso   1.00
H71    H     0.71590   0.12960   0.07070   0.01267  Uiso   1.00
H72    H     0.51590   0.79360   0.72240   0.01267  Uiso   1.00
H73    H     0.99170   0.83880   0.09220   0.01267  Uiso   1.00
H74    H     0.68380   0.47550   0.70830   0.01267  Uiso   1.00
H75    H     0.90290   0.06510   0.82370   0.01267  Uiso   1.00
H76    H     0.45500   0.09940   0.79260   0.01267  Uiso   1.00
H77    H     0.93200   0.83480   0.03620   0.01267  Uiso   1.00
H78    H     0.47650   0.86160   0.07810   0.01267  Uiso   1.00
H79    H     0.95750   0.93450   0.29860   0.01267  Uiso   1.00
H80    H     0.87940   0.83430   0.10700   0.01267  Uiso   1.00
H81    H     0.68190   0.35010   0.78350   0.01267  Uiso   1.00
H82    H     0.81280   0.73220   0.43180   0.01267  Uiso   1.00
H83    H     0.21070   0.88000   0.40460   0.01267  Uiso   1.00
H84    H     0.37080   0.38250   0.78890   0.01267  Uiso   1.00
C73    C     0.86410   0.91140   0.21190   0.01267  Uiso   1.00
C74    C     0.89870   0.98000   0.95880   0.01267  Uiso   1.00
C75    C     0.33670   0.94180   0.17560   0.01267  Uiso   1.00
C76    C     0.30410   0.40080   0.77430   0.01267  Uiso   1.00
C77    C     0.79110   0.32850   0.84960   0.01267  Uiso   1.00
C78    C     0.32550   0.08780   0.99570   0.01267  Uiso   1.00
C79    C     0.78630   0.10700   0.08040   0.01267  Uiso   1.00
C80    C     0.79360   0.47960   0.76020   0.01267  Uiso   1.00
C81    C     0.23910   0.35020   0.79850   0.01267  Uiso   1.00
C82    C     0.83570   0.09890   0.96350   0.01267  Uiso   1.00
C83    C     0.54320   0.88160   0.81100   0.01267  Uiso   1.00
C84    C     0.16820   0.50500   0.70530   0.01267  Uiso   1.00
C85    C     0.32950   0.90170   0.25170   0.01267  Uiso   1.00
C86    C     0.89940   0.75990   0.51810   0.01267  Uiso   1.00
C87    C     0.92650   0.89490   0.32510   0.01267  Uiso   1.00
C88    C     0.92720   0.85420   0.07060   0.01267  Uiso   1.00
C89    C     0.03420   0.78660   0.75320   0.01267  Uiso   1.00
C90    C     0.89400   0.93960   0.03400   0.01267  Uiso   1.00
C91    C     0.87320   0.87250   0.28860   0.01267  Uiso   1.00
C92    C     0.79320   0.56200   0.71020   0.01267  Uiso   1.00
C93    C     0.27820   0.27000   0.84390   0.01267  Uiso   1.00
C94    C     0.69590   0.84800   0.75170   0.01267  Uiso   1.00
C95    C     0.87780   0.10100   0.84320   0.01267  Uiso   1.00
C96    C     0.49540   0.84980   0.78360   0.01267  Uiso   1.00
C97    C     0.54860   0.81550   0.74050   0.01267  Uiso   1.00
C98    C     0.87150   0.05860   0.92380   0.01267  Uiso   1.00
C99    C     0.26700   0.47670   0.72940   0.01267  Uiso   1.00
C100   C     0.35510   0.00770   0.03610   0.01267  Uiso   1.00
C101   C     0.12700   0.58890   0.65370   0.01267  Uiso   1.00
C102   C     0.64230   0.88070   0.79480   0.01267  Uiso   1.00
C103   C     0.80820   0.18100   0.92740   0.01267  Uiso   1.00
C104   C     0.79550   0.24930   0.89300   0.01267  Uiso   1.00
C105   C     0.93380   0.85980   0.39840   0.01267  Uiso   1.00
C106   C     0.97090   0.76500   0.81160   0.01267  Uiso   1.00
C107   C     0.83180   0.80960   0.32970   0.01267  Uiso   1.00
C108   C     0.26050   0.86940   0.37420   0.01267  Uiso   1.00
C109   C     0.33920   0.75360   0.48410   0.01267  Uiso   1.00
C110   C     0.28400   0.13790   0.03290   0.01267  Uiso   1.00
C111   C     0.05670   0.88230   0.78250   0.01267  Uiso   1.00
C112   C     0.26050   0.92490   0.29290   0.01267  Uiso   1.00
C113   C     0.04810   0.75120   0.70200   0.01267  Uiso   1.00
C114   C     0.99080   0.85980   0.84120   0.01267  Uiso   1.00
C115   C     0.82750   0.06180   0.03830   0.01267  Uiso   1.00
C116   C     0.14140   0.37850   0.77490   0.01267  Uiso   1.00
C117   C     0.85990   0.94280   0.14950   0.01267  Uiso   1.00
C118   C     0.34350   0.97280   0.11230   0.01267  Uiso   1.00
C119   C     0.49040   0.91760   0.85410   0.01267  Uiso   1.00
C120   C     0.39930   0.82440   0.28710   0.01267  Uiso   1.00
C121   C     0.64770   0.81400   0.72480   0.01267  Uiso   1.00
C122   C     0.40700   0.99620   0.92550   0.01267  Uiso   1.00
C123   C     0.33530   0.12010   0.92150   0.01267  Uiso   1.00
C124   C     0.37460   0.07450   0.88600   0.01267  Uiso   1.00
C125   C     0.33420   0.80640   0.39840   0.01267  Uiso   1.00
C126   C     0.39590   0.96110   0.00190   0.01267  Uiso   1.00
C127   C     0.42650   0.87570   0.04350   0.01267  Uiso   1.00
C128   C     0.85990   0.98260   0.07270   0.01267  Uiso   1.00
C129   C     0.07920   0.84460   0.73960   0.01267  Uiso   1.00
C130   C     0.30460   0.20170   0.88010   0.01267  Uiso   1.00
C131   C     0.39850   0.77860   0.35880   0.01267  Uiso   1.00
C132   C     0.38540   0.11060   0.80520   0.01267  Uiso   1.00
C133   C     0.94870   0.80110   0.85510   0.01267  Uiso   1.00
C134   C     0.10590   0.45400   0.73010   0.01267  Uiso   1.00
C135   C     0.72730   0.44690   0.74710   0.01267  Uiso   1.00
C136   C     0.93630   0.93710   0.91700   0.01267  Uiso   1.00
C137   C     0.84090   0.77340   0.40460   0.01267  Uiso   1.00
C138   C     0.72650   0.37180   0.79210   0.01267  Uiso   1.00
C139   C     0.85740   0.36320   0.86120   0.01267  Uiso   1.00
C140   C     0.70780   0.77570   0.67920   0.01267  Uiso   1.00
C141   C     0.45100   0.95080   0.88990   0.01267  Uiso   1.00
C142   C     0.96170   0.90280   0.88370   0.01267  Uiso   1.00
C143   C     0.85810   0.43680   0.81700   0.01267  Uiso   1.00
C144   C     0.89170   0.79890   0.43840   0.01267  Uiso   1.00
O13    O     0.65770   0.75580   0.64960   0.01267  Uiso   1.00
O14    O     0.27420   0.76940   0.52130   0.01267  Uiso   1.00
O15    O     0.09940   0.77830   0.64660   0.01267  Uiso   1.00
O16    O     0.03720   0.60790   0.63630   0.01267  Uiso   1.00
O17    O     0.73770   0.59460   0.65680   0.01267  Uiso   1.00
O18    O     0.84430   0.71330   0.55420   0.01267  Uiso   1.00
O19    O     0.95760   0.77340   0.54880   0.01267  Uiso   1.00
O20    O     0.41770   0.69780   0.50540   0.01267  Uiso   1.00
O21    O     0.85020   0.59020   0.72580   0.01267  Uiso   1.00
O22    O     0.00970   0.69580   0.71980   0.01267  Uiso   1.00
O23    O     0.18660   0.63110   0.62990   0.01267  Uiso   1.00
O24    O     0.79880   0.76750   0.67540   0.01267  Uiso   1.00
