data_XOVPON_clean
_audit_creation_date              2014-07-02
_audit_creation_method            'Materials Studio'
_symmetry_space_group_name_H-M    'P1'
_symmetry_Int_Tables_number       1
_symmetry_cell_setting            triclinic
loop_
_symmetry_equiv_pos_as_xyz
  x,y,z
_cell_length_a                    8.6842
_cell_length_b                    9.9420
_cell_length_c                    11.7330
_cell_angle_alpha                 74.6700
_cell_angle_beta                  69.8500
_cell_angle_gamma                 86.0200
loop_
_atom_site_label
_atom_site_type_symbol
_atom_site_fract_x
_atom_site_fract_y
_atom_site_fract_z
_atom_site_U_iso_or_equiv
_atom_site_adp_type
_atom_site_occupancy
Ce1    Ce    0.74555   0.47777   0.51191   0.01267  Uiso   1.00
Ce2    Ce    0.25445   0.52223   0.48809   0.01267  Uiso   1.00
H1     H     0.20460   0.46200   0.83880   0.01267  Uiso   1.00
H2     H     0.23120   0.30090   0.86340   0.01267  Uiso   1.00
H3     H     0.37630   0.30720   0.99230   0.01267  Uiso   1.00
H4     H     0.37780   0.47060   0.95680   0.01267  Uiso   1.00
H5     H     0.09410   0.29900   0.10330   0.01267  Uiso   1.00
H6     H     0.08720   0.46200   0.06100   0.01267  Uiso   1.00
H7     H     0.26650   0.47220   0.17260   0.01267  Uiso   1.00
H8     H     0.24250   0.31080   0.22620   0.01267  Uiso   1.00
H9     H     0.97840   0.87650   0.59780   0.01267  Uiso   1.00
H10    H     0.03670   0.01980   0.60290   0.01267  Uiso   1.00
H11    H     0.75620   0.98170   0.72030   0.01267  Uiso   1.00
H12    H     0.72010   0.96760   0.60190   0.01267  Uiso   1.00
H13    H     0.79540   0.53800   0.16120   0.01267  Uiso   1.00
H14    H     0.76880   0.69910   0.13660   0.01267  Uiso   1.00
H15    H     0.62370   0.69280   0.00770   0.01267  Uiso   1.00
H16    H     0.62220   0.52940   0.04320   0.01267  Uiso   1.00
H17    H     0.90590   0.70100   0.89670   0.01267  Uiso   1.00
H18    H     0.91280   0.53800   0.93900   0.01267  Uiso   1.00
H19    H     0.73350   0.52780   0.82740   0.01267  Uiso   1.00
H20    H     0.75750   0.68920   0.77380   0.01267  Uiso   1.00
H21    H     0.02160   0.12350   0.40220   0.01267  Uiso   1.00
H22    H     0.96330   0.98020   0.39710   0.01267  Uiso   1.00
H23    H     0.24380   0.01830   0.27970   0.01267  Uiso   1.00
H24    H     0.27990   0.03240   0.39810   0.01267  Uiso   1.00
C1     C     0.43100   0.41330   0.74030   0.01267  Uiso   1.00
C2     C     0.28170   0.38950   0.85260   0.01267  Uiso   1.00
C3     C     0.31270   0.38820   0.97150   0.01267  Uiso   1.00
C4     C     0.15500   0.38510   0.08380   0.01267  Uiso   1.00
C5     C     0.18870   0.39540   0.19780   0.01267  Uiso   1.00
C6     C     0.04760   0.41590   0.30690   0.01267  Uiso   1.00
C7     C     0.96840   0.97680   0.57140   0.01267  Uiso   1.00
C8     C     0.78930   0.01460   0.62960   0.01267  Uiso   1.00
C9     C     0.76360   0.17090   0.59390   0.01267  Uiso   1.00
C10    C     0.56900   0.58670   0.25970   0.01267  Uiso   1.00
C11    C     0.71830   0.61050   0.14740   0.01267  Uiso   1.00
C12    C     0.68730   0.61180   0.02850   0.01267  Uiso   1.00
C13    C     0.84500   0.61490   0.91620   0.01267  Uiso   1.00
C14    C     0.81130   0.60460   0.80220   0.01267  Uiso   1.00
C15    C     0.95240   0.58410   0.69310   0.01267  Uiso   1.00
C16    C     0.03160   0.02320   0.42860   0.01267  Uiso   1.00
C17    C     0.21070   0.98540   0.37040   0.01267  Uiso   1.00
C18    C     0.23640   0.82910   0.40610   0.01267  Uiso   1.00
O1     O     0.42440   0.45520   0.62800   0.01267  Uiso   1.00
O2     O     0.57430   0.39240   0.74840   0.01267  Uiso   1.00
O3     O     0.90180   0.38370   0.31580   0.01267  Uiso   1.00
O4     O     0.06550   0.46570   0.38930   0.01267  Uiso   1.00
O5     O     0.86210   0.25200   0.59970   0.01267  Uiso   1.00
O6     O     0.64250   0.21660   0.56010   0.01267  Uiso   1.00
O7     O     0.57560   0.54480   0.37200   0.01267  Uiso   1.00
O8     O     0.42570   0.60760   0.25160   0.01267  Uiso   1.00
O9     O     0.09820   0.61630   0.68420   0.01267  Uiso   1.00
O10    O     0.93450   0.53430   0.61070   0.01267  Uiso   1.00
O11    O     0.13790   0.74800   0.40030   0.01267  Uiso   1.00
O12    O     0.35750   0.78340   0.43990   0.01267  Uiso   1.00
