data_XOVPIH_clean
_audit_creation_date              2014-07-02
_audit_creation_method            'Materials Studio'
_symmetry_space_group_name_H-M    'P1'
_symmetry_Int_Tables_number       1
_symmetry_cell_setting            triclinic
loop_
_symmetry_equiv_pos_as_xyz
  x,y,z
_cell_length_a                    9.2275
_cell_length_b                    9.7710
_cell_length_c                    10.6990
_cell_angle_alpha                 67.8100
_cell_angle_beta                  84.4900
_cell_angle_gamma                 61.8400
loop_
_atom_site_label
_atom_site_type_symbol
_atom_site_fract_x
_atom_site_fract_y
_atom_site_fract_z
_atom_site_U_iso_or_equiv
_atom_site_adp_type
_atom_site_occupancy
Ce1    Ce    0.72285   0.04384   0.98314   0.01267  Uiso   1.00
Ce2    Ce    0.27715   0.95616   0.01686   0.01267  Uiso   1.00
H1     H     0.10120   0.44900   0.13300   0.01267  Uiso   1.00
H2     H     0.06630   0.46070   0.27580   0.01267  Uiso   1.00
H3     H     0.88010   0.39700   0.13020   0.01267  Uiso   1.00
H4     H     0.82810   0.42600   0.26590   0.01267  Uiso   1.00
H5     H     0.13200   0.16190   0.24810   0.01267  Uiso   1.00
H6     H     0.07360   0.18890   0.38320   0.01267  Uiso   1.00
H7     H     0.85970   0.12690   0.37030   0.01267  Uiso   1.00
H8     H     0.03330   0.97500   0.37920   0.01267  Uiso   1.00
H9     H     0.32980   0.09670   0.65120   0.01267  Uiso   1.00
H10    H     0.38330   0.23110   0.56060   0.01267  Uiso   1.00
H11    H     0.58700   0.88120   0.62770   0.01267  Uiso   1.00
H12    H     0.63280   0.01900   0.53150   0.01267  Uiso   1.00
H13    H     0.89880   0.55100   0.86700   0.01267  Uiso   1.00
H14    H     0.93370   0.53930   0.72420   0.01267  Uiso   1.00
H15    H     0.11990   0.60300   0.86980   0.01267  Uiso   1.00
H16    H     0.17190   0.57400   0.73410   0.01267  Uiso   1.00
H17    H     0.86800   0.83810   0.75190   0.01267  Uiso   1.00
H18    H     0.92640   0.81110   0.61680   0.01267  Uiso   1.00
H19    H     0.14030   0.87310   0.62970   0.01267  Uiso   1.00
H20    H     0.96670   0.02500   0.62080   0.01267  Uiso   1.00
H21    H     0.67020   0.90330   0.34880   0.01267  Uiso   1.00
H22    H     0.61670   0.76890   0.43940   0.01267  Uiso   1.00
H23    H     0.41300   0.11880   0.37230   0.01267  Uiso   1.00
H24    H     0.36720   0.98100   0.46850   0.01267  Uiso   1.00
C1     C     0.90600   0.67270   0.12270   0.01267  Uiso   1.00
C2     C     0.01430   0.48510   0.19000   0.01267  Uiso   1.00
C3     C     0.92160   0.38420   0.21600   0.01267  Uiso   1.00
C4     C     0.03580   0.20040   0.29650   0.01267  Uiso   1.00
C5     C     0.95580   0.08860   0.32180   0.01267  Uiso   1.00
C6     C     0.90340   0.08670   0.19310   0.01267  Uiso   1.00
C7     C     0.51060   0.09450   0.74890   0.01267  Uiso   1.00
C8     C     0.42380   0.11670   0.62570   0.01267  Uiso   1.00
C9     C     0.54170   0.99480   0.56040   0.01267  Uiso   1.00
C10    C     0.09400   0.32730   0.87730   0.01267  Uiso   1.00
C11    C     0.98570   0.51490   0.81000   0.01267  Uiso   1.00
C12    C     0.07840   0.61580   0.78400   0.01267  Uiso   1.00
C13    C     0.96420   0.79960   0.70350   0.01267  Uiso   1.00
C14    C     0.04420   0.91140   0.67820   0.01267  Uiso   1.00
C15    C     0.09660   0.91330   0.80690   0.01267  Uiso   1.00
C16    C     0.48940   0.90550   0.25110   0.01267  Uiso   1.00
C17    C     0.57620   0.88330   0.37430   0.01267  Uiso   1.00
C18    C     0.45830   0.00520   0.43960   0.01267  Uiso   1.00
O1     O     0.92150   0.76770   0.17120   0.01267  Uiso   1.00
O2     O     0.80710   0.73450   0.02150   0.01267  Uiso   1.00
O3     O     0.75710   0.11960   0.17260   0.01267  Uiso   1.00
O4     O     0.00820   0.05000   0.11100   0.01267  Uiso   1.00
O5     O     0.62580   0.13390   0.73510   0.01267  Uiso   1.00
O6     O     0.47480   0.03200   0.86600   0.01267  Uiso   1.00
O7     O     0.07850   0.23230   0.82880   0.01267  Uiso   1.00
O8     O     0.19290   0.26550   0.97850   0.01267  Uiso   1.00
O9     O     0.24290   0.88040   0.82740   0.01267  Uiso   1.00
O10    O     0.99180   0.95000   0.88900   0.01267  Uiso   1.00
O11    O     0.37420   0.86610   0.26490   0.01267  Uiso   1.00
O12    O     0.52520   0.96800   0.13400   0.01267  Uiso   1.00
