data_XOVVIO_clean
_audit_creation_date              2014-07-02
_audit_creation_method            'Materials Studio'
_symmetry_space_group_name_H-M    'P1'
_symmetry_Int_Tables_number       1
_symmetry_cell_setting            triclinic
loop_
_symmetry_equiv_pos_as_xyz
  x,y,z
_cell_length_a                    9.9240
_cell_length_b                    11.7380
_cell_length_c                    15.2030
_cell_angle_alpha                 94.7700
_cell_angle_beta                  98.9400
_cell_angle_gamma                 112.6200
loop_
_atom_site_label
_atom_site_type_symbol
_atom_site_fract_x
_atom_site_fract_y
_atom_site_fract_z
_atom_site_U_iso_or_equiv
_atom_site_adp_type
_atom_site_occupancy
Zn1    Zn    0.98544   0.06757   0.79206   0.01267  Uiso   1.00
Zn2    Zn    0.44328   0.10860   0.56835   0.01267  Uiso   1.00
Zn3    Zn    0.11375   0.81516   0.83346   0.01267  Uiso   1.00
Zn4    Zn    0.01456   0.93243   0.20794   0.01267  Uiso   1.00
Zn5    Zn    0.55672   0.89140   0.43165   0.01267  Uiso   1.00
Zn6    Zn    0.88625   0.18484   0.16654   0.01267  Uiso   1.00
Zn7    Zn    0.50000   0.00000   0.00000   0.01267  Uiso   1.00
H1     H     0.76980   0.53680   0.94010   0.01267  Uiso   1.00
H2     H     0.26280   0.66870   0.59050   0.01267  Uiso   1.00
H3     H     0.68180   0.96510   0.85550   0.01267  Uiso   1.00
H4     H     0.06340   0.17720   0.00920   0.01267  Uiso   1.00
H5     H     0.71070   0.15280   0.73120   0.01267  Uiso   1.00
H6     H     0.82760   0.93250   0.58870   0.01267  Uiso   1.00
H7     H     0.17310   0.13780   0.63940   0.01267  Uiso   1.00
H8     H     0.35560   0.91190   0.70820   0.01267  Uiso   1.00
H9     H     0.20160   0.49050   0.83270   0.01267  Uiso   1.00
H10    H     0.53400   0.37920   0.89860   0.01267  Uiso   1.00
H11    H     0.62580   0.74580   0.91300   0.01267  Uiso   1.00
H12    H     0.69960   0.50260   0.67500   0.01267  Uiso   1.00
H13    H     0.29560   0.48210   0.56550   0.01267  Uiso   1.00
H14    H     0.60620   0.80390   0.70810   0.01267  Uiso   1.00
H15    H     0.23020   0.46320   0.05990   0.01267  Uiso   1.00
H16    H     0.73720   0.33130   0.40950   0.01267  Uiso   1.00
H17    H     0.31820   0.03490   0.14450   0.01267  Uiso   1.00
H18    H     0.93660   0.82280   0.99080   0.01267  Uiso   1.00
H19    H     0.28930   0.84720   0.26880   0.01267  Uiso   1.00
H20    H     0.17240   0.06750   0.41130   0.01267  Uiso   1.00
H21    H     0.82690   0.86220   0.36060   0.01267  Uiso   1.00
H22    H     0.64440   0.08810   0.29180   0.01267  Uiso   1.00
H23    H     0.79840   0.50950   0.16730   0.01267  Uiso   1.00
H24    H     0.46600   0.62080   0.10140   0.01267  Uiso   1.00
H25    H     0.37420   0.25420   0.08700   0.01267  Uiso   1.00
H26    H     0.30040   0.49740   0.32500   0.01267  Uiso   1.00
H27    H     0.70440   0.51790   0.43450   0.01267  Uiso   1.00
H28    H     0.39380   0.19610   0.29190   0.01267  Uiso   1.00
C1     C     0.75440   0.01470   0.90530   0.01267  Uiso   1.00
C2     C     0.96190   0.12960   0.98850   0.01267  Uiso   1.00
C3     C     0.71290   0.09760   0.68440   0.01267  Uiso   1.00
C4     C     0.77580   0.97820   0.60750   0.01267  Uiso   1.00
C5     C     0.19420   0.07700   0.66680   0.01267  Uiso   1.00
C6     C     0.29330   0.95430   0.70380   0.01267  Uiso   1.00
C7     C     0.34890   0.73470   0.86630   0.01267  Uiso   1.00
C8     C     0.23890   0.28300   0.85250   0.01267  Uiso   1.00
C9     C     0.40490   0.63430   0.87340   0.01267  Uiso   1.00
C10    C     0.30230   0.50970   0.85340   0.01267  Uiso   1.00
C11    C     0.35060   0.41460   0.86440   0.01267  Uiso   1.00
C12    C     0.50130   0.44290   0.89180   0.01267  Uiso   1.00
C13    C     0.60310   0.56650   0.90910   0.01267  Uiso   1.00
C14    C     0.55680   0.66310   0.90070   0.01267  Uiso   1.00
C15    C     0.82850   0.74050   0.75520   0.01267  Uiso   1.00
C16    C     0.44160   0.33600   0.58180   0.01267  Uiso   1.00
C17    C     0.67690   0.66550   0.69930   0.01267  Uiso   1.00
C18    C     0.63290   0.54050   0.66460   0.01267  Uiso   1.00
C19    C     0.49140   0.47260   0.61510   0.01267  Uiso   1.00
C20    C     0.39140   0.52820   0.59910   0.01267  Uiso   1.00
C21    C     0.43510   0.65230   0.63320   0.01267  Uiso   1.00
C22    C     0.57780   0.72060   0.68420   0.01267  Uiso   1.00
C23    C     0.24560   0.98530   0.09470   0.01267  Uiso   1.00
C24    C     0.03810   0.87040   0.01150   0.01267  Uiso   1.00
C25    C     0.28710   0.90240   0.31560   0.01267  Uiso   1.00
C26    C     0.22420   0.02180   0.39250   0.01267  Uiso   1.00
C27    C     0.80580   0.92300   0.33320   0.01267  Uiso   1.00
C28    C     0.70670   0.04570   0.29620   0.01267  Uiso   1.00
C29    C     0.65110   0.26530   0.13370   0.01267  Uiso   1.00
C30    C     0.76110   0.71700   0.14750   0.01267  Uiso   1.00
C31    C     0.59510   0.36570   0.12660   0.01267  Uiso   1.00
C32    C     0.69770   0.49030   0.14660   0.01267  Uiso   1.00
C33    C     0.64940   0.58540   0.13560   0.01267  Uiso   1.00
C34    C     0.49870   0.55710   0.10820   0.01267  Uiso   1.00
C35    C     0.39690   0.43350   0.09090   0.01267  Uiso   1.00
C36    C     0.44320   0.33690   0.09930   0.01267  Uiso   1.00
C37    C     0.17150   0.25950   0.24480   0.01267  Uiso   1.00
C38    C     0.55840   0.66400   0.41820   0.01267  Uiso   1.00
C39    C     0.32310   0.33450   0.30070   0.01267  Uiso   1.00
C40    C     0.36710   0.45950   0.33540   0.01267  Uiso   1.00
C41    C     0.50860   0.52740   0.38490   0.01267  Uiso   1.00
C42    C     0.60860   0.47180   0.40090   0.01267  Uiso   1.00
C43    C     0.56490   0.34770   0.36680   0.01267  Uiso   1.00
C44    C     0.42220   0.27940   0.31580   0.01267  Uiso   1.00
N1     N     0.72380   0.03990   0.98410   0.01267  Uiso   1.00
N2     N     0.90020   0.06750   0.90370   0.01267  Uiso   1.00
N3     N     0.86020   0.11450   0.03840   0.01267  Uiso   1.00
N4     N     0.81640   0.05010   0.68800   0.01267  Uiso   1.00
N5     N     0.61420   0.05750   0.60750   0.01267  Uiso   1.00
N6     N     0.65640   0.97840   0.55790   0.01267  Uiso   1.00
N7     N     0.12130   0.01750   0.72570   0.01267  Uiso   1.00
N8     N     0.18560   0.93560   0.74990   0.01267  Uiso   1.00
N9     N     0.30250   0.04090   0.65010   0.01267  Uiso   1.00
N10    N     0.27620   0.96010   0.01590   0.01267  Uiso   1.00
N11    N     0.09980   0.93250   0.09630   0.01267  Uiso   1.00
N12    N     0.13980   0.88550   0.96160   0.01267  Uiso   1.00
N13    N     0.18360   0.94990   0.31200   0.01267  Uiso   1.00
N14    N     0.38580   0.94250   0.39250   0.01267  Uiso   1.00
N15    N     0.34360   0.02160   0.44210   0.01267  Uiso   1.00
N16    N     0.87870   0.98250   0.27430   0.01267  Uiso   1.00
N17    N     0.81440   0.06440   0.25010   0.01267  Uiso   1.00
N18    N     0.69750   0.95910   0.34990   0.01267  Uiso   1.00
O1     O     0.43420   0.84840   0.88860   0.01267  Uiso   1.00
O2     O     0.20860   0.69750   0.83680   0.01267  Uiso   1.00
O3     O     0.10800   0.25520   0.80540   0.01267  Uiso   1.00
O4     O     0.27120   0.20170   0.88860   0.01267  Uiso   1.00
O5     O     0.75360   0.59980   0.93620   0.01267  Uiso   1.00
O6     O     0.86430   0.84870   0.79080   0.01267  Uiso   1.00
O7     O     0.92100   0.68690   0.76470   0.01267  Uiso   1.00
O8     O     0.53990   0.28930   0.59850   0.01267  Uiso   1.00
O9     O     0.31170   0.27080   0.54200   0.01267  Uiso   1.00
O10    O     0.34440   0.71580   0.62100   0.01267  Uiso   1.00
O11    O     0.56580   0.15160   0.11140   0.01267  Uiso   1.00
O12    O     0.79140   0.30250   0.16320   0.01267  Uiso   1.00
O13    O     0.89200   0.74480   0.19460   0.01267  Uiso   1.00
O14    O     0.72880   0.79830   0.11140   0.01267  Uiso   1.00
O15    O     0.24640   0.40020   0.06380   0.01267  Uiso   1.00
O16    O     0.13570   0.15130   0.20920   0.01267  Uiso   1.00
O17    O     0.07900   0.31310   0.23530   0.01267  Uiso   1.00
O18    O     0.46010   0.71070   0.40150   0.01267  Uiso   1.00
O19    O     0.68830   0.72920   0.45800   0.01267  Uiso   1.00
O20    O     0.65560   0.28420   0.37900   0.01267  Uiso   1.00
