data_XOVVEK_clean
_audit_creation_date              2014-07-02
_audit_creation_method            'Materials Studio'
_symmetry_space_group_name_H-M    'P1'
_symmetry_Int_Tables_number       1
_symmetry_cell_setting            triclinic
loop_
_symmetry_equiv_pos_as_xyz
  x,y,z
_cell_length_a                    9.7580
_cell_length_b                    11.8900
_cell_length_c                    15.2200
_cell_angle_alpha                 95.5440
_cell_angle_beta                  99.0680
_cell_angle_gamma                 112.8740
loop_
_atom_site_label
_atom_site_type_symbol
_atom_site_fract_x
_atom_site_fract_y
_atom_site_fract_z
_atom_site_U_iso_or_equiv
_atom_site_adp_type
_atom_site_occupancy
Zn1    Zn    0.00986   0.92810   0.20549   0.01267  Uiso   1.00
Zn2    Zn    0.55713   0.89077   0.43142   0.01267  Uiso   1.00
Zn3    Zn    0.10884   0.81187   0.83079   0.01267  Uiso   1.00
Zn4    Zn    0.99014   0.07190   0.79451   0.01267  Uiso   1.00
Zn5    Zn    0.44287   0.10923   0.56858   0.01267  Uiso   1.00
Zn6    Zn    0.89116   0.18813   0.16921   0.01267  Uiso   1.00
Zn7    Zn    0.50000   0.00000  -0.00000   0.01267  Uiso   1.00
H1     H     0.31630   0.03380   0.14350   0.01267  Uiso   1.00
H2     H     0.92700   0.82330   0.98710   0.01267  Uiso   1.00
H3     H     0.82260   0.86340   0.35580   0.01267  Uiso   1.00
H4     H     0.65050   0.09620   0.29700   0.01267  Uiso   1.00
H5     H     0.27680   0.83520   0.27200   0.01267  Uiso   1.00
H6     H     0.18010   0.07830   0.40460   0.01267  Uiso   1.00
H7     H     0.80230   0.51040   0.16550   0.01267  Uiso   1.00
H8     H     0.45610   0.61120   0.10030   0.01267  Uiso   1.00
H9     H     0.28400   0.40530   0.07530   0.01267  Uiso   1.00
H10    H     0.37510   0.25040   0.08540   0.01267  Uiso   1.00
H11    H     0.30730   0.49480   0.32400   0.01267  Uiso   1.00
H12    H     0.72330   0.53830   0.44450   0.01267  Uiso   1.00
H13    H     0.66540   0.33440   0.39150   0.01267  Uiso   1.00
H14    H     0.43050   0.21110   0.30130   0.01267  Uiso   1.00
H15    H     0.68370   0.96620   0.85650   0.01267  Uiso   1.00
H16    H     0.07300   0.17670   0.01290   0.01267  Uiso   1.00
H17    H     0.17740   0.13660   0.64420   0.01267  Uiso   1.00
H18    H     0.34950   0.90380   0.70300   0.01267  Uiso   1.00
H19    H     0.72320   0.16480   0.72800   0.01267  Uiso   1.00
H20    H     0.81990   0.92170   0.59540   0.01267  Uiso   1.00
H21    H     0.19770   0.48960   0.83450   0.01267  Uiso   1.00
H22    H     0.54390   0.38880   0.89970   0.01267  Uiso   1.00
H23    H     0.71600   0.59470   0.92470   0.01267  Uiso   1.00
H24    H     0.62490   0.74960   0.91460   0.01267  Uiso   1.00
H25    H     0.69270   0.50520   0.67600   0.01267  Uiso   1.00
H26    H     0.27670   0.46170   0.55550   0.01267  Uiso   1.00
H27    H     0.33460   0.66560   0.60850   0.01267  Uiso   1.00
H28    H     0.56950   0.78890   0.69870   0.01267  Uiso   1.00
C1     C     0.24240   0.98450   0.09300   0.01267  Uiso   1.00
C2     C     0.03070   0.87040   0.00860   0.01267  Uiso   1.00
C3     C     0.80320   0.92530   0.33050   0.01267  Uiso   1.00
C4     C     0.71040   0.05150   0.29860   0.01267  Uiso   1.00
C5     C     0.27990   0.89550   0.31690   0.01267  Uiso   1.00
C6     C     0.22730   0.02700   0.38910   0.01267  Uiso   1.00
C7     C     0.65690   0.26750   0.13560   0.01267  Uiso   1.00
C8     C     0.75990   0.71370   0.14790   0.01267  Uiso   1.00
C9     C     0.59870   0.36650   0.12680   0.01267  Uiso   1.00
C10    C     0.69900   0.48940   0.14530   0.01267  Uiso   1.00
C11    C     0.64870   0.58260   0.13430   0.01267  Uiso   1.00
C12    C     0.49130   0.54960   0.10740   0.01267  Uiso   1.00
C13    C     0.38800   0.42630   0.09110   0.01267  Uiso   1.00
C14    C     0.44270   0.33350   0.09880   0.01267  Uiso   1.00
C15    C     0.18920   0.25880   0.24620   0.01267  Uiso   1.00
C16    C     0.56670   0.67350   0.41710   0.01267  Uiso   1.00
C17    C     0.34360   0.34120   0.30340   0.01267  Uiso   1.00
C18    C     0.38010   0.46290   0.33600   0.01267  Uiso   1.00
C19    C     0.52390   0.53940   0.38680   0.01267  Uiso   1.00
C20    C     0.62810   0.48870   0.40820   0.01267  Uiso   1.00
C21    C     0.59380   0.36700   0.37690   0.01267  Uiso   1.00
C22    C     0.45330   0.29330   0.32390   0.01267  Uiso   1.00
C23    C     0.75760   0.01550   0.90700   0.01267  Uiso   1.00
C24    C     0.96930   0.12960   0.99140   0.01267  Uiso   1.00
C25    C     0.19680   0.07470   0.66950   0.01267  Uiso   1.00
C26    C     0.28960   0.94850   0.70140   0.01267  Uiso   1.00
C27    C     0.72010   0.10450   0.68310   0.01267  Uiso   1.00
C28    C     0.77270   0.97300   0.61090   0.01267  Uiso   1.00
C29    C     0.34310   0.73250   0.86440   0.01267  Uiso   1.00
C30    C     0.24010   0.28630   0.85210   0.01267  Uiso   1.00
C31    C     0.40130   0.63350   0.87320   0.01267  Uiso   1.00
C32    C     0.30100   0.51060   0.85470   0.01267  Uiso   1.00
C33    C     0.35130   0.41740   0.86570   0.01267  Uiso   1.00
C34    C     0.50870   0.45040   0.89260   0.01267  Uiso   1.00
C35    C     0.61200   0.57370   0.90890   0.01267  Uiso   1.00
C36    C     0.55730   0.66650   0.90120   0.01267  Uiso   1.00
C37    C     0.81080   0.74120   0.75380   0.01267  Uiso   1.00
C38    C     0.43330   0.32650   0.58290   0.01267  Uiso   1.00
C39    C     0.65640   0.65880   0.69660   0.01267  Uiso   1.00
C40    C     0.61990   0.53710   0.66400   0.01267  Uiso   1.00
C41    C     0.47610   0.46060   0.61320   0.01267  Uiso   1.00
C42    C     0.37190   0.51130   0.59180   0.01267  Uiso   1.00
C43    C     0.40620   0.63300   0.62310   0.01267  Uiso   1.00
C44    C     0.54670   0.70670   0.67610   0.01267  Uiso   1.00
N1     N     0.27460   0.96100   0.01420   0.01267  Uiso   1.00
N2     N     0.13410   0.88540   0.95850   0.01267  Uiso   1.00
N3     N     0.09290   0.93080   0.09380   0.01267  Uiso   1.00
N4     N     0.87770   0.98520   0.27150   0.01267  Uiso   1.00
N5     N     0.81600   0.06780   0.25140   0.01267  Uiso   1.00
N6     N     0.69820   0.96320   0.34960   0.01267  Uiso   1.00
N7     N     0.38190   0.93810   0.39390   0.01267  Uiso   1.00
N8     N     0.34570   0.02380   0.44190   0.01267  Uiso   1.00
N9     N     0.18220   0.94840   0.31060   0.01267  Uiso   1.00
N10    N     0.72540   0.03900   0.98580   0.01267  Uiso   1.00
N11    N     0.86590   0.11460   0.04150   0.01267  Uiso   1.00
N12    N     0.90710   0.06920   0.90620   0.01267  Uiso   1.00
N13    N     0.12230   0.01480   0.72850   0.01267  Uiso   1.00
N14    N     0.18400   0.93220   0.74860   0.01267  Uiso   1.00
N15    N     0.30180   0.03680   0.65040   0.01267  Uiso   1.00
N16    N     0.61810   0.06190   0.60610   0.01267  Uiso   1.00
N17    N     0.65430   0.97620   0.55810   0.01267  Uiso   1.00
N18    N     0.81780   0.05160   0.68940   0.01267  Uiso   1.00
O1     O     0.57240   0.15630   0.11120   0.01267  Uiso   1.00
O2     O     0.80020   0.30750   0.16760   0.01267  Uiso   1.00
O3     O     0.89180   0.74320   0.19690   0.01267  Uiso   1.00
O4     O     0.72790   0.79130   0.10850   0.01267  Uiso   1.00
O5     O     0.15730   0.15030   0.21740   0.01267  Uiso   1.00
O6     O     0.09590   0.30950   0.22740   0.01267  Uiso   1.00
O7     O     0.46070   0.71170   0.39470   0.01267  Uiso   1.00
O8     O     0.69380   0.74420   0.46030   0.01267  Uiso   1.00
O9     O     0.42760   0.84370   0.88880   0.01267  Uiso   1.00
O10    O     0.19980   0.69250   0.83240   0.01267  Uiso   1.00
O11    O     0.10820   0.25680   0.80310   0.01267  Uiso   1.00
O12    O     0.27210   0.20870   0.89150   0.01267  Uiso   1.00
O13    O     0.84270   0.84970   0.78260   0.01267  Uiso   1.00
O14    O     0.90410   0.69050   0.77260   0.01267  Uiso   1.00
O15    O     0.53930   0.28830   0.60530   0.01267  Uiso   1.00
O16    O     0.30620   0.25580   0.53970   0.01267  Uiso   1.00
