data_XOVVOU_clean
_audit_creation_date              2014-07-02
_audit_creation_method            'Materials Studio'
_symmetry_space_group_name_H-M    'P1'
_symmetry_Int_Tables_number       1
_symmetry_cell_setting            triclinic
loop_
_symmetry_equiv_pos_as_xyz
  x,y,z
_cell_length_a                    13.7326
_cell_length_b                    13.7326
_cell_length_c                    14.0822
_cell_angle_alpha                 87.4810
_cell_angle_beta                  87.4810
_cell_angle_gamma                 60.1379
loop_
_atom_site_label
_atom_site_type_symbol
_atom_site_fract_x
_atom_site_fract_y
_atom_site_fract_z
_atom_site_U_iso_or_equiv
_atom_site_adp_type
_atom_site_occupancy
Zn1    Zn    0.53797   0.84635   0.01279   0.01267  Uiso   1.00
Zn2    Zn    0.56112   0.02332   0.38988   0.01267  Uiso   1.00
Zn3    Zn    0.15365   0.46203   0.48721   0.01267  Uiso   1.00
Zn4    Zn    0.97668   0.43888   0.11012   0.01267  Uiso   1.00
Zn5    Zn    0.46203   0.15365   0.98721   0.01267  Uiso   1.00
Zn6    Zn    0.43888   0.97668   0.61012   0.01267  Uiso   1.00
Zn7    Zn    0.84635   0.53797   0.51279   0.01267  Uiso   1.00
Zn8    Zn    0.02332   0.56112   0.88988   0.01267  Uiso   1.00
H1     H     0.55880   0.85180   0.23620   0.01267  Uiso   1.00
H2     H     0.45420   0.17060   0.20760   0.01267  Uiso   1.00
H3     H     0.38150   0.28550   0.38450   0.01267  Uiso   1.00
H4     H     0.24050   0.23090   0.60870   0.01267  Uiso   1.00
H5     H     0.89210   0.94970   0.31130   0.01267  Uiso   1.00
H6     H     0.14820   0.44120   0.26380   0.01267  Uiso   1.00
H7     H     0.82940   0.54580   0.29240   0.01267  Uiso   1.00
H8     H     0.71450   0.61850   0.11550   0.01267  Uiso   1.00
H9     H     0.76910   0.75950   0.89130   0.01267  Uiso   1.00
H10    H     0.05030   0.10790   0.18870   0.01267  Uiso   1.00
H11    H     0.44120   0.14820   0.76380   0.01267  Uiso   1.00
H12    H     0.54580   0.82940   0.79240   0.01267  Uiso   1.00
H13    H     0.61850   0.71450   0.61550   0.01267  Uiso   1.00
H14    H     0.75950   0.76910   0.39130   0.01267  Uiso   1.00
H15    H     0.10790   0.05030   0.68870   0.01267  Uiso   1.00
H16    H     0.85180   0.55880   0.73620   0.01267  Uiso   1.00
H17    H     0.17060   0.45420   0.70760   0.01267  Uiso   1.00
H18    H     0.28550   0.38150   0.88450   0.01267  Uiso   1.00
H19    H     0.23090   0.24050   0.10870   0.01267  Uiso   1.00
H20    H     0.94970   0.89210   0.81130   0.01267  Uiso   1.00
H21    H     0.71970   0.28030   0.25000   0.01267  Uiso   1.00
H22    H     0.28030   0.71970   0.75000   0.01267  Uiso   1.00
C1     C     0.53310   0.92350   0.21000   0.01267  Uiso   1.00
C2     C     0.47690   0.09650   0.19400   0.01267  Uiso   1.00
C3     C     0.36780   0.25020   0.43700   0.01267  Uiso   1.00
C4     C     0.29100   0.22100   0.55870   0.01267  Uiso   1.00
C5     C     0.78870   0.11630   0.28440   0.01267  Uiso   1.00
C6     C     0.88920   0.01500   0.28640   0.01267  Uiso   1.00
C7     C     0.68290   0.11850   0.32030   0.01267  Uiso   1.00
C8     C     0.07650   0.46690   0.29000   0.01267  Uiso   1.00
C9     C     0.90350   0.52310   0.30600   0.01267  Uiso   1.00
C10    C     0.74980   0.63220   0.06300   0.01267  Uiso   1.00
C11    C     0.77900   0.70900   0.94130   0.01267  Uiso   1.00
C12    C     0.88370   0.21130   0.21560   0.01267  Uiso   1.00
C13    C     0.98500   0.11080   0.21360   0.01267  Uiso   1.00
C14    C     0.88150   0.31710   0.17970   0.01267  Uiso   1.00
C15    C     0.46690   0.07650   0.79000   0.01267  Uiso   1.00
C16    C     0.52310   0.90350   0.80600   0.01267  Uiso   1.00
C17    C     0.63220   0.74980   0.56300   0.01267  Uiso   1.00
C18    C     0.70900   0.77900   0.44130   0.01267  Uiso   1.00
C19    C     0.21130   0.88370   0.71560   0.01267  Uiso   1.00
C20    C     0.11080   0.98500   0.71360   0.01267  Uiso   1.00
C21    C     0.31710   0.88150   0.67970   0.01267  Uiso   1.00
C22    C     0.92350   0.53310   0.71000   0.01267  Uiso   1.00
C23    C     0.09650   0.47690   0.69400   0.01267  Uiso   1.00
C24    C     0.25020   0.36780   0.93700   0.01267  Uiso   1.00
C25    C     0.22100   0.29100   0.05870   0.01267  Uiso   1.00
C26    C     0.11630   0.78870   0.78440   0.01267  Uiso   1.00
C27    C     0.01500   0.88920   0.78640   0.01267  Uiso   1.00
C28    C     0.11850   0.68290   0.82030   0.01267  Uiso   1.00
C29    C     0.78720   0.21280   0.25000   0.01267  Uiso   1.00
C30    C     0.98560   0.01440   0.25000   0.01267  Uiso   1.00
C31    C     0.21280   0.78720   0.75000   0.01267  Uiso   1.00
C32    C     0.01440   0.98560   0.75000   0.01267  Uiso   1.00
N1     N     0.51300   0.94920   0.11810   0.01267  Uiso   1.00
N2     N     0.47790   0.06190   0.10750   0.01267  Uiso   1.00
N3     N     0.51230   0.01270   0.26050   0.01267  Uiso   1.00
N4     N     0.43367   0.14387   0.46170   0.01267  Uiso   1.00
N5     N     0.38440   0.12380   0.54140   0.01267  Uiso   1.00
N6     N     0.27820   0.30140   0.49670   0.01267  Uiso   1.00
N7     N     0.05080   0.48700   0.38190   0.01267  Uiso   1.00
N8     N     0.93810   0.52210   0.39250   0.01267  Uiso   1.00
N9     N     0.98730   0.48770   0.23950   0.01267  Uiso   1.00
N10    N     0.85613   0.56633   0.03830   0.01267  Uiso   1.00
N11    N     0.87620   0.61560   0.95860   0.01267  Uiso   1.00
N12    N     0.69860   0.72180   0.00330   0.01267  Uiso   1.00
N13    N     0.48700   0.05080   0.88190   0.01267  Uiso   1.00
N14    N     0.52210   0.93810   0.89250   0.01267  Uiso   1.00
N15    N     0.48770   0.98730   0.73950   0.01267  Uiso   1.00
N16    N     0.56633   0.85613   0.53830   0.01267  Uiso   1.00
N17    N     0.61560   0.87620   0.45860   0.01267  Uiso   1.00
N18    N     0.72180   0.69860   0.50330   0.01267  Uiso   1.00
N19    N     0.94920   0.51300   0.61810   0.01267  Uiso   1.00
N20    N     0.06190   0.47790   0.60750   0.01267  Uiso   1.00
N21    N     0.01270   0.51230   0.76050   0.01267  Uiso   1.00
N22    N     0.14387   0.43367   0.96170   0.01267  Uiso   1.00
N23    N     0.12380   0.38440   0.04140   0.01267  Uiso   1.00
N24    N     0.30140   0.27820   0.99670   0.01267  Uiso   1.00
N25    N     0.09230   0.90770   0.25000   0.01267  Uiso   1.00
N26    N     0.90770   0.09230   0.75000   0.01267  Uiso   1.00
O1     O     0.69788   0.02968   0.36480   0.01267  Uiso   1.00
O2     O     0.59033   0.19913   0.30590   0.01267  Uiso   1.00
O3     O     0.17780   0.90980   0.22750   0.01267  Uiso   1.00
O4     O     0.97032   0.30212   0.13520   0.01267  Uiso   1.00
O5     O     0.80087   0.40967   0.19410   0.01267  Uiso   1.00
O6     O     0.09020   0.82220   0.27250   0.01267  Uiso   1.00
O7     O     0.30212   0.97032   0.63520   0.01267  Uiso   1.00
O8     O     0.40967   0.80087   0.69410   0.01267  Uiso   1.00
O9     O     0.82220   0.09020   0.77250   0.01267  Uiso   1.00
O10    O     0.02968   0.69788   0.86480   0.01267  Uiso   1.00
O11    O     0.19913   0.59033   0.80590   0.01267  Uiso   1.00
O12    O     0.90980   0.17780   0.72750   0.01267  Uiso   1.00
