data_XOVXEM_clean
_audit_creation_date              2014-07-02
_audit_creation_method            'Materials Studio'
_symmetry_space_group_name_H-M    'P1'
_symmetry_Int_Tables_number       1
_symmetry_cell_setting            triclinic
loop_
_symmetry_equiv_pos_as_xyz
  x,y,z
_cell_length_a                    11.2320
_cell_length_b                    11.3610
_cell_length_c                    17.0720
_cell_angle_alpha                 97.9500
_cell_angle_beta                  108.8890
_cell_angle_gamma                 91.4090
loop_
_atom_site_label
_atom_site_type_symbol
_atom_site_fract_x
_atom_site_fract_y
_atom_site_fract_z
_atom_site_U_iso_or_equiv
_atom_site_adp_type
_atom_site_occupancy
Cd1    Cd    0.08487   0.22571   0.46080   0.01267  Uiso   1.00
Cd2    Cd    0.78499   0.28570   0.45140   0.01267  Uiso   1.00
Cd3    Cd    0.17571   0.79405   0.95610   0.01267  Uiso   1.00
Cd4    Cd    0.18250   0.86696   0.75010   0.01267  Uiso   1.00
Cd5    Cd    0.25023   0.08766   0.95624   0.01267  Uiso   1.00
Cd6    Cd    0.91513   0.77429   0.53920   0.01267  Uiso   1.00
Cd7    Cd    0.21501   0.71430   0.54860   0.01267  Uiso   1.00
Cd8    Cd    0.82429   0.20595   0.04390   0.01267  Uiso   1.00
Cd9    Cd    0.81750   0.13304   0.24990   0.01267  Uiso   1.00
Cd10   Cd    0.74977   0.91234   0.04376   0.01267  Uiso   1.00
H1     H     0.36340   0.38230   0.84880   0.01267  Uiso   1.00
H2     H     0.43740   0.53030   0.78300   0.01267  Uiso   1.00
H3     H     0.35670   0.49780   0.63580   0.01267  Uiso   1.00
H4     H     0.06680   0.39370   0.85880   0.01267  Uiso   1.00
H5     H     0.00330   0.20310   0.78130   0.01267  Uiso   1.00
H6     H     0.98470   0.17080   0.63890   0.01267  Uiso   1.00
H7     H     0.10060   0.33380   0.11920   0.01267  Uiso   1.00
H8     H     0.16780   0.37380   0.26370   0.01267  Uiso   1.00
H9     H     0.37510   0.33090   0.33760   0.01267  Uiso   1.00
H10    H     0.37450   0.03180   0.36190   0.01267  Uiso   1.00
H11    H     0.50450   0.97100   0.28400   0.01267  Uiso   1.00
H12    H     0.42570   0.94320   0.14010   0.01267  Uiso   1.00
H13    H     0.87740   0.07640   0.40780   0.01267  Uiso   1.00
H14    H     0.35490   0.89160   0.90500   0.01267  Uiso   1.00
H15    H     0.63660   0.61770   0.15120   0.01267  Uiso   1.00
H16    H     0.56260   0.46970   0.21700   0.01267  Uiso   1.00
H17    H     0.64330   0.50220   0.36420   0.01267  Uiso   1.00
H18    H     0.93320   0.60630   0.14120   0.01267  Uiso   1.00
H19    H     0.99670   0.79690   0.21870   0.01267  Uiso   1.00
H20    H     0.01530   0.82920   0.36110   0.01267  Uiso   1.00
H21    H     0.89940   0.66620   0.88080   0.01267  Uiso   1.00
H22    H     0.83220   0.62620   0.73630   0.01267  Uiso   1.00
H23    H     0.62490   0.66910   0.66240   0.01267  Uiso   1.00
H24    H     0.62550   0.96820   0.63810   0.01267  Uiso   1.00
H25    H     0.49550   0.02900   0.71600   0.01267  Uiso   1.00
H26    H     0.57430   0.05680   0.85990   0.01267  Uiso   1.00
H27    H     0.12260   0.92360   0.59220   0.01267  Uiso   1.00
H28    H     0.64510   0.10840   0.09500   0.01267  Uiso   1.00
C1     C     0.29830   0.23370   0.66030   0.01267  Uiso   1.00
C2     C     0.25290   0.11760   0.60070   0.01267  Uiso   1.00
C3     C     0.32360   0.25170   0.74770   0.01267  Uiso   1.00
C4     C     0.28990   0.15420   0.78950   0.01267  Uiso   1.00
C5     C     0.36040   0.36620   0.79330   0.01267  Uiso   1.00
C6     C     0.39340   0.45910   0.75270   0.01267  Uiso   1.00
C7     C     0.35560   0.43590   0.66600   0.01267  Uiso   1.00
C8     C     0.04530   0.55310   0.62550   0.01267  Uiso   1.00
C9     C     0.03960   0.45670   0.67630   0.01267  Uiso   1.00
C10    C     0.06190   0.47690   0.76200   0.01267  Uiso   1.00
C11    C     0.05090   0.38200   0.80120   0.01267  Uiso   1.00
C12    C     0.01570   0.26650   0.75500   0.01267  Uiso   1.00
C13    C     0.99930   0.24740   0.66910   0.01267  Uiso   1.00
C14    C     0.10060   0.59700   0.80690   0.01267  Uiso   1.00
C15    C     0.55820   0.25230   0.28540   0.01267  Uiso   1.00
C16    C     0.42710   0.27850   0.23620   0.01267  Uiso   1.00
C17    C     0.46260   0.23540   0.09370   0.01267  Uiso   1.00
C18    C     0.38470   0.26620   0.15060   0.01267  Uiso   1.00
C19    C     0.18350   0.32310   0.14990   0.01267  Uiso   1.00
C20    C     0.22170   0.34430   0.23550   0.01267  Uiso   1.00
C21    C     0.34660   0.31960   0.27940   0.01267  Uiso   1.00
C22    C     0.12920   0.07810   0.30940   0.01267  Uiso   1.00
C23    C     0.21030   0.02750   0.25830   0.01267  Uiso   1.00
C24    C     0.34300   0.01660   0.30370   0.01267  Uiso   1.00
C25    C     0.42030   0.98270   0.25700   0.01267  Uiso   1.00
C26    C     0.37350   0.96620   0.17120   0.01267  Uiso   1.00
C27    C     0.16940   0.00580   0.17580   0.01267  Uiso   1.00
C28    C     0.03770   0.02320   0.12310   0.01267  Uiso   1.00
C29    C     0.70170   0.76630   0.33970   0.01267  Uiso   1.00
C30    C     0.74710   0.88240   0.39930   0.01267  Uiso   1.00
C31    C     0.67640   0.74830   0.25230   0.01267  Uiso   1.00
C32    C     0.71010   0.84580   0.21050   0.01267  Uiso   1.00
C33    C     0.63960   0.63380   0.20670   0.01267  Uiso   1.00
C34    C     0.60660   0.54090   0.24730   0.01267  Uiso   1.00
C35    C     0.64440   0.56410   0.33400   0.01267  Uiso   1.00
C36    C     0.95470   0.44690   0.37450   0.01267  Uiso   1.00
C37    C     0.96040   0.54330   0.32370   0.01267  Uiso   1.00
C38    C     0.93810   0.52310   0.23800   0.01267  Uiso   1.00
C39    C     0.94910   0.61800   0.19880   0.01267  Uiso   1.00
C40    C     0.98430   0.73350   0.24500   0.01267  Uiso   1.00
C41    C     0.00070   0.75260   0.33090   0.01267  Uiso   1.00
C42    C     0.89940   0.40300   0.19310   0.01267  Uiso   1.00
C43    C     0.44180   0.74770   0.71460   0.01267  Uiso   1.00
C44    C     0.57290   0.72150   0.76380   0.01267  Uiso   1.00
C45    C     0.53740   0.76460   0.90630   0.01267  Uiso   1.00
C46    C     0.61530   0.73380   0.84940   0.01267  Uiso   1.00
C47    C     0.81650   0.67690   0.85010   0.01267  Uiso   1.00
C48    C     0.77830   0.65570   0.76450   0.01267  Uiso   1.00
C49    C     0.65340   0.68040   0.72060   0.01267  Uiso   1.00
C50    C     0.87080   0.92190   0.69060   0.01267  Uiso   1.00
C51    C     0.78970   0.97250   0.74170   0.01267  Uiso   1.00
C52    C     0.65700   0.98340   0.69630   0.01267  Uiso   1.00
C53    C     0.57970   0.01730   0.74300   0.01267  Uiso   1.00
C54    C     0.62650   0.03380   0.82880   0.01267  Uiso   1.00
C55    C     0.83060   0.99420   0.82420   0.01267  Uiso   1.00
C56    C     0.96230   0.97680   0.87690   0.01267  Uiso   1.00
N1     N     0.31740   0.32470   0.62520   0.01267  Uiso   1.00
N2     N     0.00540   0.34370   0.63150   0.01267  Uiso   1.00
N3     N     0.26080   0.28830   0.11070   0.01267  Uiso   1.00
N4     N     0.25410   0.98310   0.13280   0.01267  Uiso   1.00
N5     N     0.68260   0.67530   0.37480   0.01267  Uiso   1.00
N6     N     0.99460   0.65630   0.36850   0.01267  Uiso   1.00
N7     N     0.73920   0.71170   0.88930   0.01267  Uiso   1.00
N8     N     0.74590   0.01690   0.86720   0.01267  Uiso   1.00
O1     O     0.28870   0.30890   0.53940   0.01267  Uiso   1.00
O2     O     0.13890   0.09800   0.56430   0.01267  Uiso   1.00
O3     O     0.33470   0.05010   0.59400   0.01267  Uiso   1.00
O4     O     0.25640   0.05130   0.74430   0.01267  Uiso   1.00
O5     O     0.29730   0.18320   0.86260   0.01267  Uiso   1.00
O6     O     0.98620   0.33060   0.55040   0.01267  Uiso   1.00
O7     O     0.94020   0.60450   0.59630   0.01267  Uiso   1.00
O8     O     0.14060   0.56960   0.60860   0.01267  Uiso   1.00
O9     O     0.11110   0.67980   0.76880   0.01267  Uiso   1.00
O10    O     0.11370   0.61410   0.88810   0.01267  Uiso   1.00
O11    O     0.88930   0.15420   0.39160   0.01267  Uiso   1.00
O12    O     0.22510   0.27240   0.02780   0.01267  Uiso   1.00
O13    O     0.45360   0.12650   0.05830   0.01267  Uiso   1.00
O14    O     0.52890   0.31690   0.08670   0.01267  Uiso   1.00
O15    O     0.62540   0.20700   0.24580   0.01267  Uiso   1.00
O16    O     0.59110   0.28620   0.36150   0.01267  Uiso   1.00
O17    O     0.26530   0.90660   0.88940   0.01267  Uiso   1.00
O18    O     0.96770   0.92420   0.10050   0.01267  Uiso   1.00
O19    O     0.00980   0.12140   0.10600   0.01267  Uiso   1.00
O20    O     0.01440   0.06370   0.27100   0.01267  Uiso   1.00
O21    O     0.18550   0.13370   0.38140   0.01267  Uiso   1.00
O22    O     0.20970   0.97040   0.04720   0.01267  Uiso   1.00
O23    O     0.71130   0.69110   0.46060   0.01267  Uiso   1.00
O24    O     0.86110   0.90200   0.43570   0.01267  Uiso   1.00
O25    O     0.66530   0.94990   0.40600   0.01267  Uiso   1.00
O26    O     0.74360   0.94870   0.25570   0.01267  Uiso   1.00
O27    O     0.70270   0.81680   0.13740   0.01267  Uiso   1.00
O28    O     0.01380   0.66940   0.44960   0.01267  Uiso   1.00
O29    O     0.05980   0.39550   0.40370   0.01267  Uiso   1.00
O30    O     0.85940   0.43040   0.39140   0.01267  Uiso   1.00
O31    O     0.88890   0.32020   0.23120   0.01267  Uiso   1.00
O32    O     0.88630   0.38590   0.11190   0.01267  Uiso   1.00
O33    O     0.11070   0.84580   0.60840   0.01267  Uiso   1.00
O34    O     0.77490   0.72760   0.97220   0.01267  Uiso   1.00
O35    O     0.54640   0.87350   0.94170   0.01267  Uiso   1.00
O36    O     0.47110   0.68310   0.91330   0.01267  Uiso   1.00
O37    O     0.37460   0.79300   0.75420   0.01267  Uiso   1.00
O38    O     0.40890   0.71380   0.63850   0.01267  Uiso   1.00
O39    O     0.73470   0.09340   0.11060   0.01267  Uiso   1.00
O40    O     0.03230   0.07580   0.89950   0.01267  Uiso   1.00
O41    O     0.99020   0.87860   0.89400   0.01267  Uiso   1.00
O42    O     0.98560   0.93630   0.72900   0.01267  Uiso   1.00
O43    O     0.81450   0.86630   0.61860   0.01267  Uiso   1.00
O44    O     0.79030   0.02960   0.95280   0.01267  Uiso   1.00
