data_XOVXAI_clean
_audit_creation_date              2014-07-02
_audit_creation_method            'Materials Studio'
_symmetry_space_group_name_H-M    'P1'
_symmetry_Int_Tables_number       1
_symmetry_cell_setting            triclinic
loop_
_symmetry_equiv_pos_as_xyz
  x,y,z
_cell_length_a                    11.0980
_cell_length_b                    11.1940
_cell_length_c                    16.5870
_cell_angle_alpha                 99.0850
_cell_angle_beta                  109.2960
_cell_angle_gamma                 91.0980
loop_
_atom_site_label
_atom_site_type_symbol
_atom_site_fract_x
_atom_site_fract_y
_atom_site_fract_z
_atom_site_U_iso_or_equiv
_atom_site_adp_type
_atom_site_occupancy
Co1    Co    0.17774   0.86659   0.25096   0.01267  Uiso   1.00
Co2    Co    0.20119   0.70816   0.04874   0.01267  Uiso   1.00
Co3    Co    0.92064   0.76726   0.03597   0.01267  Uiso   1.00
Co4    Co    0.24146   0.08115   0.45632   0.01267  Uiso   1.00
Co5    Co    0.17249   0.80943   0.46057   0.01267  Uiso   1.00
Co6    Co    0.82226   0.13341   0.74904   0.01267  Uiso   1.00
Co7    Co    0.79881   0.29184   0.95126   0.01267  Uiso   1.00
Co8    Co    0.07936   0.23274   0.96403   0.01267  Uiso   1.00
Co9    Co    0.75854   0.91885   0.54368   0.01267  Uiso   1.00
Co10   Co    0.82751   0.19057   0.53943   0.01267  Uiso   1.00
H1     H     0.56860   0.05510   0.35840   0.01267  Uiso   1.00
H2     H     0.49610   0.02700   0.20470   0.01267  Uiso   1.00
H3     H     0.63510   0.97240   0.13730   0.01267  Uiso   1.00
H4     H     0.89080   0.66080   0.36610   0.01267  Uiso   1.00
H5     H     0.80320   0.61930   0.21830   0.01267  Uiso   1.00
H6     H     0.59370   0.67110   0.15400   0.01267  Uiso   1.00
H7     H     0.97730   0.17410   0.14210   0.01267  Uiso   1.00
H8     H     0.00370   0.21710   0.28950   0.01267  Uiso   1.00
H9     H     0.06700   0.41540   0.36500   0.01267  Uiso   1.00
H10    H     0.36520   0.50050   0.15120   0.01267  Uiso   1.00
H11    H     0.43160   0.52290   0.30270   0.01267  Uiso   1.00
H12    H     0.38210   0.36040   0.36070   0.01267  Uiso   1.00
H13    H     0.32690   0.89550   0.40460   0.01267  Uiso   1.00
H14    H     0.12260   0.89800   0.09570   0.01267  Uiso   1.00
H15    H     0.43140   0.94490   0.64160   0.01267  Uiso   1.00
H16    H     0.50390   0.97300   0.79530   0.01267  Uiso   1.00
H17    H     0.36490   0.02760   0.86270   0.01267  Uiso   1.00
H18    H     0.10920   0.33920   0.63390   0.01267  Uiso   1.00
H19    H     0.19680   0.38070   0.78170   0.01267  Uiso   1.00
H20    H     0.40630   0.32890   0.84600   0.01267  Uiso   1.00
H21    H     0.02270   0.82590   0.85790   0.01267  Uiso   1.00
H22    H     0.99630   0.78290   0.71050   0.01267  Uiso   1.00
H23    H     0.93300   0.58460   0.63500   0.01267  Uiso   1.00
H24    H     0.63480   0.49950   0.84880   0.01267  Uiso   1.00
H25    H     0.56840   0.47710   0.69730   0.01267  Uiso   1.00
H26    H     0.61790   0.63960   0.63930   0.01267  Uiso   1.00
H27    H     0.67310   0.10450   0.59540   0.01267  Uiso   1.00
H28    H     0.87740   0.10200   0.90430   0.01267  Uiso   1.00
C1     C     0.62270   0.03250   0.32710   0.01267  Uiso   1.00
C2     C     0.58020   0.01570   0.23650   0.01267  Uiso   1.00
C3     C     0.66450   0.98300   0.19760   0.01267  Uiso   1.00
C4     C     0.78890   0.96340   0.23620   0.01267  Uiso   1.00
C5     C     0.83650   0.98700   0.32470   0.01267  Uiso   1.00
C6     C     0.96750   0.97360   0.37990   0.01267  Uiso   1.00
C7     C     0.87910   0.91300   0.19080   0.01267  Uiso   1.00
C8     C     0.80590   0.67630   0.34010   0.01267  Uiso   1.00
C9     C     0.75590   0.65320   0.25200   0.01267  Uiso   1.00
C10    C     0.62960   0.68270   0.21410   0.01267  Uiso   1.00
C11    C     0.55770   0.72820   0.26330   0.01267  Uiso   1.00
C12    C     0.61240   0.74160   0.35340   0.01267  Uiso   1.00
C13    C     0.54550   0.77720   0.41870   0.01267  Uiso   1.00
C14    C     0.42160   0.75560   0.22060   0.01267  Uiso   1.00
C15    C     0.99470   0.25360   0.17200   0.01267  Uiso   1.00
C16    C     0.01400   0.27880   0.26030   0.01267  Uiso   1.00
C17    C     0.04940   0.39930   0.30530   0.01267  Uiso   1.00
C18    C     0.05790   0.48850   0.26510   0.01267  Uiso   1.00
C19    C     0.03470   0.46220   0.17130   0.01267  Uiso   1.00
C20    C     0.04130   0.55530   0.11560   0.01267  Uiso   1.00
C21    C     0.10230   0.61710   0.30520   0.01267  Uiso   1.00
C22    C     0.35580   0.43500   0.17740   0.01267  Uiso   1.00
C23    C     0.39120   0.45060   0.26720   0.01267  Uiso   1.00
C24    C     0.36270   0.35130   0.30090   0.01267  Uiso   1.00
C25    C     0.30810   0.24210   0.25200   0.01267  Uiso   1.00
C26    C     0.28260   0.22620   0.15980   0.01267  Uiso   1.00
C27    C     0.23980   0.11630   0.09490   0.01267  Uiso   1.00
C28    C     0.27510   0.14150   0.28970   0.01267  Uiso   1.00
C29    C     0.37730   0.96750   0.67290   0.01267  Uiso   1.00
C30    C     0.41980   0.98430   0.76350   0.01267  Uiso   1.00
C31    C     0.33550   0.01700   0.80240   0.01267  Uiso   1.00
C32    C     0.21110   0.03660   0.76380   0.01267  Uiso   1.00
C33    C     0.16350   0.01300   0.67530   0.01267  Uiso   1.00
C34    C     0.03250   0.02640   0.62010   0.01267  Uiso   1.00
C35    C     0.12090   0.08700   0.80920   0.01267  Uiso   1.00
C36    C     0.19410   0.32370   0.65990   0.01267  Uiso   1.00
C37    C     0.24410   0.34680   0.74800   0.01267  Uiso   1.00
C38    C     0.37040   0.31730   0.78590   0.01267  Uiso   1.00
C39    C     0.44230   0.27180   0.73670   0.01267  Uiso   1.00
C40    C     0.38760   0.25840   0.64660   0.01267  Uiso   1.00
C41    C     0.45450   0.22280   0.58130   0.01267  Uiso   1.00
C42    C     0.57840   0.24440   0.77940   0.01267  Uiso   1.00
C43    C     0.00530   0.74640   0.82800   0.01267  Uiso   1.00
C44    C     0.98600   0.72120   0.73970   0.01267  Uiso   1.00
C45    C     0.95060   0.60070   0.69470   0.01267  Uiso   1.00
C46    C     0.94210   0.51150   0.73490   0.01267  Uiso   1.00
C47    C     0.96530   0.53780   0.82870   0.01267  Uiso   1.00
C48    C     0.95870   0.44470   0.88440   0.01267  Uiso   1.00
C49    C     0.89770   0.38290   0.69480   0.01267  Uiso   1.00
C50    C     0.64420   0.56500   0.82260   0.01267  Uiso   1.00
C51    C     0.60880   0.54940   0.73280   0.01267  Uiso   1.00
C52    C     0.63730   0.64870   0.69910   0.01267  Uiso   1.00
C53    C     0.69190   0.75790   0.74800   0.01267  Uiso   1.00
C54    C     0.71740   0.77380   0.84020   0.01267  Uiso   1.00
C55    C     0.76020   0.88370   0.90510   0.01267  Uiso   1.00
C56    C     0.72490   0.85850   0.71030   0.01267  Uiso   1.00
N1     N     0.74760   0.01390   0.36690   0.01267  Uiso   1.00
N2     N     0.73780   0.72160   0.39340   0.01267  Uiso   1.00
N3     N     0.00170   0.34520   0.13070   0.01267  Uiso   1.00
N4     N     0.30690   0.32380   0.12710   0.01267  Uiso   1.00
N5     N     0.25240   0.98610   0.63310   0.01267  Uiso   1.00
N6     N     0.26220   0.27840   0.60660   0.01267  Uiso   1.00
N7     N     0.99830   0.65480   0.86930   0.01267  Uiso   1.00
N8     N     0.69310   0.67620   0.87290   0.01267  Uiso   1.00
O1     O     0.79230   0.02730   0.45350   0.01267  Uiso   1.00
O2     O     0.04010   0.06900   0.40170   0.01267  Uiso   1.00
O3     O     0.99600   0.87240   0.39970   0.01267  Uiso   1.00
O4     O     0.99850   0.93100   0.23500   0.01267  Uiso   1.00
O5     O     0.83190   0.85560   0.11410   0.01267  Uiso   1.00
O6     O     0.78580   0.74390   0.47720   0.01267  Uiso   1.00
O7     O     0.47370   0.69380   0.42510   0.01267  Uiso   1.00
O8     O     0.56510   0.88750   0.45870   0.01267  Uiso   1.00
O9     O     0.36320   0.80800   0.26560   0.01267  Uiso   1.00
O10    O     0.37790   0.72120   0.13710   0.01267  Uiso   1.00
O11    O     0.97350   0.32070   0.04400   0.01267  Uiso   1.00
O12    O     0.14140   0.56740   0.10250   0.01267  Uiso   1.00
O13    O     0.93960   0.61170   0.09160   0.01267  Uiso   1.00
O14    O     0.11720   0.69110   0.25950   0.01267  Uiso   1.00
O15    O     0.12070   0.64130   0.38570   0.01267  Uiso   1.00
O16    O     0.27190   0.31780   0.04150   0.01267  Uiso   1.00
O17    O     0.12140   0.10190   0.04790   0.01267  Uiso   1.00
O18    O     0.32310   0.04650   0.08630   0.01267  Uiso   1.00
O19    O     0.24340   0.03920   0.24190   0.01267  Uiso   1.00
O20    O     0.27540   0.16640   0.36780   0.01267  Uiso   1.00
O21    O     0.24800   0.90850   0.38970   0.01267  Uiso   1.00
O22    O     0.11070   0.83070   0.11060   0.01267  Uiso   1.00
O23    O     0.20770   0.97270   0.54650   0.01267  Uiso   1.00
O24    O     0.95990   0.93100   0.59830   0.01267  Uiso   1.00
O25    O     0.00400   0.12760   0.60030   0.01267  Uiso   1.00
O26    O     0.00150   0.06900   0.76500   0.01267  Uiso   1.00
O27    O     0.16810   0.14440   0.88590   0.01267  Uiso   1.00
O28    O     0.21420   0.25610   0.52280   0.01267  Uiso   1.00
O29    O     0.52630   0.30620   0.57490   0.01267  Uiso   1.00
O30    O     0.43490   0.11250   0.54130   0.01267  Uiso   1.00
O31    O     0.63680   0.19200   0.73440   0.01267  Uiso   1.00
O32    O     0.62210   0.27880   0.86290   0.01267  Uiso   1.00
O33    O     0.02650   0.67930   0.95600   0.01267  Uiso   1.00
O34    O     0.85860   0.43260   0.89750   0.01267  Uiso   1.00
O35    O     0.06040   0.38830   0.90840   0.01267  Uiso   1.00
O36    O     0.88280   0.30890   0.74050   0.01267  Uiso   1.00
O37    O     0.87930   0.35870   0.61430   0.01267  Uiso   1.00
O38    O     0.72810   0.68220   0.95850   0.01267  Uiso   1.00
O39    O     0.87860   0.89810   0.95210   0.01267  Uiso   1.00
O40    O     0.67690   0.95350   0.91370   0.01267  Uiso   1.00
O41    O     0.75660   0.96080   0.75810   0.01267  Uiso   1.00
O42    O     0.72460   0.83360   0.63220   0.01267  Uiso   1.00
O43    O     0.75200   0.09150   0.61030   0.01267  Uiso   1.00
O44    O     0.88930   0.16930   0.88940   0.01267  Uiso   1.00
