data_image0
_cell_length_a       15.228
_cell_length_b       15.228
_cell_length_c       28.791
_cell_angle_alpha    90
_cell_angle_beta     90
_cell_angle_gamma    90

_symmetry_space_group_name_H-M    "P 1"
_symmetry_int_tables_number       1

loop_
  _symmetry_equiv_pos_as_xyz
  'x, y, z'

loop_
  _atom_site_label
  _atom_site_occupancy
  _atom_site_fract_x
  _atom_site_fract_y
  _atom_site_fract_z
  _atom_site_thermal_displace_type
  _atom_site_B_iso_or_equiv
  _atom_site_type_symbol
  O1       1.0000 0.78109  0.06858  0.42933  Biso   1.000  O
  O2       1.0000 0.88158  0.03373  0.37516  Biso   1.000  O
  O3       1.0000 0.89678  0.94624  0.54138  Biso   1.000  O
  C1       1.0000 0.67850  0.99270  0.28007  Biso   1.000  C
  H1       1.0000 0.68860  0.96220  0.25260  Biso   1.000  H
  C2       1.0000 0.74730  0.00480  0.31068  Biso   1.000  C
  H2       1.0000 0.80300  0.98410  0.30320  Biso   1.000  H
  C3       1.0000 0.73345  0.04776  0.35253  Biso   1.000  C
  C4       1.0000 0.65150  0.08170  0.36121  Biso   1.000  C
  H3       1.0000 0.64130  0.11240  0.38860  Biso   1.000  H
  C5       1.0000 0.58440  0.07080  0.32971  Biso   1.000  C
  H4       1.0000 0.52980  0.09540  0.33600  Biso   1.000  H
  C6       1.0000 0.59598  0.02413  0.28885  Biso   1.000  C
  C7       1.0000 0.80363  0.05131  0.38818  Biso   1.000  C
  O4       1.0000 0.28109  0.56858  0.92933  Biso   1.000  O
  O5       1.0000 0.38158  0.53373  0.87516  Biso   1.000  O
  O6       1.0000 0.39678  0.44624  0.04138  Biso   1.000  O
  C8       1.0000 0.17850  0.49270  0.78007  Biso   1.000  C
  H5       1.0000 0.18860  0.46220  0.75260  Biso   1.000  H
  C9       1.0000 0.24730  0.50480  0.81068  Biso   1.000  C
  H6       1.0000 0.30300  0.48410  0.80320  Biso   1.000  H
  C10      1.0000 0.23345  0.54776  0.85253  Biso   1.000  C
  C11      1.0000 0.15150  0.58170  0.86121  Biso   1.000  C
  H7       1.0000 0.14130  0.61240  0.88860  Biso   1.000  H
  C12      1.0000 0.08440  0.57080  0.82971  Biso   1.000  C
  H8       1.0000 0.02980  0.59540  0.83600  Biso   1.000  H
  C13      1.0000 0.09598  0.52413  0.78885  Biso   1.000  C
  C14      1.0000 0.30363  0.55131  0.88818  Biso   1.000  C
  O7       1.0000 0.21891  0.93142  0.42933  Biso   1.000  O
  O8       1.0000 0.11842  0.96627  0.37516  Biso   1.000  O
  O9       1.0000 0.10322  0.05376  0.54138  Biso   1.000  O
  C15      1.0000 0.32150  0.00730  0.28007  Biso   1.000  C
  H9       1.0000 0.31140  0.03780  0.25260  Biso   1.000  H
  C16      1.0000 0.25270  0.99520  0.31068  Biso   1.000  C
  H10      1.0000 0.19700  0.01590  0.30320  Biso   1.000  H
  C17      1.0000 0.26655  0.95224  0.35253  Biso   1.000  C
  C18      1.0000 0.34850  0.91830  0.36121  Biso   1.000  C
  H11      1.0000 0.35870  0.88760  0.38860  Biso   1.000  H
  C19      1.0000 0.41560  0.92920  0.32971  Biso   1.000  C
  H12      1.0000 0.47020  0.90460  0.33600  Biso   1.000  H
  C20      1.0000 0.40402  0.97587  0.28885  Biso   1.000  C
  C21      1.0000 0.19637  0.94869  0.38818  Biso   1.000  C
  O10      1.0000 0.71891  0.43142  0.92933  Biso   1.000  O
  O11      1.0000 0.61842  0.46627  0.87516  Biso   1.000  O
  O12      1.0000 0.60322  0.55376  0.04138  Biso   1.000  O
  C22      1.0000 0.82150  0.50730  0.78007  Biso   1.000  C
  H13      1.0000 0.81140  0.53780  0.75260  Biso   1.000  H
  C23      1.0000 0.75270  0.49520  0.81068  Biso   1.000  C
  H14      1.0000 0.69700  0.51590  0.80320  Biso   1.000  H
  C24      1.0000 0.76655  0.45224  0.85253  Biso   1.000  C
  C25      1.0000 0.84850  0.41830  0.86121  Biso   1.000  C
  H15      1.0000 0.85870  0.38760  0.88860  Biso   1.000  H
  C26      1.0000 0.91560  0.42920  0.82971  Biso   1.000  C
  H16      1.0000 0.97020  0.40460  0.83600  Biso   1.000  H
  C27      1.0000 0.90402  0.47587  0.78885  Biso   1.000  C
  C28      1.0000 0.69637  0.44869  0.88818  Biso   1.000  C
  O13      1.0000 0.93142  0.78109  0.42933  Biso   1.000  O
  O14      1.0000 0.96627  0.88158  0.37516  Biso   1.000  O
  O15      1.0000 0.05376  0.89678  0.54138  Biso   1.000  O
  C29      1.0000 0.00730  0.67850  0.28007  Biso   1.000  C
  H17      1.0000 0.03780  0.68860  0.25260  Biso   1.000  H
  C30      1.0000 0.99520  0.74730  0.31068  Biso   1.000  C
  H18      1.0000 0.01590  0.80300  0.30320  Biso   1.000  H
  C31      1.0000 0.95224  0.73345  0.35253  Biso   1.000  C
  C32      1.0000 0.91830  0.65150  0.36121  Biso   1.000  C
  H19      1.0000 0.88760  0.64130  0.38860  Biso   1.000  H
  C33      1.0000 0.92920  0.58440  0.32971  Biso   1.000  C
  H20      1.0000 0.90460  0.52980  0.33600  Biso   1.000  H
  C34      1.0000 0.97587  0.59598  0.28885  Biso   1.000  C
  C35      1.0000 0.94869  0.80363  0.38818  Biso   1.000  C
  O16      1.0000 0.43142  0.28109  0.92933  Biso   1.000  O
  O17      1.0000 0.46627  0.38158  0.87516  Biso   1.000  O
  O18      1.0000 0.55376  0.39678  0.04138  Biso   1.000  O
  C36      1.0000 0.50730  0.17850  0.78007  Biso   1.000  C
  H21      1.0000 0.53780  0.18860  0.75260  Biso   1.000  H
  C37      1.0000 0.49520  0.24730  0.81068  Biso   1.000  C
  H22      1.0000 0.51590  0.30300  0.80320  Biso   1.000  H
  C38      1.0000 0.45224  0.23345  0.85253  Biso   1.000  C
  C39      1.0000 0.41830  0.15150  0.86121  Biso   1.000  C
  H23      1.0000 0.38760  0.14130  0.88860  Biso   1.000  H
  C40      1.0000 0.42920  0.08440  0.82971  Biso   1.000  C
  H24      1.0000 0.40460  0.02980  0.83600  Biso   1.000  H
  C41      1.0000 0.47587  0.09598  0.78885  Biso   1.000  C
  C42      1.0000 0.44869  0.30363  0.88818  Biso   1.000  C
  O19      1.0000 0.06858  0.21891  0.42933  Biso   1.000  O
  O20      1.0000 0.03373  0.11842  0.37516  Biso   1.000  O
  O21      1.0000 0.94624  0.10322  0.54138  Biso   1.000  O
  C43      1.0000 0.99270  0.32150  0.28007  Biso   1.000  C
  H25      1.0000 0.96220  0.31140  0.25260  Biso   1.000  H
  C44      1.0000 0.00480  0.25270  0.31068  Biso   1.000  C
  H26      1.0000 0.98410  0.19700  0.30320  Biso   1.000  H
  C45      1.0000 0.04776  0.26655  0.35253  Biso   1.000  C
  C46      1.0000 0.08170  0.34850  0.36121  Biso   1.000  C
  H27      1.0000 0.11240  0.35870  0.38860  Biso   1.000  H
  C47      1.0000 0.07080  0.41560  0.32971  Biso   1.000  C
  H28      1.0000 0.09540  0.47020  0.33600  Biso   1.000  H
  C48      1.0000 0.02413  0.40402  0.28885  Biso   1.000  C
  C49      1.0000 0.05131  0.19637  0.38818  Biso   1.000  C
  O22      1.0000 0.56858  0.71891  0.92933  Biso   1.000  O
  O23      1.0000 0.53373  0.61842  0.87516  Biso   1.000  O
  O24      1.0000 0.44624  0.60322  0.04138  Biso   1.000  O
  C50      1.0000 0.49270  0.82150  0.78007  Biso   1.000  C
  H29      1.0000 0.46220  0.81140  0.75260  Biso   1.000  H
  C51      1.0000 0.50480  0.75270  0.81068  Biso   1.000  C
  H30      1.0000 0.48410  0.69700  0.80320  Biso   1.000  H
  C52      1.0000 0.54776  0.76655  0.85253  Biso   1.000  C
  C53      1.0000 0.58170  0.84850  0.86121  Biso   1.000  C
  H31      1.0000 0.61240  0.85870  0.88860  Biso   1.000  H
  C54      1.0000 0.57080  0.91560  0.82971  Biso   1.000  C
  H32      1.0000 0.59540  0.97020  0.83600  Biso   1.000  H
  C55      1.0000 0.52413  0.90402  0.78885  Biso   1.000  C
  C56      1.0000 0.55131  0.69637  0.88818  Biso   1.000  C
  O25      1.0000 0.21891  0.93142  0.57067  Biso   1.000  O
  O26      1.0000 0.11842  0.96627  0.62484  Biso   1.000  O
  O27      1.0000 0.10322  0.05376  0.45862  Biso   1.000  O
  C57      1.0000 0.32150  0.00730  0.71993  Biso   1.000  C
  H33      1.0000 0.31140  0.03780  0.74740  Biso   1.000  H
  C58      1.0000 0.25270  0.99520  0.68932  Biso   1.000  C
  H34      1.0000 0.19700  0.01590  0.69680  Biso   1.000  H
  C59      1.0000 0.26655  0.95224  0.64747  Biso   1.000  C
  C60      1.0000 0.34850  0.91830  0.63879  Biso   1.000  C
  H35      1.0000 0.35870  0.88760  0.61140  Biso   1.000  H
  C61      1.0000 0.41560  0.92920  0.67029  Biso   1.000  C
  H36      1.0000 0.47020  0.90460  0.66400  Biso   1.000  H
  C62      1.0000 0.40402  0.97587  0.71115  Biso   1.000  C
  C63      1.0000 0.19637  0.94869  0.61182  Biso   1.000  C
  O28      1.0000 0.71891  0.43142  0.07067  Biso   1.000  O
  O29      1.0000 0.61842  0.46627  0.12484  Biso   1.000  O
  O30      1.0000 0.60322  0.55376  0.95862  Biso   1.000  O
  C64      1.0000 0.82150  0.50730  0.21993  Biso   1.000  C
  H37      1.0000 0.81140  0.53780  0.24740  Biso   1.000  H
  C65      1.0000 0.75270  0.49520  0.18932  Biso   1.000  C
  H38      1.0000 0.69700  0.51590  0.19680  Biso   1.000  H
  C66      1.0000 0.76655  0.45224  0.14747  Biso   1.000  C
  C67      1.0000 0.84850  0.41830  0.13879  Biso   1.000  C
  H39      1.0000 0.85870  0.38760  0.11140  Biso   1.000  H
  C68      1.0000 0.91560  0.42920  0.17029  Biso   1.000  C
  H40      1.0000 0.97020  0.40460  0.16400  Biso   1.000  H
  C69      1.0000 0.90402  0.47587  0.21115  Biso   1.000  C
  C70      1.0000 0.69637  0.44869  0.11182  Biso   1.000  C
  O31      1.0000 0.78109  0.06858  0.57067  Biso   1.000  O
  O32      1.0000 0.88158  0.03373  0.62484  Biso   1.000  O
  O33      1.0000 0.89678  0.94624  0.45862  Biso   1.000  O
  C71      1.0000 0.67850  0.99270  0.71993  Biso   1.000  C
  H41      1.0000 0.68860  0.96220  0.74740  Biso   1.000  H
  C72      1.0000 0.74730  0.00480  0.68932  Biso   1.000  C
  H42      1.0000 0.80300  0.98410  0.69680  Biso   1.000  H
  C73      1.0000 0.73345  0.04776  0.64747  Biso   1.000  C
  C74      1.0000 0.65150  0.08170  0.63879  Biso   1.000  C
  H43      1.0000 0.64130  0.11240  0.61140  Biso   1.000  H
  C75      1.0000 0.58440  0.07080  0.67029  Biso   1.000  C
  H44      1.0000 0.52980  0.09540  0.66400  Biso   1.000  H
  C76      1.0000 0.59598  0.02413  0.71115  Biso   1.000  C
  C77      1.0000 0.80363  0.05131  0.61182  Biso   1.000  C
  O34      1.0000 0.28109  0.56858  0.07067  Biso   1.000  O
  O35      1.0000 0.38158  0.53373  0.12484  Biso   1.000  O
  O36      1.0000 0.39678  0.44624  0.95862  Biso   1.000  O
  C78      1.0000 0.17850  0.49270  0.21993  Biso   1.000  C
  H45      1.0000 0.18860  0.46220  0.24740  Biso   1.000  H
  C79      1.0000 0.24730  0.50480  0.18932  Biso   1.000  C
  H46      1.0000 0.30300  0.48410  0.19680  Biso   1.000  H
  C80      1.0000 0.23345  0.54776  0.14747  Biso   1.000  C
  C81      1.0000 0.15150  0.58170  0.13879  Biso   1.000  C
  H47      1.0000 0.14130  0.61240  0.11140  Biso   1.000  H
  C82      1.0000 0.08440  0.57080  0.17029  Biso   1.000  C
  H48      1.0000 0.02980  0.59540  0.16400  Biso   1.000  H
  C83      1.0000 0.09598  0.52413  0.21115  Biso   1.000  C
  C84      1.0000 0.30363  0.55131  0.11182  Biso   1.000  C
  O37      1.0000 0.06858  0.21891  0.57067  Biso   1.000  O
  O38      1.0000 0.03373  0.11842  0.62484  Biso   1.000  O
  O39      1.0000 0.94624  0.10322  0.45862  Biso   1.000  O
  C85      1.0000 0.99270  0.32150  0.71993  Biso   1.000  C
  H49      1.0000 0.96220  0.31140  0.74740  Biso   1.000  H
  C86      1.0000 0.00480  0.25270  0.68932  Biso   1.000  C
  H50      1.0000 0.98410  0.19700  0.69680  Biso   1.000  H
  C87      1.0000 0.04776  0.26655  0.64747  Biso   1.000  C
  C88      1.0000 0.08170  0.34850  0.63879  Biso   1.000  C
  H51      1.0000 0.11240  0.35870  0.61140  Biso   1.000  H
  C89      1.0000 0.07080  0.41560  0.67029  Biso   1.000  C
  H52      1.0000 0.09540  0.47020  0.66400  Biso   1.000  H
  C90      1.0000 0.02413  0.40402  0.71115  Biso   1.000  C
  C91      1.0000 0.05131  0.19637  0.61182  Biso   1.000  C
  O40      1.0000 0.56858  0.71891  0.07067  Biso   1.000  O
  O41      1.0000 0.53373  0.61842  0.12484  Biso   1.000  O
  O42      1.0000 0.44624  0.60322  0.95862  Biso   1.000  O
  C92      1.0000 0.49270  0.82150  0.21993  Biso   1.000  C
  H53      1.0000 0.46220  0.81140  0.24740  Biso   1.000  H
  C93      1.0000 0.50480  0.75270  0.18932  Biso   1.000  C
  H54      1.0000 0.48410  0.69700  0.19680  Biso   1.000  H
  C94      1.0000 0.54776  0.76655  0.14747  Biso   1.000  C
  C95      1.0000 0.58170  0.84850  0.13879  Biso   1.000  C
  H55      1.0000 0.61240  0.85870  0.11140  Biso   1.000  H
  C96      1.0000 0.57080  0.91560  0.17029  Biso   1.000  C
  H56      1.0000 0.59540  0.97020  0.16400  Biso   1.000  H
  C97      1.0000 0.52413  0.90402  0.21115  Biso   1.000  C
  C98      1.0000 0.55131  0.69637  0.11182  Biso   1.000  C
  O43      1.0000 0.93142  0.78109  0.57067  Biso   1.000  O
  O44      1.0000 0.96627  0.88158  0.62484  Biso   1.000  O
  O45      1.0000 0.05376  0.89678  0.45862  Biso   1.000  O
  C99      1.0000 0.00730  0.67850  0.71993  Biso   1.000  C
  H57      1.0000 0.03780  0.68860  0.74740  Biso   1.000  H
  C100     1.0000 0.99520  0.74730  0.68932  Biso   1.000  C
  H58      1.0000 0.01590  0.80300  0.69680  Biso   1.000  H
  C101     1.0000 0.95224  0.73345  0.64747  Biso   1.000  C
  C102     1.0000 0.91830  0.65150  0.63879  Biso   1.000  C
  H59      1.0000 0.88760  0.64130  0.61140  Biso   1.000  H
  C103     1.0000 0.92920  0.58440  0.67029  Biso   1.000  C
  H60      1.0000 0.90460  0.52980  0.66400  Biso   1.000  H
  C104     1.0000 0.97587  0.59598  0.71115  Biso   1.000  C
  C105     1.0000 0.94869  0.80363  0.61182  Biso   1.000  C
  O46      1.0000 0.43142  0.28109  0.07067  Biso   1.000  O
  O47      1.0000 0.46627  0.38158  0.12484  Biso   1.000  O
  O48      1.0000 0.55376  0.39678  0.95862  Biso   1.000  O
  C106     1.0000 0.50730  0.17850  0.21993  Biso   1.000  C
  H61      1.0000 0.53780  0.18860  0.24740  Biso   1.000  H
  C107     1.0000 0.49520  0.24730  0.18932  Biso   1.000  C
  H62      1.0000 0.51590  0.30300  0.19680  Biso   1.000  H
  C108     1.0000 0.45224  0.23345  0.14747  Biso   1.000  C
  C109     1.0000 0.41830  0.15150  0.13879  Biso   1.000  C
  H63      1.0000 0.38760  0.14130  0.11140  Biso   1.000  H
  C110     1.0000 0.42920  0.08440  0.17029  Biso   1.000  C
  H64      1.0000 0.40460  0.02980  0.16400  Biso   1.000  H
  C111     1.0000 0.47587  0.09598  0.21115  Biso   1.000  C
  C112     1.0000 0.44869  0.30363  0.11182  Biso   1.000  C
  Zr1      1.0000 0.84321  0.05007  0.50000  Biso   1.000  Zr
  Zr2      1.0000 0.34321  0.55007  0.00000  Biso   1.000  Zr
  Zr3      1.0000 0.15679  0.94993  0.50000  Biso   1.000  Zr
  Zr4      1.0000 0.65679  0.44993  0.00000  Biso   1.000  Zr
  Zr5      1.0000 0.94993  0.84321  0.50000  Biso   1.000  Zr
  Zr6      1.0000 0.44993  0.34321  0.00000  Biso   1.000  Zr
  Zr7      1.0000 0.05007  0.15679  0.50000  Biso   1.000  Zr
  Zr8      1.0000 0.55007  0.65679  0.00000  Biso   1.000  Zr
  Zr9      1.0000 0.00000  0.00000  0.41456  Biso   1.000  Zr
  Zr10     1.0000 0.50000  0.50000  0.91456  Biso   1.000  Zr
  Zr11     1.0000 0.00000  0.00000  0.58543  Biso   1.000  Zr
  Zr12     1.0000 0.50000  0.50000  0.08544  Biso   1.000  Zr
  Si1      1.0000 0.50000  0.00000  0.25000  Biso   1.000  Si
  Si2      1.0000 0.00000  0.50000  0.25000  Biso   1.000  Si
  Si3      1.0000 0.50000  0.00000  0.75000  Biso   1.000  Si
  Si4      1.0000 0.00000  0.50000  0.75000  Biso   1.000  Si
