data_XUBJAF03_clean
_audit_creation_date              2014-07-02
_audit_creation_method            'Materials Studio'
_symmetry_space_group_name_H-M    'P1'
_symmetry_Int_Tables_number       1
_symmetry_cell_setting            triclinic
loop_
_symmetry_equiv_pos_as_xyz
  x,y,z
_cell_length_a                    10.5477
_cell_length_b                    10.5477
_cell_length_c                    10.8997
_cell_angle_alpha                 78.8327
_cell_angle_beta                  62.4961
_cell_angle_gamma                 108.8230
loop_
_atom_site_label
_atom_site_type_symbol
_atom_site_fract_x
_atom_site_fract_y
_atom_site_fract_z
_atom_site_U_iso_or_equiv
_atom_site_adp_type
_atom_site_occupancy
Eu1    Eu    0.44823   0.63478   0.62035   0.01267  Uiso   1.00
Eu2    Eu    0.75513   0.06858   0.87965   0.01267  Uiso   1.00
Eu3    Eu    0.55177   0.36522   0.37965   0.01267  Uiso   1.00
Eu4    Eu    0.24487   0.93142   0.12035   0.01267  Uiso   1.00
H1     H     0.21200   0.41300   0.93100   0.01267  Uiso   1.00
H2     H     0.89720   0.51350   0.84930   0.01267  Uiso   1.00
H3     H     0.04180   0.61680   0.68160   0.01267  Uiso   1.00
H4     H     0.73290   0.39160   0.71670   0.01267  Uiso   1.00
H5     H     0.84400   0.14300   0.56900   0.01267  Uiso   1.00
H6     H     0.86280   0.74650   0.65070   0.01267  Uiso   1.00
H7     H     0.79840   0.72340   0.81840   0.01267  Uiso   1.00
H8     H     0.60830   0.44960   0.78330   0.01267  Uiso   1.00
H9     H     0.78800   0.58700   0.06900   0.01267  Uiso   1.00
H10    H     0.10280   0.48650   0.15070   0.01267  Uiso   1.00
H11    H     0.95820   0.38320   0.31840   0.01267  Uiso   1.00
H12    H     0.26710   0.60840   0.28330   0.01267  Uiso   1.00
H13    H     0.15600   0.85700   0.43100   0.01267  Uiso   1.00
H14    H     0.13720   0.25350   0.34930   0.01267  Uiso   1.00
H15    H     0.20160   0.27660   0.18160   0.01267  Uiso   1.00
H16    H     0.39170   0.55040   0.21670   0.01267  Uiso   1.00
C1     C     0.09710   0.64880   0.83150   0.01267  Uiso   1.00
C2     C     0.01330   0.55390   0.77780   0.01267  Uiso   1.00
C3     C     0.04700   0.42780   0.75700   0.01267  Uiso   1.00
C4     C     0.59880   0.37510   0.62510   0.01267  Uiso   1.00
C5     C     0.98030   0.92860   0.66850   0.01267  Uiso   1.00
C6     C     0.83170   0.79110   0.72220   0.01267  Uiso   1.00
C7     C     0.68480   0.80400   0.74300   0.01267  Uiso   1.00
C8     C     0.50020   0.22390   0.87490   0.01267  Uiso   1.00
C9     C     0.90290   0.35120   0.16850   0.01267  Uiso   1.00
C10    C     0.98670   0.44610   0.22220   0.01267  Uiso   1.00
C11    C     0.95300   0.57220   0.24300   0.01267  Uiso   1.00
C12    C     0.40120   0.62490   0.37490   0.01267  Uiso   1.00
C13    C     0.01970   0.07140   0.33150   0.01267  Uiso   1.00
C14    C     0.16830   0.20890   0.27780   0.01267  Uiso   1.00
C15    C     0.31520   0.19600   0.25700   0.01267  Uiso   1.00
C16    C     0.49980   0.77610   0.12510   0.01267  Uiso   1.00
C17    C     0.62520   0.37520   0.75000   0.01267  Uiso   1.00
C18    C     0.37480   0.62480   0.25000   0.01267  Uiso   1.00
O1     O     0.24740   0.69100   0.77400   0.01267  Uiso   1.00
O2     O     0.01580   0.68750   0.92810   0.01267  Uiso   1.00
O3     O     0.18640   0.44190   0.70790   0.01267  Uiso   1.00
O4     O     0.93200   0.31400   0.78580   0.01267  Uiso   1.00
O5     O     0.63240   0.29360   0.55820   0.01267  Uiso   1.00
O6     O     0.53970   0.45130   0.59140   0.01267  Uiso   1.00
O7     O     0.31340   0.44610   0.88150   0.01267  Uiso   1.00
O8     O     0.96500   0.02140   0.72600   0.01267  Uiso   1.00
O9     O     0.11560   0.94390   0.57190   0.01267  Uiso   1.00
O10    O     0.64980   0.89430   0.79210   0.01267  Uiso   1.00
O11    O     0.59980   0.71780   0.71420   0.01267  Uiso   1.00
O12    O     0.35180   0.19060   0.94180   0.01267  Uiso   1.00
O13    O     0.54270   0.13110   0.90860   0.01267  Uiso   1.00
O14    O     0.82760   0.19490   0.61850   0.01267  Uiso   1.00
O15    O     0.75260   0.30900   0.22600   0.01267  Uiso   1.00
O16    O     0.98420   0.31250   0.07190   0.01267  Uiso   1.00
O17    O     0.81360   0.55810   0.29210   0.01267  Uiso   1.00
O18    O     0.06800   0.68600   0.21420   0.01267  Uiso   1.00
O19    O     0.36760   0.70640   0.44180   0.01267  Uiso   1.00
O20    O     0.46030   0.54870   0.40860   0.01267  Uiso   1.00
O21    O     0.68660   0.55390   0.11850   0.01267  Uiso   1.00
O22    O     0.03500   0.97860   0.27400   0.01267  Uiso   1.00
O23    O     0.88440   0.05610   0.42810   0.01267  Uiso   1.00
O24    O     0.35020   0.10570   0.20790   0.01267  Uiso   1.00
O25    O     0.40020   0.28220   0.28580   0.01267  Uiso   1.00
O26    O     0.64820   0.80940   0.05820   0.01267  Uiso   1.00
O27    O     0.45730   0.86890   0.09140   0.01267  Uiso   1.00
O28    O     0.17240   0.80510   0.38150   0.01267  Uiso   1.00
