data_XUBJAF_clean
_audit_creation_date              2014-07-02
_audit_creation_method            'Materials Studio'
_symmetry_space_group_name_H-M    'P1'
_symmetry_Int_Tables_number       1
_symmetry_cell_setting            triclinic
loop_
_symmetry_equiv_pos_as_xyz
  x,y,z
_cell_length_a                    10.5441
_cell_length_b                    10.5441
_cell_length_c                    10.7774
_cell_angle_alpha                 101.6690
_cell_angle_beta                  117.5780
_cell_angle_gamma                 108.6670
loop_
_atom_site_label
_atom_site_type_symbol
_atom_site_fract_x
_atom_site_fract_y
_atom_site_fract_z
_atom_site_U_iso_or_equiv
_atom_site_adp_type
_atom_site_occupancy
Eu1    Eu    0.91374   0.50116   0.12370   0.01267  Uiso   1.00
Eu2    Eu    0.22294   0.93435   0.85643   0.01267  Uiso   1.00
Eu3    Eu    0.12254   0.20996   0.62370   0.01267  Uiso   1.00
Eu4    Eu    0.42208   0.63349   0.35643   0.01267  Uiso   1.00
H1     H     0.80580   0.80830   0.87170   0.01267  Uiso   1.00
H2     H     0.87400   0.84800   0.04840   0.01267  Uiso   1.00
H3     H     0.77690   0.04890   0.08660   0.01267  Uiso   1.00
H4     H     0.62560   0.94890   0.91190   0.01267  Uiso   1.00
H5     H     0.28660   0.02700   0.45180   0.01267  Uiso   1.00
H6     H     0.41140   0.96310   0.52090   0.01267  Uiso   1.00
H7     H     0.56340   0.06590   0.37170   0.01267  Uiso   1.00
H8     H     0.70040   0.17440   0.54840   0.01267  Uiso   1.00
H9     H     0.53770   0.30970   0.58660   0.01267  Uiso   1.00
H10    H     0.46300   0.28630   0.41190   0.01267  Uiso   1.00
H11    H     0.92480   0.16520   0.95180   0.01267  Uiso   1.00
H12    H     0.05780   0.10950   0.02090   0.01267  Uiso   1.00
C1     C     0.69190   0.64190   0.90700   0.01267  Uiso   1.00
C2     C     0.83800   0.77060   0.95220   0.01267  Uiso   1.00
C3     C     0.98200   0.75280   0.97800   0.01267  Uiso   1.00
C4     C     0.17190   0.79840   0.36130   0.01267  Uiso   1.00
C5     C     0.63040   0.14440   0.00300   0.01267  Uiso   1.00
C6     C     0.65850   0.01150   0.01440   0.01267  Uiso   1.00
C7     C     0.56860   0.91060   0.06820   0.01267  Uiso   1.00
C8     C     0.27390   0.95200   0.61390   0.01267  Uiso   1.00
C9     C     0.30120   0.94960   0.48640   0.01267  Uiso   1.00
C10    C     0.76510   0.21510   0.40700   0.01267  Uiso   1.00
C11    C     0.68160   0.11420   0.45220   0.01267  Uiso   1.00
C12    C     0.72520   0.99600   0.47800   0.01267  Uiso   1.00
C13    C     0.06290   0.18940   0.86130   0.01267  Uiso   1.00
C14    C     0.35860   0.37260   0.50300   0.01267  Uiso   1.00
C15    C     0.50290   0.35590   0.51440   0.01267  Uiso   1.00
C16    C     0.65760   0.49960   0.56820   0.01267  Uiso   1.00
C17    C     0.16190   0.34000   0.11390   0.01267  Uiso   1.00
C18    C     0.03680   0.18520   0.98640   0.01267  Uiso   1.00
O1     O     0.70850   0.54940   0.96830   0.01267  Uiso   1.00
O2     O     0.55610   0.62890   0.81220   0.01267  Uiso   1.00
O3     O     0.01580   0.66250   0.02550   0.01267  Uiso   1.00
O4     O     0.07090   0.83830   0.94200   0.01267  Uiso   1.00
O5     O     0.21210   0.70130   0.32860   0.01267  Uiso   1.00
O6     O     0.02810   0.76780   0.29610   0.01267  Uiso   1.00
O7     O     0.48900   0.12670   0.95130   0.01267  Uiso   1.00
O8     O     0.74300   0.25060   0.03200   0.01267  Uiso   1.00
O9     O     0.42290   0.87120   0.01190   0.01267  Uiso   1.00
O10    O     0.64840   0.87180   0.16440   0.01267  Uiso   1.00
O11    O     0.21640   0.02780   0.64860   0.01267  Uiso   1.00
O12    O     0.30530   0.86590   0.67860   0.01267  Uiso   1.00
O13    O     0.91890   0.25980   0.46830   0.01267  Uiso   1.00
O14    O     0.68330   0.25610   0.31220   0.01267  Uiso   1.00
O15    O     0.86300   0.00970   0.52550   0.01267  Uiso   1.00
O16    O     0.60370   0.87110   0.44200   0.01267  Uiso   1.00
O17    O     0.12730   0.11650   0.82860   0.01267  Uiso   1.00
O18    O     0.02830   0.26800   0.79610   0.01267  Uiso   1.00
O19    O     0.32460   0.46230   0.45130   0.01267  Uiso   1.00
O20    O     0.28140   0.28900   0.53200   0.01267  Uiso   1.00
O21    O     0.64070   0.58900   0.51190   0.01267  Uiso   1.00
O22    O     0.79260   0.51600   0.66440   0.01267  Uiso   1.00
O23    O     0.12080   0.43220   0.14860   0.01267  Uiso   1.00
O24    O     0.31270   0.37330   0.17860   0.01267  Uiso   1.00
