data_image0
_cell_length_a       28.566
_cell_length_b       9.264
_cell_length_c       26.188
_cell_angle_alpha    90
_cell_angle_beta     117.254
_cell_angle_gamma    90

_symmetry_space_group_name_H-M    "P 1"
_symmetry_int_tables_number       1

loop_
  _symmetry_equiv_pos_as_xyz
  'x, y, z'

loop_
  _atom_site_label
  _atom_site_occupancy
  _atom_site_fract_x
  _atom_site_fract_y
  _atom_site_fract_z
  _atom_site_thermal_displace_type
  _atom_site_B_iso_or_equiv
  _atom_site_type_symbol
  Zn1      1.0000 0.73303  0.13839  0.02823  Biso   1.000  Zn
  O1       1.0000 0.71076  0.06570  0.94645  Biso   1.000  O
  O2       1.0000 0.73669  0.22870  0.90275  Biso   1.000  O
  O3       1.0000 0.30765  0.43430  0.55082  Biso   1.000  O
  O4       1.0000 0.33171  0.26900  0.50559  Biso   1.000  O
  N1       1.0000 0.70438  0.96380  0.05149  Biso   1.000  N
  C1       1.0000 0.68972  0.02450  0.85030  Biso   1.000  C
  C2       1.0000 0.70112  0.05250  0.80540  Biso   1.000  C
  H1       1.0000 0.72390  0.12760  0.80850  Biso   1.000  H
  C3       1.0000 0.65572  0.91310  0.84470  Biso   1.000  C
  H2       1.0000 0.64810  0.89250  0.87490  Biso   1.000  H
  C4       1.0000 0.67902  0.96980  0.75583  Biso   1.000  C
  H3       1.0000 0.68750  0.98920  0.72620  Biso   1.000  H
  C5       1.0000 0.63266  0.83150  0.79509  Biso   1.000  C
  H4       1.0000 0.60920  0.75840  0.79190  Biso   1.000  H
  C6       1.0000 0.64444  0.85840  0.74976  Biso   1.000  C
  C7       1.0000 0.62085  0.77020  0.69600  Biso   1.000  C
  C8       1.0000 0.64796  0.75080  0.66376  Biso   1.000  C
  H5       1.0000 0.68140  0.79030  0.67650  Biso   1.000  H
  C9       1.0000 0.62564  0.67310  0.61286  Biso   1.000  C
  H6       1.0000 0.64360  0.66300  0.59100  Biso   1.000  H
  C10      1.0000 0.57152  0.70740  0.67674  Biso   1.000  C
  H7       1.0000 0.55330  0.71920  0.69810  Biso   1.000  H
  C11      1.0000 0.57673  0.61110  0.59477  Biso   1.000  C
  H8       1.0000 0.56210  0.55770  0.56100  Biso   1.000  H
  C12      1.0000 0.54872  0.62700  0.62626  Biso   1.000  C
  C13      1.0000 0.49552  0.56310  0.60503  Biso   1.000  C
  C14      1.0000 0.48253  0.43630  0.57279  Biso   1.000  C
  H9       1.0000 0.50790  0.39050  0.56560  Biso   1.000  H
  C15      1.0000 0.45597  0.62730  0.61480  Biso   1.000  C
  H10      1.0000 0.46350  0.71150  0.63640  Biso   1.000  H
  C16      1.0000 0.43226  0.37700  0.55119  Biso   1.000  C
  H11      1.0000 0.42440  0.29220  0.52990  Biso   1.000  H
  C17      1.0000 0.40623  0.56870  0.59306  Biso   1.000  C
  H12      1.0000 0.38060  0.61400  0.59990  Biso   1.000  H
  C18      1.0000 0.39421  0.44270  0.56114  Biso   1.000  C
  C19      1.0000 0.34104  0.37590  0.53907  Biso   1.000  C
  C20      1.0000 0.72322  0.83150  0.05020  Biso   1.000  C
  H13      1.0000 0.75180  0.82290  0.04240  Biso   1.000  H
  C21      1.0000 0.66329  0.97440  0.06214  Biso   1.000  C
  H14      1.0000 0.64980  0.06580  0.06220  Biso   1.000  H
  C22      1.0000 0.70160  0.70940  0.05990  Biso   1.000  C
  H15      1.0000 0.71550  0.61910  0.05900  Biso   1.000  H
  C23      1.0000 0.65890  0.72200  0.07100  Biso   1.000  C
  H16      1.0000 0.64340  0.63990  0.07700  Biso   1.000  H
  C24      1.0000 0.63950  0.85710  0.07309  Biso   1.000  C
  C25      1.0000 0.71326  0.11480  0.90395  Biso   1.000  C
  C26      1.0000 0.59350  0.88130  0.08570  Biso   1.000  C
  H17      1.0000 0.59160  0.84530  0.11780  Biso   1.000  H
  C27      1.0000 0.55269  0.96780  0.04137  Biso   1.000  C
  H18      1.0000 0.56920  0.05520  0.03600  Biso   1.000  H
  C28      1.0000 0.52741  0.89290  0.98660  Biso   1.000  C
  H19      1.0000 0.51060  0.80570  0.99070  Biso   1.000  H
  H20      1.0000 0.55370  0.86530  0.97470  Biso   1.000  H
  C29      1.0000 0.48694  0.98840  0.94167  Biso   1.000  C
  H21      1.0000 0.50400  0.07330  0.93620  Biso   1.000  H
  H22      1.0000 0.47020  0.93690  0.90540  Biso   1.000  H
  Zn2      1.0000 0.23303  0.63839  0.02823  Biso   1.000  Zn
  O5       1.0000 0.21076  0.56570  0.94645  Biso   1.000  O
  O6       1.0000 0.23669  0.72870  0.90275  Biso   1.000  O
  O7       1.0000 0.80765  0.93430  0.55082  Biso   1.000  O
  O8       1.0000 0.83171  0.76900  0.50559  Biso   1.000  O
  N2       1.0000 0.20438  0.46380  0.05149  Biso   1.000  N
  C30      1.0000 0.18972  0.52450  0.85030  Biso   1.000  C
  C31      1.0000 0.20112  0.55250  0.80540  Biso   1.000  C
  H23      1.0000 0.22390  0.62760  0.80850  Biso   1.000  H
  C32      1.0000 0.15572  0.41310  0.84470  Biso   1.000  C
  H24      1.0000 0.14810  0.39250  0.87490  Biso   1.000  H
  C33      1.0000 0.17902  0.46980  0.75583  Biso   1.000  C
  H25      1.0000 0.18750  0.48920  0.72620  Biso   1.000  H
  C34      1.0000 0.13266  0.33150  0.79509  Biso   1.000  C
  H26      1.0000 0.10920  0.25840  0.79190  Biso   1.000  H
  C35      1.0000 0.14444  0.35840  0.74976  Biso   1.000  C
  C36      1.0000 0.12085  0.27020  0.69600  Biso   1.000  C
  C37      1.0000 0.14796  0.25080  0.66376  Biso   1.000  C
  H27      1.0000 0.18140  0.29030  0.67650  Biso   1.000  H
  C38      1.0000 0.12564  0.17310  0.61286  Biso   1.000  C
  H28      1.0000 0.14360  0.16300  0.59100  Biso   1.000  H
  C39      1.0000 0.07152  0.20740  0.67674  Biso   1.000  C
  H29      1.0000 0.05330  0.21920  0.69810  Biso   1.000  H
  C40      1.0000 0.07673  0.11110  0.59477  Biso   1.000  C
  H30      1.0000 0.06210  0.05770  0.56100  Biso   1.000  H
  C41      1.0000 0.04872  0.12700  0.62626  Biso   1.000  C
  C42      1.0000 0.99552  0.06310  0.60503  Biso   1.000  C
  C43      1.0000 0.98253  0.93630  0.57279  Biso   1.000  C
  H31      1.0000 0.00790  0.89050  0.56560  Biso   1.000  H
  C44      1.0000 0.95597  0.12730  0.61480  Biso   1.000  C
  H32      1.0000 0.96350  0.21150  0.63640  Biso   1.000  H
  C45      1.0000 0.93226  0.87700  0.55119  Biso   1.000  C
  H33      1.0000 0.92440  0.79220  0.52990  Biso   1.000  H
  C46      1.0000 0.90623  0.06870  0.59306  Biso   1.000  C
  H34      1.0000 0.88060  0.11400  0.59990  Biso   1.000  H
  C47      1.0000 0.89421  0.94270  0.56114  Biso   1.000  C
  C48      1.0000 0.84104  0.87590  0.53907  Biso   1.000  C
  C49      1.0000 0.22322  0.33150  0.05020  Biso   1.000  C
  H35      1.0000 0.25180  0.32290  0.04240  Biso   1.000  H
  C50      1.0000 0.16329  0.47440  0.06214  Biso   1.000  C
  H36      1.0000 0.14980  0.56580  0.06220  Biso   1.000  H
  C51      1.0000 0.20160  0.20940  0.05990  Biso   1.000  C
  H37      1.0000 0.21550  0.11910  0.05900  Biso   1.000  H
  C52      1.0000 0.15890  0.22200  0.07100  Biso   1.000  C
  H38      1.0000 0.14340  0.13990  0.07700  Biso   1.000  H
  C53      1.0000 0.13950  0.35710  0.07309  Biso   1.000  C
  C54      1.0000 0.21326  0.61480  0.90395  Biso   1.000  C
  C55      1.0000 0.09350  0.38130  0.08570  Biso   1.000  C
  H39      1.0000 0.09160  0.34530  0.11780  Biso   1.000  H
  C56      1.0000 0.05269  0.46780  0.04137  Biso   1.000  C
  H40      1.0000 0.06920  0.55520  0.03600  Biso   1.000  H
  C57      1.0000 0.02741  0.39290  0.98660  Biso   1.000  C
  H41      1.0000 0.01060  0.30570  0.99070  Biso   1.000  H
  H42      1.0000 0.05370  0.36530  0.97470  Biso   1.000  H
  C58      1.0000 0.98694  0.48840  0.94167  Biso   1.000  C
  H43      1.0000 0.00400  0.57330  0.93620  Biso   1.000  H
  H44      1.0000 0.97020  0.43690  0.90540  Biso   1.000  H
  Zn3      1.0000 0.26697  0.13839  0.47177  Biso   1.000  Zn
  O9       1.0000 0.28924  0.06570  0.55355  Biso   1.000  O
  O10      1.0000 0.26331  0.22870  0.59725  Biso   1.000  O
  O11      1.0000 0.69235  0.43430  0.94918  Biso   1.000  O
  O12      1.0000 0.66829  0.26900  0.99441  Biso   1.000  O
  N3       1.0000 0.29562  0.96380  0.44851  Biso   1.000  N
  C59      1.0000 0.31028  0.02450  0.64970  Biso   1.000  C
  C60      1.0000 0.29888  0.05250  0.69460  Biso   1.000  C
  H45      1.0000 0.27610  0.12760  0.69150  Biso   1.000  H
  C61      1.0000 0.34428  0.91310  0.65530  Biso   1.000  C
  H46      1.0000 0.35190  0.89250  0.62510  Biso   1.000  H
  C62      1.0000 0.32098  0.96980  0.74417  Biso   1.000  C
  H47      1.0000 0.31250  0.98920  0.77380  Biso   1.000  H
  C63      1.0000 0.36734  0.83150  0.70491  Biso   1.000  C
  H48      1.0000 0.39080  0.75840  0.70810  Biso   1.000  H
  C64      1.0000 0.35556  0.85840  0.75024  Biso   1.000  C
  C65      1.0000 0.37915  0.77020  0.80400  Biso   1.000  C
  C66      1.0000 0.35204  0.75080  0.83624  Biso   1.000  C
  H49      1.0000 0.31860  0.79030  0.82350  Biso   1.000  H
  C67      1.0000 0.37436  0.67310  0.88714  Biso   1.000  C
  H50      1.0000 0.35640  0.66300  0.90900  Biso   1.000  H
  C68      1.0000 0.42848  0.70740  0.82326  Biso   1.000  C
  H51      1.0000 0.44670  0.71920  0.80190  Biso   1.000  H
  C69      1.0000 0.42327  0.61110  0.90523  Biso   1.000  C
  H52      1.0000 0.43790  0.55770  0.93900  Biso   1.000  H
  C70      1.0000 0.45128  0.62700  0.87374  Biso   1.000  C
  C71      1.0000 0.50448  0.56310  0.89497  Biso   1.000  C
  C72      1.0000 0.51747  0.43630  0.92721  Biso   1.000  C
  H53      1.0000 0.49210  0.39050  0.93440  Biso   1.000  H
  C73      1.0000 0.54403  0.62730  0.88520  Biso   1.000  C
  H54      1.0000 0.53650  0.71150  0.86360  Biso   1.000  H
  C74      1.0000 0.56774  0.37700  0.94881  Biso   1.000  C
  H55      1.0000 0.57560  0.29220  0.97010  Biso   1.000  H
  C75      1.0000 0.59377  0.56870  0.90694  Biso   1.000  C
  H56      1.0000 0.61940  0.61400  0.90010  Biso   1.000  H
  C76      1.0000 0.60579  0.44270  0.93886  Biso   1.000  C
  C77      1.0000 0.65896  0.37590  0.96093  Biso   1.000  C
  C78      1.0000 0.27678  0.83150  0.44980  Biso   1.000  C
  H57      1.0000 0.24820  0.82290  0.45760  Biso   1.000  H
  C79      1.0000 0.33671  0.97440  0.43786  Biso   1.000  C
  H58      1.0000 0.35020  0.06580  0.43780  Biso   1.000  H
  C80      1.0000 0.29840  0.70940  0.44010  Biso   1.000  C
  H59      1.0000 0.28450  0.61910  0.44100  Biso   1.000  H
  C81      1.0000 0.34110  0.72200  0.42900  Biso   1.000  C
  H60      1.0000 0.35660  0.63990  0.42300  Biso   1.000  H
  C82      1.0000 0.36050  0.85710  0.42691  Biso   1.000  C
  C83      1.0000 0.28674  0.11480  0.59605  Biso   1.000  C
  C84      1.0000 0.40650  0.88130  0.41430  Biso   1.000  C
  H61      1.0000 0.40840  0.84530  0.38220  Biso   1.000  H
  C85      1.0000 0.44731  0.96780  0.45863  Biso   1.000  C
  H62      1.0000 0.43080  0.05520  0.46400  Biso   1.000  H
  C86      1.0000 0.47259  0.89290  0.51340  Biso   1.000  C
  H63      1.0000 0.48940  0.80570  0.50930  Biso   1.000  H
  H64      1.0000 0.44630  0.86530  0.52530  Biso   1.000  H
  C87      1.0000 0.51306  0.98840  0.55833  Biso   1.000  C
  H65      1.0000 0.49600  0.07330  0.56380  Biso   1.000  H
  H66      1.0000 0.52980  0.93690  0.59460  Biso   1.000  H
  Zn4      1.0000 0.76698  0.63839  0.47177  Biso   1.000  Zn
  O13      1.0000 0.78924  0.56570  0.55355  Biso   1.000  O
  O14      1.0000 0.76331  0.72870  0.59725  Biso   1.000  O
  O15      1.0000 0.19235  0.93430  0.94918  Biso   1.000  O
  O16      1.0000 0.16829  0.76900  0.99441  Biso   1.000  O
  N4       1.0000 0.79562  0.46380  0.44851  Biso   1.000  N
  C88      1.0000 0.81028  0.52450  0.64970  Biso   1.000  C
  C89      1.0000 0.79888  0.55250  0.69460  Biso   1.000  C
  H67      1.0000 0.77610  0.62760  0.69150  Biso   1.000  H
  C90      1.0000 0.84428  0.41310  0.65530  Biso   1.000  C
  H68      1.0000 0.85190  0.39250  0.62510  Biso   1.000  H
  C91      1.0000 0.82098  0.46980  0.74417  Biso   1.000  C
  H69      1.0000 0.81250  0.48920  0.77380  Biso   1.000  H
  C92      1.0000 0.86734  0.33150  0.70491  Biso   1.000  C
  H70      1.0000 0.89080  0.25840  0.70810  Biso   1.000  H
  C93      1.0000 0.85556  0.35840  0.75024  Biso   1.000  C
  C94      1.0000 0.87915  0.27020  0.80400  Biso   1.000  C
  C95      1.0000 0.85204  0.25080  0.83624  Biso   1.000  C
  H71      1.0000 0.81860  0.29030  0.82350  Biso   1.000  H
  C96      1.0000 0.87436  0.17310  0.88714  Biso   1.000  C
  H72      1.0000 0.85640  0.16300  0.90900  Biso   1.000  H
  C97      1.0000 0.92848  0.20740  0.82326  Biso   1.000  C
  H73      1.0000 0.94670  0.21920  0.80190  Biso   1.000  H
  C98      1.0000 0.92327  0.11110  0.90523  Biso   1.000  C
  H74      1.0000 0.93790  0.05770  0.93900  Biso   1.000  H
  C99      1.0000 0.95128  0.12700  0.87374  Biso   1.000  C
  C100     1.0000 0.00448  0.06310  0.89497  Biso   1.000  C
  C101     1.0000 0.01747  0.93630  0.92721  Biso   1.000  C
  H75      1.0000 0.99210  0.89050  0.93440  Biso   1.000  H
  C102     1.0000 0.04403  0.12730  0.88520  Biso   1.000  C
  H76      1.0000 0.03650  0.21150  0.86360  Biso   1.000  H
  C103     1.0000 0.06774  0.87700  0.94881  Biso   1.000  C
  H77      1.0000 0.07560  0.79220  0.97010  Biso   1.000  H
  C104     1.0000 0.09377  0.06870  0.90694  Biso   1.000  C
  H78      1.0000 0.11940  0.11400  0.90010  Biso   1.000  H
  C105     1.0000 0.10579  0.94270  0.93886  Biso   1.000  C
  C106     1.0000 0.15896  0.87590  0.96093  Biso   1.000  C
  C107     1.0000 0.77678  0.33150  0.44980  Biso   1.000  C
  H79      1.0000 0.74820  0.32290  0.45760  Biso   1.000  H
  C108     1.0000 0.83671  0.47440  0.43786  Biso   1.000  C
  H80      1.0000 0.85020  0.56580  0.43780  Biso   1.000  H
  C109     1.0000 0.79840  0.20940  0.44010  Biso   1.000  C
  H81      1.0000 0.78450  0.11910  0.44100  Biso   1.000  H
  C110     1.0000 0.84110  0.22200  0.42900  Biso   1.000  C
  H82      1.0000 0.85660  0.13990  0.42300  Biso   1.000  H
  C111     1.0000 0.86050  0.35710  0.42691  Biso   1.000  C
  C112     1.0000 0.78674  0.61480  0.59605  Biso   1.000  C
  C113     1.0000 0.90650  0.38130  0.41430  Biso   1.000  C
  H83      1.0000 0.90840  0.34530  0.38220  Biso   1.000  H
  C114     1.0000 0.94731  0.46780  0.45863  Biso   1.000  C
  H84      1.0000 0.93080  0.55520  0.46400  Biso   1.000  H
  C115     1.0000 0.97259  0.39290  0.51340  Biso   1.000  C
  H85      1.0000 0.98940  0.30570  0.50930  Biso   1.000  H
  H86      1.0000 0.94630  0.36530  0.52530  Biso   1.000  H
  C116     1.0000 0.01306  0.48840  0.55833  Biso   1.000  C
  H87      1.0000 0.99600  0.57330  0.56380  Biso   1.000  H
  H88      1.0000 0.02980  0.43690  0.59460  Biso   1.000  H
  Zn5      1.0000 0.26697  0.86161  0.97177  Biso   1.000  Zn
  O17      1.0000 0.28924  0.93430  0.05355  Biso   1.000  O
  O18      1.0000 0.26331  0.77130  0.09725  Biso   1.000  O
  O19      1.0000 0.69235  0.56570  0.44918  Biso   1.000  O
  O20      1.0000 0.66829  0.73100  0.49441  Biso   1.000  O
  N5       1.0000 0.29562  0.03620  0.94851  Biso   1.000  N
  C117     1.0000 0.31028  0.97550  0.14970  Biso   1.000  C
  C118     1.0000 0.29888  0.94750  0.19460  Biso   1.000  C
  H89      1.0000 0.27610  0.87240  0.19150  Biso   1.000  H
  C119     1.0000 0.34428  0.08690  0.15530  Biso   1.000  C
  H90      1.0000 0.35190  0.10750  0.12510  Biso   1.000  H
  C120     1.0000 0.32098  0.03020  0.24417  Biso   1.000  C
  H91      1.0000 0.31250  0.01080  0.27380  Biso   1.000  H
  C121     1.0000 0.36734  0.16850  0.20491  Biso   1.000  C
  H92      1.0000 0.39080  0.24160  0.20810  Biso   1.000  H
  C122     1.0000 0.35556  0.14160  0.25024  Biso   1.000  C
  C123     1.0000 0.37915  0.22980  0.30400  Biso   1.000  C
  C124     1.0000 0.35204  0.24920  0.33624  Biso   1.000  C
  H93      1.0000 0.31860  0.20970  0.32350  Biso   1.000  H
  C125     1.0000 0.37436  0.32690  0.38714  Biso   1.000  C
  H94      1.0000 0.35640  0.33700  0.40900  Biso   1.000  H
  C126     1.0000 0.42848  0.29260  0.32326  Biso   1.000  C
  H95      1.0000 0.44670  0.28080  0.30190  Biso   1.000  H
  C127     1.0000 0.42327  0.38890  0.40523  Biso   1.000  C
  H96      1.0000 0.43790  0.44230  0.43900  Biso   1.000  H
  C128     1.0000 0.45128  0.37300  0.37374  Biso   1.000  C
  C129     1.0000 0.50448  0.43690  0.39497  Biso   1.000  C
  C130     1.0000 0.51747  0.56370  0.42721  Biso   1.000  C
  H97      1.0000 0.49210  0.60950  0.43440  Biso   1.000  H
  C131     1.0000 0.54403  0.37270  0.38520  Biso   1.000  C
  H98      1.0000 0.53650  0.28850  0.36360  Biso   1.000  H
  C132     1.0000 0.56774  0.62300  0.44881  Biso   1.000  C
  H99      1.0000 0.57560  0.70780  0.47010  Biso   1.000  H
  C133     1.0000 0.59377  0.43130  0.40694  Biso   1.000  C
  H100     1.0000 0.61940  0.38600  0.40010  Biso   1.000  H
  C134     1.0000 0.60579  0.55730  0.43886  Biso   1.000  C
  C135     1.0000 0.65896  0.62410  0.46093  Biso   1.000  C
  C136     1.0000 0.27678  0.16850  0.94980  Biso   1.000  C
  H101     1.0000 0.24820  0.17710  0.95760  Biso   1.000  H
  C137     1.0000 0.33671  0.02560  0.93786  Biso   1.000  C
  H102     1.0000 0.35020  0.93420  0.93780  Biso   1.000  H
  C138     1.0000 0.29840  0.29060  0.94010  Biso   1.000  C
  H103     1.0000 0.28450  0.38090  0.94100  Biso   1.000  H
  C139     1.0000 0.34110  0.27800  0.92900  Biso   1.000  C
  H104     1.0000 0.35660  0.36010  0.92300  Biso   1.000  H
  C140     1.0000 0.36050  0.14290  0.92691  Biso   1.000  C
  C141     1.0000 0.28674  0.88520  0.09605  Biso   1.000  C
  C142     1.0000 0.40650  0.11870  0.91430  Biso   1.000  C
  H105     1.0000 0.40840  0.15470  0.88220  Biso   1.000  H
  C143     1.0000 0.44731  0.03220  0.95863  Biso   1.000  C
  H106     1.0000 0.43080  0.94480  0.96400  Biso   1.000  H
  C144     1.0000 0.47259  0.10710  0.01340  Biso   1.000  C
  H107     1.0000 0.48940  0.19430  0.00930  Biso   1.000  H
  H108     1.0000 0.44630  0.13470  0.02530  Biso   1.000  H
  C145     1.0000 0.51306  0.01160  0.05833  Biso   1.000  C
  H109     1.0000 0.49600  0.92670  0.06380  Biso   1.000  H
  H110     1.0000 0.52980  0.06310  0.09460  Biso   1.000  H
  Zn6      1.0000 0.76698  0.36161  0.97177  Biso   1.000  Zn
  O21      1.0000 0.78924  0.43430  0.05355  Biso   1.000  O
  O22      1.0000 0.76331  0.27130  0.09725  Biso   1.000  O
  O23      1.0000 0.19235  0.06570  0.44918  Biso   1.000  O
  O24      1.0000 0.16829  0.23100  0.49441  Biso   1.000  O
  N6       1.0000 0.79562  0.53620  0.94851  Biso   1.000  N
  C146     1.0000 0.81028  0.47550  0.14970  Biso   1.000  C
  C147     1.0000 0.79888  0.44750  0.19460  Biso   1.000  C
  H111     1.0000 0.77610  0.37240  0.19150  Biso   1.000  H
  C148     1.0000 0.84428  0.58690  0.15530  Biso   1.000  C
  H112     1.0000 0.85190  0.60750  0.12510  Biso   1.000  H
  C149     1.0000 0.82098  0.53020  0.24417  Biso   1.000  C
  H113     1.0000 0.81250  0.51080  0.27380  Biso   1.000  H
  C150     1.0000 0.86734  0.66850  0.20491  Biso   1.000  C
  H114     1.0000 0.89080  0.74160  0.20810  Biso   1.000  H
  C151     1.0000 0.85556  0.64160  0.25024  Biso   1.000  C
  C152     1.0000 0.87915  0.72980  0.30400  Biso   1.000  C
  C153     1.0000 0.85204  0.74920  0.33624  Biso   1.000  C
  H115     1.0000 0.81860  0.70970  0.32350  Biso   1.000  H
  C154     1.0000 0.87436  0.82690  0.38714  Biso   1.000  C
  H116     1.0000 0.85640  0.83700  0.40900  Biso   1.000  H
  C155     1.0000 0.92848  0.79260  0.32326  Biso   1.000  C
  H117     1.0000 0.94670  0.78080  0.30190  Biso   1.000  H
  C156     1.0000 0.92327  0.88890  0.40523  Biso   1.000  C
  H118     1.0000 0.93790  0.94230  0.43900  Biso   1.000  H
  C157     1.0000 0.95128  0.87300  0.37374  Biso   1.000  C
  C158     1.0000 0.00448  0.93690  0.39497  Biso   1.000  C
  C159     1.0000 0.01747  0.06370  0.42721  Biso   1.000  C
  H119     1.0000 0.99210  0.10950  0.43440  Biso   1.000  H
  C160     1.0000 0.04403  0.87270  0.38520  Biso   1.000  C
  H120     1.0000 0.03650  0.78850  0.36360  Biso   1.000  H
  C161     1.0000 0.06774  0.12300  0.44881  Biso   1.000  C
  H121     1.0000 0.07560  0.20780  0.47010  Biso   1.000  H
  C162     1.0000 0.09377  0.93130  0.40694  Biso   1.000  C
  H122     1.0000 0.11940  0.88600  0.40010  Biso   1.000  H
  C163     1.0000 0.10579  0.05730  0.43886  Biso   1.000  C
  C164     1.0000 0.15896  0.12410  0.46093  Biso   1.000  C
  C165     1.0000 0.77678  0.66850  0.94980  Biso   1.000  C
  H123     1.0000 0.74820  0.67710  0.95760  Biso   1.000  H
  C166     1.0000 0.83671  0.52560  0.93786  Biso   1.000  C
  H124     1.0000 0.85020  0.43420  0.93780  Biso   1.000  H
  C167     1.0000 0.79840  0.79060  0.94010  Biso   1.000  C
  H125     1.0000 0.78450  0.88090  0.94100  Biso   1.000  H
  C168     1.0000 0.84110  0.77800  0.92900  Biso   1.000  C
  H126     1.0000 0.85660  0.86010  0.92300  Biso   1.000  H
  C169     1.0000 0.86050  0.64290  0.92691  Biso   1.000  C
  C170     1.0000 0.78674  0.38520  0.09605  Biso   1.000  C
  C171     1.0000 0.90650  0.61870  0.91430  Biso   1.000  C
  H127     1.0000 0.90840  0.65470  0.88220  Biso   1.000  H
  C172     1.0000 0.94731  0.53220  0.95863  Biso   1.000  C
  H128     1.0000 0.93080  0.44480  0.96400  Biso   1.000  H
  C173     1.0000 0.97259  0.60710  0.01340  Biso   1.000  C
  H129     1.0000 0.98940  0.69430  0.00930  Biso   1.000  H
  H130     1.0000 0.94630  0.63470  0.02530  Biso   1.000  H
  C174     1.0000 0.01306  0.51160  0.05833  Biso   1.000  C
  H131     1.0000 0.99600  0.42670  0.06380  Biso   1.000  H
  H132     1.0000 0.02980  0.56310  0.09460  Biso   1.000  H
  Zn7      1.0000 0.73303  0.86161  0.52823  Biso   1.000  Zn
  O25      1.0000 0.71076  0.93430  0.44645  Biso   1.000  O
  O26      1.0000 0.73669  0.77130  0.40275  Biso   1.000  O
  O27      1.0000 0.30765  0.56570  0.05082  Biso   1.000  O
  O28      1.0000 0.33171  0.73100  0.00559  Biso   1.000  O
  N7       1.0000 0.70438  0.03620  0.55149  Biso   1.000  N
  C175     1.0000 0.68972  0.97550  0.35030  Biso   1.000  C
  C176     1.0000 0.70112  0.94750  0.30540  Biso   1.000  C
  H133     1.0000 0.72390  0.87240  0.30850  Biso   1.000  H
  C177     1.0000 0.65572  0.08690  0.34470  Biso   1.000  C
  H134     1.0000 0.64810  0.10750  0.37490  Biso   1.000  H
  C178     1.0000 0.67902  0.03020  0.25583  Biso   1.000  C
  H135     1.0000 0.68750  0.01080  0.22620  Biso   1.000  H
  C179     1.0000 0.63266  0.16850  0.29509  Biso   1.000  C
  H136     1.0000 0.60920  0.24160  0.29190  Biso   1.000  H
  C180     1.0000 0.64444  0.14160  0.24976  Biso   1.000  C
  C181     1.0000 0.62085  0.22980  0.19600  Biso   1.000  C
  C182     1.0000 0.64796  0.24920  0.16376  Biso   1.000  C
  H137     1.0000 0.68140  0.20970  0.17650  Biso   1.000  H
  C183     1.0000 0.62564  0.32690  0.11286  Biso   1.000  C
  H138     1.0000 0.64360  0.33700  0.09100  Biso   1.000  H
  C184     1.0000 0.57152  0.29260  0.17674  Biso   1.000  C
  H139     1.0000 0.55330  0.28080  0.19810  Biso   1.000  H
  C185     1.0000 0.57673  0.38890  0.09477  Biso   1.000  C
  H140     1.0000 0.56210  0.44230  0.06100  Biso   1.000  H
  C186     1.0000 0.54872  0.37300  0.12626  Biso   1.000  C
  C187     1.0000 0.49552  0.43690  0.10503  Biso   1.000  C
  C188     1.0000 0.48253  0.56370  0.07279  Biso   1.000  C
  H141     1.0000 0.50790  0.60950  0.06560  Biso   1.000  H
  C189     1.0000 0.45597  0.37270  0.11480  Biso   1.000  C
  H142     1.0000 0.46350  0.28850  0.13640  Biso   1.000  H
  C190     1.0000 0.43226  0.62300  0.05119  Biso   1.000  C
  H143     1.0000 0.42440  0.70780  0.02990  Biso   1.000  H
  C191     1.0000 0.40623  0.43130  0.09306  Biso   1.000  C
  H144     1.0000 0.38060  0.38600  0.09990  Biso   1.000  H
  C192     1.0000 0.39421  0.55730  0.06114  Biso   1.000  C
  C193     1.0000 0.34104  0.62410  0.03907  Biso   1.000  C
  C194     1.0000 0.72322  0.16850  0.55020  Biso   1.000  C
  H145     1.0000 0.75180  0.17710  0.54240  Biso   1.000  H
  C195     1.0000 0.66329  0.02560  0.56214  Biso   1.000  C
  H146     1.0000 0.64980  0.93420  0.56220  Biso   1.000  H
  C196     1.0000 0.70160  0.29060  0.55990  Biso   1.000  C
  H147     1.0000 0.71550  0.38090  0.55900  Biso   1.000  H
  C197     1.0000 0.65890  0.27800  0.57100  Biso   1.000  C
  H148     1.0000 0.64340  0.36010  0.57700  Biso   1.000  H
  C198     1.0000 0.63950  0.14290  0.57309  Biso   1.000  C
  C199     1.0000 0.71326  0.88520  0.40395  Biso   1.000  C
  C200     1.0000 0.59350  0.11870  0.58570  Biso   1.000  C
  H149     1.0000 0.59160  0.15470  0.61780  Biso   1.000  H
  C201     1.0000 0.55269  0.03220  0.54137  Biso   1.000  C
  H150     1.0000 0.56920  0.94480  0.53600  Biso   1.000  H
  C202     1.0000 0.52741  0.10710  0.48660  Biso   1.000  C
  H151     1.0000 0.51060  0.19430  0.49070  Biso   1.000  H
  H152     1.0000 0.55370  0.13470  0.47470  Biso   1.000  H
  C203     1.0000 0.48694  0.01160  0.44167  Biso   1.000  C
  H153     1.0000 0.50400  0.92670  0.43620  Biso   1.000  H
  H154     1.0000 0.47020  0.06310  0.40540  Biso   1.000  H
  Zn8      1.0000 0.23303  0.36161  0.52823  Biso   1.000  Zn
  O29      1.0000 0.21076  0.43430  0.44645  Biso   1.000  O
  O30      1.0000 0.23669  0.27130  0.40275  Biso   1.000  O
  O31      1.0000 0.80765  0.06570  0.05082  Biso   1.000  O
  O32      1.0000 0.83171  0.23100  0.00559  Biso   1.000  O
  N8       1.0000 0.20438  0.53620  0.55149  Biso   1.000  N
  C204     1.0000 0.18972  0.47550  0.35030  Biso   1.000  C
  C205     1.0000 0.20112  0.44750  0.30540  Biso   1.000  C
  H155     1.0000 0.22390  0.37240  0.30850  Biso   1.000  H
  C206     1.0000 0.15572  0.58690  0.34470  Biso   1.000  C
  H156     1.0000 0.14810  0.60750  0.37490  Biso   1.000  H
  C207     1.0000 0.17902  0.53020  0.25583  Biso   1.000  C
  H157     1.0000 0.18750  0.51080  0.22620  Biso   1.000  H
  C208     1.0000 0.13266  0.66850  0.29509  Biso   1.000  C
  H158     1.0000 0.10920  0.74160  0.29190  Biso   1.000  H
  C209     1.0000 0.14444  0.64160  0.24976  Biso   1.000  C
  C210     1.0000 0.12085  0.72980  0.19600  Biso   1.000  C
  C211     1.0000 0.14796  0.74920  0.16376  Biso   1.000  C
  H159     1.0000 0.18140  0.70970  0.17650  Biso   1.000  H
  C212     1.0000 0.12564  0.82690  0.11286  Biso   1.000  C
  H160     1.0000 0.14360  0.83700  0.09100  Biso   1.000  H
  C213     1.0000 0.07152  0.79260  0.17674  Biso   1.000  C
  H161     1.0000 0.05330  0.78080  0.19810  Biso   1.000  H
  C214     1.0000 0.07673  0.88890  0.09477  Biso   1.000  C
  H162     1.0000 0.06210  0.94230  0.06100  Biso   1.000  H
  C215     1.0000 0.04872  0.87300  0.12626  Biso   1.000  C
  C216     1.0000 0.99552  0.93690  0.10503  Biso   1.000  C
  C217     1.0000 0.98253  0.06370  0.07279  Biso   1.000  C
  H163     1.0000 0.00790  0.10950  0.06560  Biso   1.000  H
  C218     1.0000 0.95597  0.87270  0.11480  Biso   1.000  C
  H164     1.0000 0.96350  0.78850  0.13640  Biso   1.000  H
  C219     1.0000 0.93226  0.12300  0.05119  Biso   1.000  C
  H165     1.0000 0.92440  0.20780  0.02990  Biso   1.000  H
  C220     1.0000 0.90623  0.93130  0.09306  Biso   1.000  C
  H166     1.0000 0.88060  0.88600  0.09990  Biso   1.000  H
  C221     1.0000 0.89421  0.05730  0.06114  Biso   1.000  C
  C222     1.0000 0.84104  0.12410  0.03907  Biso   1.000  C
  C223     1.0000 0.22322  0.66850  0.55020  Biso   1.000  C
  H167     1.0000 0.25180  0.67710  0.54240  Biso   1.000  H
  C224     1.0000 0.16329  0.52560  0.56214  Biso   1.000  C
  H168     1.0000 0.14980  0.43420  0.56220  Biso   1.000  H
  C225     1.0000 0.20160  0.79060  0.55990  Biso   1.000  C
  H169     1.0000 0.21550  0.88090  0.55900  Biso   1.000  H
  C226     1.0000 0.15890  0.77800  0.57100  Biso   1.000  C
  H170     1.0000 0.14340  0.86010  0.57700  Biso   1.000  H
  C227     1.0000 0.13950  0.64290  0.57309  Biso   1.000  C
  C228     1.0000 0.21326  0.38520  0.40395  Biso   1.000  C
  C229     1.0000 0.09350  0.61870  0.58570  Biso   1.000  C
  H171     1.0000 0.09160  0.65470  0.61780  Biso   1.000  H
  C230     1.0000 0.05269  0.53220  0.54137  Biso   1.000  C
  H172     1.0000 0.06920  0.44480  0.53600  Biso   1.000  H
  C231     1.0000 0.02741  0.60710  0.48660  Biso   1.000  C
  H173     1.0000 0.01060  0.69430  0.49070  Biso   1.000  H
  H174     1.0000 0.05370  0.63470  0.47470  Biso   1.000  H
  C232     1.0000 0.98694  0.51160  0.44167  Biso   1.000  C
  H175     1.0000 0.00400  0.42670  0.43620  Biso   1.000  H
  H176     1.0000 0.97020  0.56310  0.40540  Biso   1.000  H
