data_image0
_cell_length_a       12.002
_cell_length_b       15.372
_cell_length_c       18.018
_cell_angle_alpha    90.15
_cell_angle_beta     96.901
_cell_angle_gamma    92.013

_symmetry_space_group_name_H-M    "P 1"
_symmetry_int_tables_number       1

loop_
  _symmetry_equiv_pos_as_xyz
  'x, y, z'

loop_
  _atom_site_label
  _atom_site_occupancy
  _atom_site_fract_x
  _atom_site_fract_y
  _atom_site_fract_z
  _atom_site_thermal_displace_type
  _atom_site_B_iso_or_equiv
  _atom_site_type_symbol
  Y1       1.0000 0.30664  0.41735  0.77243  Biso   1.000  Y
  Y2       1.0000 0.19166  0.21279  0.46725  Biso   1.000  Y
  Y3       1.0000 0.70413  0.31185  0.46855  Biso   1.000  Y
  Y4       1.0000 0.40160  0.22809  0.07069  Biso   1.000  Y
  Y5       1.0000 0.90127  0.26527  0.06999  Biso   1.000  Y
  Y6       1.0000 0.79283  0.08837  0.76312  Biso   1.000  Y
  N1       1.0000 0.45150  0.29640  0.76010  Biso   1.000  N
  C1       1.0000 0.50050  0.26570  0.82380  Biso   1.000  C
  C2       1.0000 0.59480  0.22340  0.83010  Biso   1.000  C
  H1       1.0000 0.62540  0.20580  0.87730  Biso   1.000  H
  N2       1.0000 0.64890  0.20460  0.77070  Biso   1.000  N
  C3       1.0000 0.60890  0.24010  0.70470  Biso   1.000  C
  C4       1.0000 0.50530  0.28500  0.70050  Biso   1.000  C
  H2       1.0000 0.47490  0.30690  0.65470  Biso   1.000  H
  C5       1.0000 0.67460  0.22910  0.63860  Biso   1.000  C
  O1       1.0000 0.74490  0.17370  0.64870  Biso   1.000  O
  O2       1.0000 0.65310  0.28040  0.58640  Biso   1.000  O
  C6       1.0000 0.43060  0.28550  0.88890  Biso   1.000  C
  O3       1.0000 0.34760  0.32980  0.87650  Biso   1.000  O
  O4       1.0000 0.46970  0.25200  0.95280  Biso   1.000  O
  N3       1.0000 0.14480  0.30450  0.77130  Biso   1.000  N
  C7       1.0000 0.09820  0.27540  0.70540  Biso   1.000  C
  C8       1.0000 0.99100  0.23660  0.69640  Biso   1.000  C
  H3       1.0000 0.95800  0.22160  0.64850  Biso   1.000  H
  N4       1.0000 0.93340  0.22010  0.75470  Biso   1.000  N
  C9       1.0000 0.98530  0.24730  0.82340  Biso   1.000  C
  C10      1.0000 0.08830  0.28780  0.82840  Biso   1.000  C
  H4       1.0000 0.12150  0.30520  0.87560  Biso   1.000  H
  C11      1.0000 0.16930  0.28600  0.64350  Biso   1.000  C
  O5       1.0000 0.25410  0.33950  0.65740  Biso   1.000  O
  O6       1.0000 0.14190  0.24200  0.58490  Biso   1.000  O
  C12      1.0000 0.92130  0.22180  0.88770  Biso   1.000  C
  O7       1.0000 0.84280  0.16750  0.87470  Biso   1.000  O
  O8       1.0000 0.95860  0.25400  0.94770  Biso   1.000  O
  N5       1.0000 0.06550  0.07690  0.49290  Biso   1.000  N
  C13      1.0000 0.05730  0.01460  0.44180  Biso   1.000  C
  C14      1.0000 0.99190  0.93830  0.44940  Biso   1.000  C
  H5       1.0000 0.98850  0.89600  0.41200  Biso   1.000  H
  C15      1.0000 0.12310  0.02790  0.37760  Biso   1.000  C
  O9       1.0000 0.16880  0.10000  0.37490  Biso   1.000  O
  O10      1.0000 0.12510  0.96550  0.33470  Biso   1.000  O
  N6       1.0000 0.11680  0.27820  0.34110  Biso   1.000  N
  C16      1.0000 0.00810  0.29460  0.33240  Biso   1.000  C
  C17      1.0000 0.95570  0.31730  0.26160  Biso   1.000  C
  H6       1.0000 0.88400  0.33920  0.25820  Biso   1.000  H
  N7       1.0000 0.00280  0.30940  0.20000  Biso   1.000  N
  C18      1.0000 0.10860  0.29360  0.20700  Biso   1.000  C
  C19      1.0000 0.16900  0.28110  0.27690  Biso   1.000  C
  H7       1.0000 0.24620  0.27450  0.28040  Biso   1.000  H
  C20      1.0000 0.95260  0.28220  0.40090  Biso   1.000  C
  O11      1.0000 0.00860  0.25070  0.45690  Biso   1.000  O
  O12      1.0000 0.84960  0.30580  0.39390  Biso   1.000  O
  C21      1.0000 0.16520  0.27060  0.13960  Biso   1.000  C
  O13      1.0000 0.09890  0.26340  0.08070  Biso   1.000  O
  O14      1.0000 0.26820  0.25860  0.14790  Biso   1.000  O
  N8       1.0000 0.62160  0.22650  0.34670  Biso   1.000  N
  C22      1.0000 0.51020  0.21440  0.33630  Biso   1.000  C
  C23      1.0000 0.45070  0.19130  0.26800  Biso   1.000  C
  H8       1.0000 0.37590  0.17210  0.26540  Biso   1.000  H
  N9       1.0000 0.50080  0.19680  0.20600  Biso   1.000  N
  C24      1.0000 0.61440  0.20690  0.21610  Biso   1.000  C
  C25      1.0000 0.67250  0.21780  0.28450  Biso   1.000  C
  H9       1.0000 0.75060  0.21940  0.28890  Biso   1.000  H
  C26      1.0000 0.45020  0.23250  0.40470  Biso   1.000  C
  O15      1.0000 0.51430  0.26760  0.45960  Biso   1.000  O
  O16      1.0000 0.34820  0.21870  0.40010  Biso   1.000  O
  C27      1.0000 0.66600  0.22300  0.14340  Biso   1.000  C
  O17      1.0000 0.60080  0.23340  0.08460  Biso   1.000  O
  O18      1.0000 0.76950  0.23020  0.15120  Biso   1.000  O
  N10      1.0000 0.57840  0.43460  0.49550  Biso   1.000  N
  C28      1.0000 0.54640  0.48840  0.43690  Biso   1.000  C
  C29      1.0000 0.47050  0.55060  0.44280  Biso   1.000  C
  H10      1.0000 0.45120  0.58530  0.40130  Biso   1.000  H
  C30      1.0000 0.60330  0.47100  0.36870  Biso   1.000  C
  O19      1.0000 0.65200  0.40320  0.36490  Biso   1.000  O
  O20      1.0000 0.59650  0.53060  0.32220  Biso   1.000  O
  N11      1.0000 0.47070  0.08100  0.02410  Biso   1.000  N
  C31      1.0000 0.42700  0.00960  0.05010  Biso   1.000  C
  C32      1.0000 0.45680  0.92780  0.02490  Biso   1.000  C
  H11      1.0000 0.42420  0.87790  0.04350  Biso   1.000  H
  C33      1.0000 0.35470  0.02050  0.11000  Biso   1.000  C
  O21      1.0000 0.33080  0.09710  0.12300  Biso   1.000  O
  O22      1.0000 0.31710  0.95470  0.14310  Biso   1.000  O
  N12      1.0000 0.97540  0.41780  0.02900  Biso   1.000  N
  C34      1.0000 0.92410  0.48840  0.04850  Biso   1.000  C
  C35      1.0000 0.94700  0.56640  0.01770  Biso   1.000  C
  H12      1.0000 0.90540  0.61310  0.03000  Biso   1.000  H
  C36      1.0000 0.83940  0.47460  0.10280  Biso   1.000  C
  O23      1.0000 0.82240  0.39830  0.12060  Biso   1.000  O
  O24      1.0000 0.79520  0.53920  0.12690  Biso   1.000  O
  O25      1.0000 0.86600  0.35130  0.56060  Biso   1.000  O
  N13      1.0000 0.87840  0.43200  0.54190  Biso   1.000  N
  O26      1.0000 0.80730  0.45540  0.48770  Biso   1.000  O
  O27      1.0000 0.95320  0.48060  0.57380  Biso   1.000  O
  Y7       1.0000 0.69336  0.58265  0.22757  Biso   1.000  Y
  Y8       1.0000 0.80834  0.78721  0.53275  Biso   1.000  Y
  Y9       1.0000 0.29587  0.68815  0.53145  Biso   1.000  Y
  Y10      1.0000 0.59840  0.77191  0.92931  Biso   1.000  Y
  Y11      1.0000 0.09873  0.73473  0.93001  Biso   1.000  Y
  Y12      1.0000 0.20717  0.91163  0.23688  Biso   1.000  Y
  N14      1.0000 0.54850  0.70360  0.23990  Biso   1.000  N
  C37      1.0000 0.49950  0.73430  0.17620  Biso   1.000  C
  C38      1.0000 0.40520  0.77660  0.16990  Biso   1.000  C
  H13      1.0000 0.37460  0.79420  0.12270  Biso   1.000  H
  N15      1.0000 0.35110  0.79540  0.22930  Biso   1.000  N
  C39      1.0000 0.39110  0.75990  0.29530  Biso   1.000  C
  C40      1.0000 0.49470  0.71500  0.29950  Biso   1.000  C
  H14      1.0000 0.52510  0.69310  0.34530  Biso   1.000  H
  C41      1.0000 0.32540  0.77090  0.36140  Biso   1.000  C
  O28      1.0000 0.25510  0.82630  0.35130  Biso   1.000  O
  O29      1.0000 0.34690  0.71960  0.41360  Biso   1.000  O
  C42      1.0000 0.56940  0.71450  0.11110  Biso   1.000  C
  O30      1.0000 0.65240  0.67020  0.12350  Biso   1.000  O
  O31      1.0000 0.53030  0.74800  0.04720  Biso   1.000  O
  N16      1.0000 0.85520  0.69550  0.22870  Biso   1.000  N
  C43      1.0000 0.90180  0.72460  0.29460  Biso   1.000  C
  C44      1.0000 0.00900  0.76340  0.30360  Biso   1.000  C
  H15      1.0000 0.04200  0.77840  0.35150  Biso   1.000  H
  N17      1.0000 0.06660  0.77990  0.24530  Biso   1.000  N
  C45      1.0000 0.01470  0.75270  0.17660  Biso   1.000  C
  C46      1.0000 0.91170  0.71220  0.17160  Biso   1.000  C
  H16      1.0000 0.87850  0.69480  0.12440  Biso   1.000  H
  C47      1.0000 0.83070  0.71400  0.35650  Biso   1.000  C
  O32      1.0000 0.74590  0.66050  0.34260  Biso   1.000  O
  O33      1.0000 0.85810  0.75800  0.41510  Biso   1.000  O
  C48      1.0000 0.07870  0.77820  0.11230  Biso   1.000  C
  O34      1.0000 0.15720  0.83250  0.12530  Biso   1.000  O
  O35      1.0000 0.04140  0.74600  0.05230  Biso   1.000  O
  N18      1.0000 0.93450  0.92310  0.50710  Biso   1.000  N
  C49      1.0000 0.94270  0.98540  0.55820  Biso   1.000  C
  C50      1.0000 0.00810  0.06170  0.55060  Biso   1.000  C
  H17      1.0000 0.01150  0.10400  0.58800  Biso   1.000  H
  C51      1.0000 0.87690  0.97210  0.62240  Biso   1.000  C
  O36      1.0000 0.83120  0.90000  0.62510  Biso   1.000  O
  O37      1.0000 0.87490  0.03450  0.66530  Biso   1.000  O
  N19      1.0000 0.88320  0.72180  0.65890  Biso   1.000  N
  C52      1.0000 0.99190  0.70540  0.66760  Biso   1.000  C
  C53      1.0000 0.04430  0.68270  0.73840  Biso   1.000  C
  H18      1.0000 0.11600  0.66080  0.74180  Biso   1.000  H
  N20      1.0000 0.99720  0.69060  0.80000  Biso   1.000  N
  C54      1.0000 0.89140  0.70640  0.79300  Biso   1.000  C
  C55      1.0000 0.83100  0.71890  0.72310  Biso   1.000  C
  H19      1.0000 0.75380  0.72550  0.71960  Biso   1.000  H
  C56      1.0000 0.04740  0.71780  0.59910  Biso   1.000  C
  O38      1.0000 0.99140  0.74930  0.54310  Biso   1.000  O
  O39      1.0000 0.15040  0.69420  0.60610  Biso   1.000  O
  C57      1.0000 0.83480  0.72940  0.86040  Biso   1.000  C
  O40      1.0000 0.90110  0.73660  0.91930  Biso   1.000  O
  O41      1.0000 0.73180  0.74140  0.85210  Biso   1.000  O
  N21      1.0000 0.37840  0.77350  0.65330  Biso   1.000  N
  C58      1.0000 0.48980  0.78560  0.66370  Biso   1.000  C
  C59      1.0000 0.54930  0.80870  0.73200  Biso   1.000  C
  H20      1.0000 0.62410  0.82790  0.73460  Biso   1.000  H
  N22      1.0000 0.49920  0.80320  0.79400  Biso   1.000  N
  C60      1.0000 0.38560  0.79310  0.78390  Biso   1.000  C
  C61      1.0000 0.32750  0.78220  0.71550  Biso   1.000  C
  H21      1.0000 0.24940  0.78060  0.71110  Biso   1.000  H
  C62      1.0000 0.54980  0.76750  0.59530  Biso   1.000  C
  O42      1.0000 0.48570  0.73240  0.54040  Biso   1.000  O
  O43      1.0000 0.65180  0.78130  0.59990  Biso   1.000  O
  C63      1.0000 0.33400  0.77700  0.85660  Biso   1.000  C
  O44      1.0000 0.39920  0.76660  0.91540  Biso   1.000  O
  O45      1.0000 0.23050  0.76980  0.84880  Biso   1.000  O
  N23      1.0000 0.42160  0.56540  0.50450  Biso   1.000  N
  C64      1.0000 0.45360  0.51160  0.56310  Biso   1.000  C
  C65      1.0000 0.52950  0.44940  0.55720  Biso   1.000  C
  H22      1.0000 0.54880  0.41470  0.59870  Biso   1.000  H
  C66      1.0000 0.39670  0.52900  0.63130  Biso   1.000  C
  O46      1.0000 0.34800  0.59680  0.63510  Biso   1.000  O
  O47      1.0000 0.40350  0.46940  0.67780  Biso   1.000  O
  N24      1.0000 0.52930  0.91900  0.97590  Biso   1.000  N
  C67      1.0000 0.57300  0.99040  0.94990  Biso   1.000  C
  C68      1.0000 0.54320  0.07220  0.97510  Biso   1.000  C
  H23      1.0000 0.57580  0.12210  0.95650  Biso   1.000  H
  C69      1.0000 0.64530  0.97950  0.89000  Biso   1.000  C
  O48      1.0000 0.66920  0.90290  0.87700  Biso   1.000  O
  O49      1.0000 0.68290  0.04530  0.85690  Biso   1.000  O
  N25      1.0000 0.02460  0.58220  0.97100  Biso   1.000  N
  C70      1.0000 0.07590  0.51160  0.95150  Biso   1.000  C
  C71      1.0000 0.05300  0.43360  0.98230  Biso   1.000  C
  H24      1.0000 0.09460  0.38690  0.97000  Biso   1.000  H
  C72      1.0000 0.16060  0.52540  0.89720  Biso   1.000  C
  O50      1.0000 0.17760  0.60170  0.87940  Biso   1.000  O
  O51      1.0000 0.20480  0.46080  0.87310  Biso   1.000  O
  O52      1.0000 0.13400  0.64870  0.43940  Biso   1.000  O
  N26      1.0000 0.12160  0.56800  0.45810  Biso   1.000  N
  O53      1.0000 0.19270  0.54460  0.51230  Biso   1.000  O
  O54      1.0000 0.04680  0.51940  0.42620  Biso   1.000  O
