data_image0
_cell_length_a       9.6084
_cell_length_b       15.8032
_cell_length_c       23.7927
_cell_angle_alpha    90
_cell_angle_beta     96.84
_cell_angle_gamma    90

_symmetry_space_group_name_H-M    "P 1"
_symmetry_int_tables_number       1

loop_
  _symmetry_equiv_pos_as_xyz
  'x, y, z'

loop_
  _atom_site_label
  _atom_site_occupancy
  _atom_site_fract_x
  _atom_site_fract_y
  _atom_site_fract_z
  _atom_site_thermal_displace_type
  _atom_site_B_iso_or_equiv
  _atom_site_type_symbol
  Y1       1.0000 0.86919  0.67458  0.02199  Biso   1.000  Y
  O1       1.0000 0.71170  0.57110  0.98170  Biso   1.000  O
  O2       1.0000 0.11210  0.69320  0.04490  Biso   1.000  O
  O3       1.0000 0.95060  0.54280  0.06190  Biso   1.000  O
  O4       1.0000 0.18680  0.75420  0.12700  Biso   1.000  O
  O5       1.0000 0.01830  0.41160  0.04350  Biso   1.000  O
  N1       1.0000 0.62970  0.67190  0.06140  Biso   1.000  N
  N2       1.0000 0.45390  0.73200  0.11170  Biso   1.000  N
  C1       1.0000 0.53010  0.63230  0.02610  Biso   1.000  C
  C2       1.0000 0.20540  0.71560  0.08290  Biso   1.000  C
  C3       1.0000 0.38820  0.64120  0.03200  Biso   1.000  C
  C4       1.0000 0.35520  0.69390  0.07470  Biso   1.000  C
  O6       1.0000 0.49100  0.55720  0.94090  Biso   1.000  O
  C5       1.0000 0.58100  0.58210  0.97940  Biso   1.000  C
  C6       1.0000 0.58680  0.71910  0.10320  Biso   1.000  C
  C7       1.0000 0.98970  0.48690  0.03060  Biso   1.000  C
  H1       1.0000 0.32100  0.60600  0.01300  Biso   1.000  H
  H2       1.0000 0.64600  0.75300  0.12700  Biso   1.000  H
  Y2       1.0000 0.36614  0.83480  0.85758  Biso   1.000  Y
  O7       1.0000 0.20670  0.93630  0.81640  Biso   1.000  O
  O8       1.0000 0.60710  0.81610  0.88230  Biso   1.000  O
  O9       1.0000 0.44300  0.96960  0.89440  Biso   1.000  O
  O10      1.0000 0.56400  0.04040  0.76990  Biso   1.000  O
  O11      1.0000 0.68740  0.73700  0.95640  Biso   1.000  O
  O12      1.0000 0.47480  0.91510  0.79050  Biso   1.000  O
  O13      1.0000 0.52680  0.09650  0.87400  Biso   1.000  O
  N3       1.0000 0.12510  0.83120  0.89340  Biso   1.000  N
  N4       1.0000 0.95230  0.76680  0.94140  Biso   1.000  N
  C8       1.0000 0.02540  0.87190  0.85930  Biso   1.000  C
  C9       1.0000 0.70270  0.78570  0.91650  Biso   1.000  C
  C10      1.0000 0.88460  0.86250  0.86650  Biso   1.000  C
  C11      1.0000 0.85330  0.80780  0.90680  Biso   1.000  C
  O14      1.0000 0.98510  0.94990  0.77470  Biso   1.000  O
  C12      1.0000 0.07410  0.92430  0.81200  Biso   1.000  C
  C13      1.0000 0.08340  0.78070  0.93260  Biso   1.000  C
  C14      1.0000 0.49420  0.02230  0.86240  Biso   1.000  C
  C15      1.0000 0.51350  0.99010  0.80220  Biso   1.000  C
  H3       1.0000 0.81600  0.88600  0.84500  Biso   1.000  H
  H4       1.0000 0.15600  0.75800  0.95200  Biso   1.000  H
  Y3       1.0000 0.36551  0.82187  0.19299  Biso   1.000  Y
  O15      1.0000 0.20720  0.92290  0.15050  Biso   1.000  O
  O16      1.0000 0.60640  0.80780  0.21700  Biso   1.000  O
  O17      1.0000 0.68770  0.72950  0.29230  Biso   1.000  O
  N5       1.0000 0.12310  0.82180  0.22810  Biso   1.000  N
  N6       1.0000 0.94990  0.75860  0.27740  Biso   1.000  N
  C16      1.0000 0.02530  0.86400  0.19550  Biso   1.000  C
  C17      1.0000 0.70220  0.77750  0.25210  Biso   1.000  C
  C18      1.0000 0.88330  0.85530  0.20210  Biso   1.000  C
  C19      1.0000 0.85110  0.80080  0.24340  Biso   1.000  C
  O18      1.0000 0.98730  0.94080  0.10950  Biso   1.000  O
  C20      1.0000 0.07580  0.91390  0.14890  Biso   1.000  C
  C21      1.0000 0.08020  0.77150  0.26810  Biso   1.000  C
  H5       1.0000 0.79900  0.88400  0.17700  Biso   1.000  H
  H6       1.0000 0.15000  0.74100  0.29100  Biso   1.000  H
  Y4       1.0000 0.63081  0.17458  0.47801  Biso   1.000  Y
  O19      1.0000 0.78830  0.07110  0.51830  Biso   1.000  O
  O20      1.0000 0.38790  0.19320  0.45510  Biso   1.000  O
  O21      1.0000 0.54940  0.04280  0.43810  Biso   1.000  O
  O22      1.0000 0.31320  0.25420  0.37300  Biso   1.000  O
  O23      1.0000 0.48170  0.91160  0.45650  Biso   1.000  O
  N7       1.0000 0.87030  0.17190  0.43860  Biso   1.000  N
  N8       1.0000 0.04610  0.23200  0.38830  Biso   1.000  N
  C22      1.0000 0.96990  0.13230  0.47390  Biso   1.000  C
  C23      1.0000 0.29460  0.21560  0.41710  Biso   1.000  C
  C24      1.0000 0.11180  0.14120  0.46800  Biso   1.000  C
  C25      1.0000 0.14480  0.19390  0.42530  Biso   1.000  C
  O24      1.0000 0.00900  0.05720  0.55910  Biso   1.000  O
  C26      1.0000 0.91900  0.08210  0.52060  Biso   1.000  C
  C27      1.0000 0.91320  0.21910  0.39680  Biso   1.000  C
  C28      1.0000 0.51030  0.98690  0.46940  Biso   1.000  C
  H7       1.0000 0.17900  0.10600  0.48700  Biso   1.000  H
  H8       1.0000 0.85400  0.25300  0.37300  Biso   1.000  H
  Y5       1.0000 0.13386  0.33480  0.64242  Biso   1.000  Y
  O25      1.0000 0.29330  0.43630  0.68360  Biso   1.000  O
  O26      1.0000 0.89290  0.31610  0.61770  Biso   1.000  O
  O27      1.0000 0.05700  0.46960  0.60560  Biso   1.000  O
  O28      1.0000 0.93600  0.54040  0.73010  Biso   1.000  O
  O29      1.0000 0.81260  0.23700  0.54360  Biso   1.000  O
  O30      1.0000 0.02520  0.41510  0.70950  Biso   1.000  O
  O31      1.0000 0.97320  0.59650  0.62600  Biso   1.000  O
  N9       1.0000 0.37490  0.33120  0.60660  Biso   1.000  N
  N10      1.0000 0.54770  0.26680  0.55860  Biso   1.000  N
  C29      1.0000 0.47460  0.37190  0.64070  Biso   1.000  C
  C30      1.0000 0.79730  0.28570  0.58350  Biso   1.000  C
  C31      1.0000 0.61540  0.36250  0.63350  Biso   1.000  C
  C32      1.0000 0.64670  0.30780  0.59320  Biso   1.000  C
  O32      1.0000 0.51490  0.44990  0.72530  Biso   1.000  O
  C33      1.0000 0.42590  0.42430  0.68800  Biso   1.000  C
  C34      1.0000 0.41660  0.28070  0.56740  Biso   1.000  C
  C35      1.0000 0.00580  0.52230  0.63760  Biso   1.000  C
  C36      1.0000 0.98650  0.49010  0.69780  Biso   1.000  C
  H9       1.0000 0.68400  0.38600  0.65500  Biso   1.000  H
  H10      1.0000 0.34400  0.25800  0.54800  Biso   1.000  H
  Y6       1.0000 0.13449  0.32187  0.30701  Biso   1.000  Y
  O33      1.0000 0.29280  0.42290  0.34950  Biso   1.000  O
  O34      1.0000 0.89360  0.30780  0.28300  Biso   1.000  O
  O35      1.0000 0.81230  0.22950  0.20770  Biso   1.000  O
  N11      1.0000 0.37690  0.32180  0.27190  Biso   1.000  N
  N12      1.0000 0.55010  0.25860  0.22260  Biso   1.000  N
  C37      1.0000 0.47470  0.36400  0.30450  Biso   1.000  C
  C38      1.0000 0.79780  0.27750  0.24790  Biso   1.000  C
  C39      1.0000 0.61670  0.35530  0.29790  Biso   1.000  C
  C40      1.0000 0.64890  0.30080  0.25660  Biso   1.000  C
  O36      1.0000 0.51270  0.44080  0.39050  Biso   1.000  O
  C41      1.0000 0.42420  0.41390  0.35110  Biso   1.000  C
  C42      1.0000 0.41980  0.27150  0.23190  Biso   1.000  C
  H11      1.0000 0.70100  0.38400  0.32300  Biso   1.000  H
  H12      1.0000 0.35000  0.24100  0.20900  Biso   1.000  H
  Y7       1.0000 0.13081  0.32542  0.97801  Biso   1.000  Y
  O37      1.0000 0.28830  0.42890  0.01830  Biso   1.000  O
  O38      1.0000 0.88790  0.30680  0.95510  Biso   1.000  O
  O39      1.0000 0.04940  0.45720  0.93810  Biso   1.000  O
  O40      1.0000 0.81320  0.24580  0.87300  Biso   1.000  O
  O41      1.0000 0.98170  0.58840  0.95650  Biso   1.000  O
  N13      1.0000 0.37030  0.32810  0.93860  Biso   1.000  N
  N14      1.0000 0.54610  0.26800  0.88830  Biso   1.000  N
  C43      1.0000 0.46990  0.36770  0.97390  Biso   1.000  C
  C44      1.0000 0.79460  0.28440  0.91710  Biso   1.000  C
  C45      1.0000 0.61180  0.35880  0.96800  Biso   1.000  C
  C46      1.0000 0.64480  0.30610  0.92530  Biso   1.000  C
  O42      1.0000 0.50900  0.44280  0.05910  Biso   1.000  O
  C47      1.0000 0.41900  0.41790  0.02060  Biso   1.000  C
  C48      1.0000 0.41320  0.28090  0.89680  Biso   1.000  C
  C49      1.0000 0.01030  0.51310  0.96940  Biso   1.000  C
  H13      1.0000 0.67900  0.39400  0.98700  Biso   1.000  H
  H14      1.0000 0.35400  0.24700  0.87300  Biso   1.000  H
  Y8       1.0000 0.63386  0.16520  0.14242  Biso   1.000  Y
  O43      1.0000 0.79330  0.06370  0.18360  Biso   1.000  O
  O44      1.0000 0.39290  0.18390  0.11770  Biso   1.000  O
  O45      1.0000 0.55700  0.03040  0.10560  Biso   1.000  O
  O46      1.0000 0.43600  0.95960  0.23010  Biso   1.000  O
  O47      1.0000 0.31260  0.26300  0.04360  Biso   1.000  O
  O48      1.0000 0.52520  0.08490  0.20950  Biso   1.000  O
  O49      1.0000 0.47320  0.90350  0.12600  Biso   1.000  O
  N15      1.0000 0.87490  0.16880  0.10660  Biso   1.000  N
  N16      1.0000 0.04770  0.23320  0.05860  Biso   1.000  N
  C50      1.0000 0.97460  0.12810  0.14070  Biso   1.000  C
  C51      1.0000 0.29730  0.21430  0.08350  Biso   1.000  C
  C52      1.0000 0.11540  0.13750  0.13350  Biso   1.000  C
  C53      1.0000 0.14670  0.19220  0.09320  Biso   1.000  C
  O50      1.0000 0.01490  0.05010  0.22530  Biso   1.000  O
  C54      1.0000 0.92590  0.07570  0.18800  Biso   1.000  C
  C55      1.0000 0.91660  0.21930  0.06740  Biso   1.000  C
  C56      1.0000 0.50580  0.97770  0.13760  Biso   1.000  C
  C57      1.0000 0.48650  0.00990  0.19780  Biso   1.000  C
  H15      1.0000 0.18400  0.11400  0.15500  Biso   1.000  H
  H16      1.0000 0.84400  0.24200  0.04800  Biso   1.000  H
  Y9       1.0000 0.63449  0.17813  0.80701  Biso   1.000  Y
  O51      1.0000 0.79280  0.07710  0.84950  Biso   1.000  O
  O52      1.0000 0.39360  0.19220  0.78300  Biso   1.000  O
  O53      1.0000 0.31230  0.27050  0.70770  Biso   1.000  O
  N17      1.0000 0.87690  0.17820  0.77190  Biso   1.000  N
  N18      1.0000 0.05010  0.24140  0.72260  Biso   1.000  N
  C58      1.0000 0.97470  0.13600  0.80450  Biso   1.000  C
  C59      1.0000 0.29780  0.22250  0.74790  Biso   1.000  C
  C60      1.0000 0.11670  0.14470  0.79790  Biso   1.000  C
  C61      1.0000 0.14890  0.19920  0.75660  Biso   1.000  C
  O54      1.0000 0.01270  0.05920  0.89050  Biso   1.000  O
  C62      1.0000 0.92420  0.08610  0.85110  Biso   1.000  C
  C63      1.0000 0.91980  0.22850  0.73190  Biso   1.000  C
  H17      1.0000 0.20100  0.11600  0.82300  Biso   1.000  H
  H18      1.0000 0.85000  0.25900  0.70900  Biso   1.000  H
  Y10      1.0000 0.36919  0.82542  0.52199  Biso   1.000  Y
  O55      1.0000 0.21170  0.92890  0.48170  Biso   1.000  O
  O56      1.0000 0.61210  0.80680  0.54490  Biso   1.000  O
  O57      1.0000 0.45060  0.95720  0.56190  Biso   1.000  O
  O58      1.0000 0.68680  0.74580  0.62700  Biso   1.000  O
  O59      1.0000 0.51830  0.08840  0.54350  Biso   1.000  O
  N19      1.0000 0.12970  0.82810  0.56140  Biso   1.000  N
  N20      1.0000 0.95390  0.76800  0.61170  Biso   1.000  N
  C64      1.0000 0.03010  0.86770  0.52610  Biso   1.000  C
  C65      1.0000 0.70540  0.78440  0.58290  Biso   1.000  C
  C66      1.0000 0.88820  0.85880  0.53200  Biso   1.000  C
  C67      1.0000 0.85520  0.80610  0.57470  Biso   1.000  C
  O60      1.0000 0.99100  0.94280  0.44090  Biso   1.000  O
  C68      1.0000 0.08100  0.91790  0.47940  Biso   1.000  C
  C69      1.0000 0.08680  0.78090  0.60320  Biso   1.000  C
  C70      1.0000 0.48970  0.01310  0.53060  Biso   1.000  C
  H19      1.0000 0.82100  0.89400  0.51300  Biso   1.000  H
  H20      1.0000 0.14600  0.74700  0.62700  Biso   1.000  H
  Y11      1.0000 0.86614  0.66520  0.35758  Biso   1.000  Y
  O61      1.0000 0.70670  0.56370  0.31640  Biso   1.000  O
  O62      1.0000 0.10710  0.68390  0.38230  Biso   1.000  O
  O63      1.0000 0.94300  0.53040  0.39440  Biso   1.000  O
  O64      1.0000 0.06400  0.45960  0.26990  Biso   1.000  O
  O65      1.0000 0.18740  0.76300  0.45640  Biso   1.000  O
  O66      1.0000 0.97480  0.58490  0.29050  Biso   1.000  O
  O67      1.0000 0.02680  0.40350  0.37400  Biso   1.000  O
  N21      1.0000 0.62510  0.66880  0.39340  Biso   1.000  N
  N22      1.0000 0.45230  0.73320  0.44140  Biso   1.000  N
  C71      1.0000 0.52540  0.62810  0.35930  Biso   1.000  C
  C72      1.0000 0.20270  0.71430  0.41650  Biso   1.000  C
  C73      1.0000 0.38460  0.63750  0.36650  Biso   1.000  C
  C74      1.0000 0.35330  0.69220  0.40680  Biso   1.000  C
  O68      1.0000 0.48510  0.55010  0.27470  Biso   1.000  O
  C75      1.0000 0.57410  0.57570  0.31200  Biso   1.000  C
  C76      1.0000 0.58340  0.71930  0.43260  Biso   1.000  C
  C77      1.0000 0.99420  0.47770  0.36240  Biso   1.000  C
  C78      1.0000 0.01350  0.50990  0.30220  Biso   1.000  C
  H21      1.0000 0.31600  0.61400  0.34500  Biso   1.000  H
  H22      1.0000 0.65600  0.74200  0.45200  Biso   1.000  H
  Y12      1.0000 0.86551  0.67813  0.69299  Biso   1.000  Y
  O69      1.0000 0.70720  0.57710  0.65050  Biso   1.000  O
  O70      1.0000 0.10640  0.69220  0.71700  Biso   1.000  O
  O71      1.0000 0.18770  0.77050  0.79230  Biso   1.000  O
  N23      1.0000 0.62310  0.67820  0.72810  Biso   1.000  N
  N24      1.0000 0.44990  0.74140  0.77740  Biso   1.000  N
  C79      1.0000 0.52530  0.63600  0.69550  Biso   1.000  C
  C80      1.0000 0.20220  0.72250  0.75210  Biso   1.000  C
  C81      1.0000 0.38330  0.64470  0.70210  Biso   1.000  C
  C82      1.0000 0.35110  0.69920  0.74340  Biso   1.000  C
  O72      1.0000 0.48730  0.55920  0.60950  Biso   1.000  O
  C83      1.0000 0.57580  0.58610  0.64890  Biso   1.000  C
  C84      1.0000 0.58020  0.72850  0.76810  Biso   1.000  C
  H23      1.0000 0.29900  0.61600  0.67700  Biso   1.000  H
  H24      1.0000 0.65000  0.75900  0.79100  Biso   1.000  H
