data_image0
_cell_length_a       26.6
_cell_length_b       26.6
_cell_length_c       27.12
_cell_angle_alpha    90
_cell_angle_beta     90
_cell_angle_gamma    90

_symmetry_space_group_name_H-M    "P 1"
_symmetry_int_tables_number       1

loop_
  _symmetry_equiv_pos_as_xyz
  'x, y, z'

loop_
  _atom_site_label
  _atom_site_occupancy
  _atom_site_fract_x
  _atom_site_fract_y
  _atom_site_fract_z
  _atom_site_thermal_displace_type
  _atom_site_B_iso_or_equiv
  _atom_site_type_symbol
  N1       1.0000 0.70966  0.89412  0.19624  Biso   1.000  N
  O1       1.0000 0.93060  0.97559  0.23740  Biso   1.000  O
  O2       1.0000 0.92903  0.98080  0.15457  Biso   1.000  O
  O3       1.0000 0.56533  0.01475  0.05078  Biso   1.000  O
  O4       1.0000 0.52790  0.93841  0.05037  Biso   1.000  O
  C1       1.0000 0.90942  0.97146  0.19614  Biso   1.000  C
  C2       1.0000 0.85629  0.95332  0.19650  Biso   1.000  C
  C3       1.0000 0.83059  0.94670  0.15161  Biso   1.000  C
  H1       1.0000 0.84600  0.95480  0.12190  Biso   1.000  H
  C4       1.0000 0.78197  0.92789  0.15229  Biso   1.000  C
  H2       1.0000 0.76470  0.92360  0.12280  Biso   1.000  H
  C5       1.0000 0.75890  0.91553  0.19607  Biso   1.000  C
  C6       1.0000 0.78441  0.92188  0.23943  Biso   1.000  C
  H3       1.0000 0.76910  0.91310  0.26900  Biso   1.000  H
  C7       1.0000 0.83263  0.94124  0.23978  Biso   1.000  C
  H4       1.0000 0.84910  0.94610  0.26960  Biso   1.000  H
  C8       1.0000 0.67233  0.91318  0.16489  Biso   1.000  C
  C9       1.0000 0.66925  0.96364  0.15339  Biso   1.000  C
  H5       1.0000 0.69260  0.98560  0.16720  Biso   1.000  H
  C10      1.0000 0.63409  0.98227  0.12323  Biso   1.000  C
  H6       1.0000 0.63270  0.01670  0.11720  Biso   1.000  H
  C11      1.0000 0.59891  0.94966  0.10040  Biso   1.000  C
  C12      1.0000 0.60114  0.89965  0.11266  Biso   1.000  C
  H7       1.0000 0.57710  0.87790  0.09970  Biso   1.000  H
  C13      1.0000 0.63714  0.88060  0.14298  Biso   1.000  C
  H8       1.0000 0.63850  0.84620  0.14920  Biso   1.000  H
  C14      1.0000 0.56143  0.96984  0.06424  Biso   1.000  C
  C15      1.0000 0.70221  0.84904  0.22408  Biso   1.000  C
  C16      1.0000 0.73888  0.81188  0.22440  Biso   1.000  C
  H9       1.0000 0.76870  0.81660  0.20700  Biso   1.000  H
  N2       1.0000 0.29034  0.10588  0.19624  Biso   1.000  N
  O5       1.0000 0.06940  0.02441  0.23740  Biso   1.000  O
  O6       1.0000 0.07097  0.01920  0.15457  Biso   1.000  O
  O7       1.0000 0.43467  0.98525  0.05078  Biso   1.000  O
  O8       1.0000 0.47210  0.06159  0.05037  Biso   1.000  O
  C17      1.0000 0.09058  0.02854  0.19614  Biso   1.000  C
  C18      1.0000 0.14371  0.04668  0.19650  Biso   1.000  C
  C19      1.0000 0.16941  0.05330  0.15161  Biso   1.000  C
  H10      1.0000 0.15400  0.04520  0.12190  Biso   1.000  H
  C20      1.0000 0.21803  0.07211  0.15229  Biso   1.000  C
  H11      1.0000 0.23530  0.07640  0.12280  Biso   1.000  H
  C21      1.0000 0.24110  0.08447  0.19607  Biso   1.000  C
  C22      1.0000 0.21559  0.07812  0.23943  Biso   1.000  C
  H12      1.0000 0.23090  0.08690  0.26900  Biso   1.000  H
  C23      1.0000 0.16737  0.05876  0.23978  Biso   1.000  C
  H13      1.0000 0.15090  0.05390  0.26960  Biso   1.000  H
  C24      1.0000 0.32767  0.08682  0.16489  Biso   1.000  C
  C25      1.0000 0.33075  0.03636  0.15339  Biso   1.000  C
  H14      1.0000 0.30740  0.01440  0.16720  Biso   1.000  H
  C26      1.0000 0.36591  0.01773  0.12323  Biso   1.000  C
  H15      1.0000 0.36730  0.98330  0.11720  Biso   1.000  H
  C27      1.0000 0.40109  0.05034  0.10040  Biso   1.000  C
  C28      1.0000 0.39886  0.10035  0.11266  Biso   1.000  C
  H16      1.0000 0.42290  0.12210  0.09970  Biso   1.000  H
  C29      1.0000 0.36286  0.11940  0.14298  Biso   1.000  C
  H17      1.0000 0.36150  0.15380  0.14920  Biso   1.000  H
  C30      1.0000 0.43857  0.03016  0.06424  Biso   1.000  C
  C31      1.0000 0.29779  0.15096  0.22408  Biso   1.000  C
  C32      1.0000 0.26112  0.18812  0.22440  Biso   1.000  C
  H18      1.0000 0.23130  0.18340  0.20700  Biso   1.000  H
  N3       1.0000 0.10588  0.70966  0.19624  Biso   1.000  N
  O9       1.0000 0.02441  0.93060  0.23740  Biso   1.000  O
  O10      1.0000 0.01920  0.92903  0.15457  Biso   1.000  O
  O11      1.0000 0.98525  0.56533  0.05078  Biso   1.000  O
  O12      1.0000 0.06159  0.52790  0.05037  Biso   1.000  O
  C33      1.0000 0.02854  0.90942  0.19614  Biso   1.000  C
  C34      1.0000 0.04668  0.85629  0.19650  Biso   1.000  C
  C35      1.0000 0.05330  0.83059  0.15161  Biso   1.000  C
  H19      1.0000 0.04520  0.84600  0.12190  Biso   1.000  H
  C36      1.0000 0.07211  0.78197  0.15229  Biso   1.000  C
  H20      1.0000 0.07640  0.76470  0.12280  Biso   1.000  H
  C37      1.0000 0.08447  0.75890  0.19607  Biso   1.000  C
  C38      1.0000 0.07812  0.78441  0.23943  Biso   1.000  C
  H21      1.0000 0.08690  0.76910  0.26900  Biso   1.000  H
  C39      1.0000 0.05876  0.83263  0.23978  Biso   1.000  C
  H22      1.0000 0.05390  0.84910  0.26960  Biso   1.000  H
  C40      1.0000 0.08682  0.67233  0.16489  Biso   1.000  C
  C41      1.0000 0.03636  0.66925  0.15339  Biso   1.000  C
  H23      1.0000 0.01440  0.69260  0.16720  Biso   1.000  H
  C42      1.0000 0.01773  0.63409  0.12323  Biso   1.000  C
  H24      1.0000 0.98330  0.63270  0.11720  Biso   1.000  H
  C43      1.0000 0.05034  0.59891  0.10040  Biso   1.000  C
  C44      1.0000 0.10035  0.60114  0.11266  Biso   1.000  C
  H25      1.0000 0.12210  0.57710  0.09970  Biso   1.000  H
  C45      1.0000 0.11940  0.63714  0.14298  Biso   1.000  C
  H26      1.0000 0.15380  0.63850  0.14920  Biso   1.000  H
  C46      1.0000 0.03016  0.56143  0.06424  Biso   1.000  C
  C47      1.0000 0.15096  0.70221  0.22408  Biso   1.000  C
  C48      1.0000 0.18812  0.73888  0.22440  Biso   1.000  C
  H27      1.0000 0.18340  0.76870  0.20700  Biso   1.000  H
  N4       1.0000 0.89412  0.29034  0.19624  Biso   1.000  N
  O13      1.0000 0.97559  0.06940  0.23740  Biso   1.000  O
  O14      1.0000 0.98080  0.07097  0.15457  Biso   1.000  O
  O15      1.0000 0.01475  0.43467  0.05078  Biso   1.000  O
  O16      1.0000 0.93841  0.47210  0.05037  Biso   1.000  O
  C49      1.0000 0.97146  0.09058  0.19614  Biso   1.000  C
  C50      1.0000 0.95332  0.14371  0.19650  Biso   1.000  C
  C51      1.0000 0.94670  0.16941  0.15161  Biso   1.000  C
  H28      1.0000 0.95480  0.15400  0.12190  Biso   1.000  H
  C52      1.0000 0.92789  0.21803  0.15229  Biso   1.000  C
  H29      1.0000 0.92360  0.23530  0.12280  Biso   1.000  H
  C53      1.0000 0.91553  0.24110  0.19607  Biso   1.000  C
  C54      1.0000 0.92188  0.21559  0.23943  Biso   1.000  C
  H30      1.0000 0.91310  0.23090  0.26900  Biso   1.000  H
  C55      1.0000 0.94124  0.16737  0.23978  Biso   1.000  C
  H31      1.0000 0.94610  0.15090  0.26960  Biso   1.000  H
  C56      1.0000 0.91318  0.32767  0.16489  Biso   1.000  C
  C57      1.0000 0.96364  0.33075  0.15339  Biso   1.000  C
  H32      1.0000 0.98560  0.30740  0.16720  Biso   1.000  H
  C58      1.0000 0.98227  0.36591  0.12323  Biso   1.000  C
  H33      1.0000 0.01670  0.36730  0.11720  Biso   1.000  H
  C59      1.0000 0.94966  0.40109  0.10040  Biso   1.000  C
  C60      1.0000 0.89965  0.39886  0.11266  Biso   1.000  C
  H34      1.0000 0.87790  0.42290  0.09970  Biso   1.000  H
  C61      1.0000 0.88060  0.36286  0.14298  Biso   1.000  C
  H35      1.0000 0.84620  0.36150  0.14920  Biso   1.000  H
  C62      1.0000 0.96984  0.43857  0.06424  Biso   1.000  C
  C63      1.0000 0.84904  0.29779  0.22408  Biso   1.000  C
  C64      1.0000 0.81188  0.26112  0.22440  Biso   1.000  C
  H36      1.0000 0.81660  0.23130  0.20700  Biso   1.000  H
  N5       1.0000 0.79034  0.39412  0.30376  Biso   1.000  N
  O17      1.0000 0.56940  0.47559  0.26260  Biso   1.000  O
  O18      1.0000 0.57097  0.48080  0.34543  Biso   1.000  O
  O19      1.0000 0.93467  0.51475  0.44922  Biso   1.000  O
  O20      1.0000 0.97210  0.43841  0.44963  Biso   1.000  O
  C65      1.0000 0.59058  0.47146  0.30386  Biso   1.000  C
  C66      1.0000 0.64371  0.45332  0.30350  Biso   1.000  C
  C67      1.0000 0.66941  0.44670  0.34839  Biso   1.000  C
  H37      1.0000 0.65400  0.45480  0.37810  Biso   1.000  H
  C68      1.0000 0.71803  0.42789  0.34771  Biso   1.000  C
  H38      1.0000 0.73530  0.42360  0.37720  Biso   1.000  H
  C69      1.0000 0.74110  0.41553  0.30393  Biso   1.000  C
  C70      1.0000 0.71559  0.42188  0.26057  Biso   1.000  C
  H39      1.0000 0.73090  0.41310  0.23100  Biso   1.000  H
  C71      1.0000 0.66737  0.44124  0.26022  Biso   1.000  C
  H40      1.0000 0.65090  0.44610  0.23040  Biso   1.000  H
  C72      1.0000 0.82767  0.41318  0.33511  Biso   1.000  C
  C73      1.0000 0.83075  0.46364  0.34661  Biso   1.000  C
  H41      1.0000 0.80740  0.48560  0.33280  Biso   1.000  H
  C74      1.0000 0.86591  0.48227  0.37677  Biso   1.000  C
  H42      1.0000 0.86730  0.51670  0.38280  Biso   1.000  H
  C75      1.0000 0.90109  0.44966  0.39960  Biso   1.000  C
  C76      1.0000 0.89886  0.39965  0.38734  Biso   1.000  C
  H43      1.0000 0.92290  0.37790  0.40030  Biso   1.000  H
  C77      1.0000 0.86286  0.38060  0.35702  Biso   1.000  C
  H44      1.0000 0.86150  0.34620  0.35080  Biso   1.000  H
  C78      1.0000 0.93857  0.46984  0.43576  Biso   1.000  C
  C79      1.0000 0.79779  0.34904  0.27592  Biso   1.000  C
  C80      1.0000 0.76112  0.31188  0.27560  Biso   1.000  C
  H45      1.0000 0.73130  0.31660  0.29300  Biso   1.000  H
  N6       1.0000 0.20966  0.60588  0.30376  Biso   1.000  N
  O21      1.0000 0.43060  0.52441  0.26260  Biso   1.000  O
  O22      1.0000 0.42903  0.51920  0.34543  Biso   1.000  O
  O23      1.0000 0.06533  0.48525  0.44922  Biso   1.000  O
  O24      1.0000 0.02790  0.56159  0.44963  Biso   1.000  O
  C81      1.0000 0.40942  0.52854  0.30386  Biso   1.000  C
  C82      1.0000 0.35629  0.54668  0.30350  Biso   1.000  C
  C83      1.0000 0.33059  0.55330  0.34839  Biso   1.000  C
  H46      1.0000 0.34600  0.54520  0.37810  Biso   1.000  H
  C84      1.0000 0.28197  0.57211  0.34771  Biso   1.000  C
  H47      1.0000 0.26470  0.57640  0.37720  Biso   1.000  H
  C85      1.0000 0.25890  0.58447  0.30393  Biso   1.000  C
  C86      1.0000 0.28441  0.57812  0.26057  Biso   1.000  C
  H48      1.0000 0.26910  0.58690  0.23100  Biso   1.000  H
  C87      1.0000 0.33263  0.55876  0.26022  Biso   1.000  C
  H49      1.0000 0.34910  0.55390  0.23040  Biso   1.000  H
  C88      1.0000 0.17233  0.58682  0.33511  Biso   1.000  C
  C89      1.0000 0.16925  0.53636  0.34661  Biso   1.000  C
  H50      1.0000 0.19260  0.51440  0.33280  Biso   1.000  H
  C90      1.0000 0.13409  0.51773  0.37677  Biso   1.000  C
  H51      1.0000 0.13270  0.48330  0.38280  Biso   1.000  H
  C91      1.0000 0.09891  0.55034  0.39960  Biso   1.000  C
  C92      1.0000 0.10114  0.60035  0.38734  Biso   1.000  C
  H52      1.0000 0.07710  0.62210  0.40030  Biso   1.000  H
  C93      1.0000 0.13714  0.61940  0.35702  Biso   1.000  C
  H53      1.0000 0.13850  0.65380  0.35080  Biso   1.000  H
  C94      1.0000 0.06143  0.53016  0.43576  Biso   1.000  C
  C95      1.0000 0.20221  0.65096  0.27592  Biso   1.000  C
  C96      1.0000 0.23888  0.68812  0.27560  Biso   1.000  C
  H54      1.0000 0.26870  0.68340  0.29300  Biso   1.000  H
  N7       1.0000 0.39412  0.20966  0.30376  Biso   1.000  N
  O25      1.0000 0.47559  0.43060  0.26260  Biso   1.000  O
  O26      1.0000 0.48080  0.42903  0.34543  Biso   1.000  O
  O27      1.0000 0.51475  0.06533  0.44922  Biso   1.000  O
  O28      1.0000 0.43841  0.02790  0.44963  Biso   1.000  O
  C97      1.0000 0.47146  0.40942  0.30386  Biso   1.000  C
  C98      1.0000 0.45332  0.35629  0.30350  Biso   1.000  C
  C99      1.0000 0.44670  0.33059  0.34839  Biso   1.000  C
  H55      1.0000 0.45480  0.34600  0.37810  Biso   1.000  H
  C100     1.0000 0.42789  0.28197  0.34771  Biso   1.000  C
  H56      1.0000 0.42360  0.26470  0.37720  Biso   1.000  H
  C101     1.0000 0.41553  0.25890  0.30393  Biso   1.000  C
  C102     1.0000 0.42188  0.28441  0.26057  Biso   1.000  C
  H57      1.0000 0.41310  0.26910  0.23100  Biso   1.000  H
  C103     1.0000 0.44124  0.33263  0.26022  Biso   1.000  C
  H58      1.0000 0.44610  0.34910  0.23040  Biso   1.000  H
  C104     1.0000 0.41318  0.17233  0.33511  Biso   1.000  C
  C105     1.0000 0.46364  0.16925  0.34661  Biso   1.000  C
  H59      1.0000 0.48560  0.19260  0.33280  Biso   1.000  H
  C106     1.0000 0.48227  0.13409  0.37677  Biso   1.000  C
  H60      1.0000 0.51670  0.13270  0.38280  Biso   1.000  H
  C107     1.0000 0.44966  0.09891  0.39960  Biso   1.000  C
  C108     1.0000 0.39965  0.10114  0.38734  Biso   1.000  C
  H61      1.0000 0.37790  0.07710  0.40030  Biso   1.000  H
  C109     1.0000 0.38060  0.13714  0.35702  Biso   1.000  C
  H62      1.0000 0.34620  0.13850  0.35080  Biso   1.000  H
  C110     1.0000 0.46984  0.06143  0.43576  Biso   1.000  C
  C111     1.0000 0.34904  0.20221  0.27592  Biso   1.000  C
  C112     1.0000 0.31188  0.23888  0.27560  Biso   1.000  C
  H63      1.0000 0.31660  0.26870  0.29300  Biso   1.000  H
  N8       1.0000 0.60588  0.79034  0.30376  Biso   1.000  N
  O29      1.0000 0.52441  0.56940  0.26260  Biso   1.000  O
  O30      1.0000 0.51920  0.57097  0.34543  Biso   1.000  O
  O31      1.0000 0.48525  0.93467  0.44922  Biso   1.000  O
  O32      1.0000 0.56159  0.97210  0.44963  Biso   1.000  O
  C113     1.0000 0.52854  0.59058  0.30386  Biso   1.000  C
  C114     1.0000 0.54668  0.64371  0.30350  Biso   1.000  C
  C115     1.0000 0.55330  0.66941  0.34839  Biso   1.000  C
  H64      1.0000 0.54520  0.65400  0.37810  Biso   1.000  H
  C116     1.0000 0.57211  0.71803  0.34771  Biso   1.000  C
  H65      1.0000 0.57640  0.73530  0.37720  Biso   1.000  H
  C117     1.0000 0.58447  0.74110  0.30393  Biso   1.000  C
  C118     1.0000 0.57812  0.71559  0.26057  Biso   1.000  C
  H66      1.0000 0.58690  0.73090  0.23100  Biso   1.000  H
  C119     1.0000 0.55876  0.66737  0.26022  Biso   1.000  C
  H67      1.0000 0.55390  0.65090  0.23040  Biso   1.000  H
  C120     1.0000 0.58682  0.82767  0.33511  Biso   1.000  C
  C121     1.0000 0.53636  0.83075  0.34661  Biso   1.000  C
  H68      1.0000 0.51440  0.80740  0.33280  Biso   1.000  H
  C122     1.0000 0.51773  0.86591  0.37677  Biso   1.000  C
  H69      1.0000 0.48330  0.86730  0.38280  Biso   1.000  H
  C123     1.0000 0.55034  0.90109  0.39960  Biso   1.000  C
  C124     1.0000 0.60035  0.89886  0.38734  Biso   1.000  C
  H70      1.0000 0.62210  0.92290  0.40030  Biso   1.000  H
  C125     1.0000 0.61940  0.86286  0.35702  Biso   1.000  C
  H71      1.0000 0.65380  0.86150  0.35080  Biso   1.000  H
  C126     1.0000 0.53016  0.93857  0.43576  Biso   1.000  C
  C127     1.0000 0.65096  0.79779  0.27592  Biso   1.000  C
  C128     1.0000 0.68812  0.76112  0.27560  Biso   1.000  C
  H72      1.0000 0.68340  0.73130  0.29300  Biso   1.000  H
  N9       1.0000 0.29034  0.10588  0.80376  Biso   1.000  N
  O33      1.0000 0.06940  0.02441  0.76260  Biso   1.000  O
  O34      1.0000 0.07097  0.01920  0.84543  Biso   1.000  O
  O35      1.0000 0.43467  0.98525  0.94922  Biso   1.000  O
  O36      1.0000 0.47210  0.06159  0.94963  Biso   1.000  O
  C129     1.0000 0.09058  0.02854  0.80386  Biso   1.000  C
  C130     1.0000 0.14371  0.04668  0.80350  Biso   1.000  C
  C131     1.0000 0.16941  0.05330  0.84839  Biso   1.000  C
  H73      1.0000 0.15400  0.04520  0.87810  Biso   1.000  H
  C132     1.0000 0.21803  0.07211  0.84771  Biso   1.000  C
  H74      1.0000 0.23530  0.07640  0.87720  Biso   1.000  H
  C133     1.0000 0.24110  0.08447  0.80393  Biso   1.000  C
  C134     1.0000 0.21559  0.07812  0.76057  Biso   1.000  C
  H75      1.0000 0.23090  0.08690  0.73100  Biso   1.000  H
  C135     1.0000 0.16737  0.05876  0.76022  Biso   1.000  C
  H76      1.0000 0.15090  0.05390  0.73040  Biso   1.000  H
  C136     1.0000 0.32767  0.08682  0.83511  Biso   1.000  C
  C137     1.0000 0.33075  0.03636  0.84661  Biso   1.000  C
  H77      1.0000 0.30740  0.01440  0.83280  Biso   1.000  H
  C138     1.0000 0.36591  0.01773  0.87677  Biso   1.000  C
  H78      1.0000 0.36730  0.98330  0.88280  Biso   1.000  H
  C139     1.0000 0.40109  0.05034  0.89960  Biso   1.000  C
  C140     1.0000 0.39886  0.10035  0.88734  Biso   1.000  C
  H79      1.0000 0.42290  0.12210  0.90030  Biso   1.000  H
  C141     1.0000 0.36286  0.11940  0.85702  Biso   1.000  C
  H80      1.0000 0.36150  0.15380  0.85080  Biso   1.000  H
  C142     1.0000 0.43857  0.03016  0.93576  Biso   1.000  C
  C143     1.0000 0.29779  0.15096  0.77592  Biso   1.000  C
  C144     1.0000 0.26112  0.18812  0.77560  Biso   1.000  C
  H81      1.0000 0.23130  0.18340  0.79300  Biso   1.000  H
  N10      1.0000 0.70966  0.89412  0.80376  Biso   1.000  N
  O37      1.0000 0.93060  0.97559  0.76260  Biso   1.000  O
  O38      1.0000 0.92903  0.98080  0.84543  Biso   1.000  O
  O39      1.0000 0.56533  0.01475  0.94922  Biso   1.000  O
  O40      1.0000 0.52790  0.93841  0.94963  Biso   1.000  O
  C145     1.0000 0.90942  0.97146  0.80386  Biso   1.000  C
  C146     1.0000 0.85629  0.95332  0.80350  Biso   1.000  C
  C147     1.0000 0.83059  0.94670  0.84839  Biso   1.000  C
  H82      1.0000 0.84600  0.95480  0.87810  Biso   1.000  H
  C148     1.0000 0.78197  0.92789  0.84771  Biso   1.000  C
  H83      1.0000 0.76470  0.92360  0.87720  Biso   1.000  H
  C149     1.0000 0.75890  0.91553  0.80393  Biso   1.000  C
  C150     1.0000 0.78441  0.92188  0.76057  Biso   1.000  C
  H84      1.0000 0.76910  0.91310  0.73100  Biso   1.000  H
  C151     1.0000 0.83263  0.94124  0.76022  Biso   1.000  C
  H85      1.0000 0.84910  0.94610  0.73040  Biso   1.000  H
  C152     1.0000 0.67233  0.91318  0.83511  Biso   1.000  C
  C153     1.0000 0.66925  0.96364  0.84661  Biso   1.000  C
  H86      1.0000 0.69260  0.98560  0.83280  Biso   1.000  H
  C154     1.0000 0.63409  0.98227  0.87677  Biso   1.000  C
  H87      1.0000 0.63270  0.01670  0.88280  Biso   1.000  H
  C155     1.0000 0.59891  0.94966  0.89960  Biso   1.000  C
  C156     1.0000 0.60114  0.89965  0.88734  Biso   1.000  C
  H88      1.0000 0.57710  0.87790  0.90030  Biso   1.000  H
  C157     1.0000 0.63714  0.88060  0.85702  Biso   1.000  C
  H89      1.0000 0.63850  0.84620  0.85080  Biso   1.000  H
  C158     1.0000 0.56143  0.96984  0.93576  Biso   1.000  C
  C159     1.0000 0.70221  0.84904  0.77592  Biso   1.000  C
  C160     1.0000 0.73888  0.81188  0.77560  Biso   1.000  C
  H90      1.0000 0.76870  0.81660  0.79300  Biso   1.000  H
  N11      1.0000 0.89412  0.29034  0.80376  Biso   1.000  N
  O41      1.0000 0.97559  0.06940  0.76260  Biso   1.000  O
  O42      1.0000 0.98080  0.07097  0.84543  Biso   1.000  O
  O43      1.0000 0.01475  0.43467  0.94922  Biso   1.000  O
  O44      1.0000 0.93841  0.47210  0.94963  Biso   1.000  O
  C161     1.0000 0.97146  0.09058  0.80386  Biso   1.000  C
  C162     1.0000 0.95332  0.14371  0.80350  Biso   1.000  C
  C163     1.0000 0.94670  0.16941  0.84839  Biso   1.000  C
  H91      1.0000 0.95480  0.15400  0.87810  Biso   1.000  H
  C164     1.0000 0.92789  0.21803  0.84771  Biso   1.000  C
  H92      1.0000 0.92360  0.23530  0.87720  Biso   1.000  H
  C165     1.0000 0.91553  0.24110  0.80393  Biso   1.000  C
  C166     1.0000 0.92188  0.21559  0.76057  Biso   1.000  C
  H93      1.0000 0.91310  0.23090  0.73100  Biso   1.000  H
  C167     1.0000 0.94124  0.16737  0.76022  Biso   1.000  C
  H94      1.0000 0.94610  0.15090  0.73040  Biso   1.000  H
  C168     1.0000 0.91318  0.32767  0.83511  Biso   1.000  C
  C169     1.0000 0.96364  0.33075  0.84661  Biso   1.000  C
  H95      1.0000 0.98560  0.30740  0.83280  Biso   1.000  H
  C170     1.0000 0.98227  0.36591  0.87677  Biso   1.000  C
  H96      1.0000 0.01670  0.36730  0.88280  Biso   1.000  H
  C171     1.0000 0.94966  0.40109  0.89960  Biso   1.000  C
  C172     1.0000 0.89965  0.39886  0.88734  Biso   1.000  C
  H97      1.0000 0.87790  0.42290  0.90030  Biso   1.000  H
  C173     1.0000 0.88060  0.36286  0.85702  Biso   1.000  C
  H98      1.0000 0.84620  0.36150  0.85080  Biso   1.000  H
  C174     1.0000 0.96984  0.43857  0.93576  Biso   1.000  C
  C175     1.0000 0.84904  0.29779  0.77592  Biso   1.000  C
  C176     1.0000 0.81188  0.26112  0.77560  Biso   1.000  C
  H99      1.0000 0.81660  0.23130  0.79300  Biso   1.000  H
  N12      1.0000 0.10588  0.70966  0.80376  Biso   1.000  N
  O45      1.0000 0.02441  0.93060  0.76260  Biso   1.000  O
  O46      1.0000 0.01920  0.92903  0.84543  Biso   1.000  O
  O47      1.0000 0.98525  0.56533  0.94922  Biso   1.000  O
  O48      1.0000 0.06159  0.52790  0.94963  Biso   1.000  O
  C177     1.0000 0.02854  0.90942  0.80386  Biso   1.000  C
  C178     1.0000 0.04668  0.85629  0.80350  Biso   1.000  C
  C179     1.0000 0.05330  0.83059  0.84839  Biso   1.000  C
  H100     1.0000 0.04520  0.84600  0.87810  Biso   1.000  H
  C180     1.0000 0.07211  0.78197  0.84771  Biso   1.000  C
  H101     1.0000 0.07640  0.76470  0.87720  Biso   1.000  H
  C181     1.0000 0.08447  0.75890  0.80393  Biso   1.000  C
  C182     1.0000 0.07812  0.78441  0.76057  Biso   1.000  C
  H102     1.0000 0.08690  0.76910  0.73100  Biso   1.000  H
  C183     1.0000 0.05876  0.83263  0.76022  Biso   1.000  C
  H103     1.0000 0.05390  0.84910  0.73040  Biso   1.000  H
  C184     1.0000 0.08682  0.67233  0.83511  Biso   1.000  C
  C185     1.0000 0.03636  0.66925  0.84661  Biso   1.000  C
  H104     1.0000 0.01440  0.69260  0.83280  Biso   1.000  H
  C186     1.0000 0.01773  0.63409  0.87677  Biso   1.000  C
  H105     1.0000 0.98330  0.63270  0.88280  Biso   1.000  H
  C187     1.0000 0.05034  0.59891  0.89960  Biso   1.000  C
  C188     1.0000 0.10035  0.60114  0.88734  Biso   1.000  C
  H106     1.0000 0.12210  0.57710  0.90030  Biso   1.000  H
  C189     1.0000 0.11940  0.63714  0.85702  Biso   1.000  C
  H107     1.0000 0.15380  0.63850  0.85080  Biso   1.000  H
  C190     1.0000 0.03016  0.56143  0.93576  Biso   1.000  C
  C191     1.0000 0.15096  0.70221  0.77592  Biso   1.000  C
  C192     1.0000 0.18812  0.73888  0.77560  Biso   1.000  C
  H108     1.0000 0.18340  0.76870  0.79300  Biso   1.000  H
  N13      1.0000 0.20966  0.60588  0.69624  Biso   1.000  N
  O49      1.0000 0.43060  0.52441  0.73740  Biso   1.000  O
  O50      1.0000 0.42903  0.51920  0.65457  Biso   1.000  O
  O51      1.0000 0.06533  0.48525  0.55078  Biso   1.000  O
  O52      1.0000 0.02790  0.56159  0.55037  Biso   1.000  O
  C193     1.0000 0.40942  0.52854  0.69614  Biso   1.000  C
  C194     1.0000 0.35629  0.54668  0.69650  Biso   1.000  C
  C195     1.0000 0.33059  0.55330  0.65161  Biso   1.000  C
  H109     1.0000 0.34600  0.54520  0.62190  Biso   1.000  H
  C196     1.0000 0.28197  0.57211  0.65229  Biso   1.000  C
  H110     1.0000 0.26470  0.57640  0.62280  Biso   1.000  H
  C197     1.0000 0.25890  0.58447  0.69607  Biso   1.000  C
  C198     1.0000 0.28441  0.57812  0.73943  Biso   1.000  C
  H111     1.0000 0.26910  0.58690  0.76900  Biso   1.000  H
  C199     1.0000 0.33263  0.55876  0.73978  Biso   1.000  C
  H112     1.0000 0.34910  0.55390  0.76960  Biso   1.000  H
  C200     1.0000 0.17233  0.58682  0.66489  Biso   1.000  C
  C201     1.0000 0.16925  0.53636  0.65339  Biso   1.000  C
  H113     1.0000 0.19260  0.51440  0.66720  Biso   1.000  H
  C202     1.0000 0.13409  0.51773  0.62323  Biso   1.000  C
  H114     1.0000 0.13270  0.48330  0.61720  Biso   1.000  H
  C203     1.0000 0.09891  0.55034  0.60040  Biso   1.000  C
  C204     1.0000 0.10114  0.60035  0.61266  Biso   1.000  C
  H115     1.0000 0.07710  0.62210  0.59970  Biso   1.000  H
  C205     1.0000 0.13714  0.61940  0.64298  Biso   1.000  C
  H116     1.0000 0.13850  0.65380  0.64920  Biso   1.000  H
  C206     1.0000 0.06143  0.53016  0.56424  Biso   1.000  C
  C207     1.0000 0.20221  0.65096  0.72408  Biso   1.000  C
  C208     1.0000 0.23888  0.68812  0.72440  Biso   1.000  C
  H117     1.0000 0.26870  0.68340  0.70700  Biso   1.000  H
  N14      1.0000 0.79034  0.39412  0.69624  Biso   1.000  N
  O53      1.0000 0.56940  0.47559  0.73740  Biso   1.000  O
  O54      1.0000 0.57097  0.48080  0.65457  Biso   1.000  O
  O55      1.0000 0.93467  0.51475  0.55078  Biso   1.000  O
  O56      1.0000 0.97210  0.43841  0.55037  Biso   1.000  O
  C209     1.0000 0.59058  0.47146  0.69614  Biso   1.000  C
  C210     1.0000 0.64371  0.45332  0.69650  Biso   1.000  C
  C211     1.0000 0.66941  0.44670  0.65161  Biso   1.000  C
  H118     1.0000 0.65400  0.45480  0.62190  Biso   1.000  H
  C212     1.0000 0.71803  0.42789  0.65229  Biso   1.000  C
  H119     1.0000 0.73530  0.42360  0.62280  Biso   1.000  H
  C213     1.0000 0.74110  0.41553  0.69607  Biso   1.000  C
  C214     1.0000 0.71559  0.42188  0.73943  Biso   1.000  C
  H120     1.0000 0.73090  0.41310  0.76900  Biso   1.000  H
  C215     1.0000 0.66737  0.44124  0.73978  Biso   1.000  C
  H121     1.0000 0.65090  0.44610  0.76960  Biso   1.000  H
  C216     1.0000 0.82767  0.41318  0.66489  Biso   1.000  C
  C217     1.0000 0.83075  0.46364  0.65339  Biso   1.000  C
  H122     1.0000 0.80740  0.48560  0.66720  Biso   1.000  H
  C218     1.0000 0.86591  0.48227  0.62323  Biso   1.000  C
  H123     1.0000 0.86730  0.51670  0.61720  Biso   1.000  H
  C219     1.0000 0.90109  0.44966  0.60040  Biso   1.000  C
  C220     1.0000 0.89886  0.39965  0.61266  Biso   1.000  C
  H124     1.0000 0.92290  0.37790  0.59970  Biso   1.000  H
  C221     1.0000 0.86286  0.38060  0.64298  Biso   1.000  C
  H125     1.0000 0.86150  0.34620  0.64920  Biso   1.000  H
  C222     1.0000 0.93857  0.46984  0.56424  Biso   1.000  C
  C223     1.0000 0.79779  0.34904  0.72408  Biso   1.000  C
  C224     1.0000 0.76112  0.31188  0.72440  Biso   1.000  C
  H126     1.0000 0.73130  0.31660  0.70700  Biso   1.000  H
  N15      1.0000 0.60588  0.79034  0.69624  Biso   1.000  N
  O57      1.0000 0.52441  0.56940  0.73740  Biso   1.000  O
  O58      1.0000 0.51920  0.57097  0.65457  Biso   1.000  O
  O59      1.0000 0.48525  0.93467  0.55078  Biso   1.000  O
  O60      1.0000 0.56159  0.97210  0.55037  Biso   1.000  O
  C225     1.0000 0.52854  0.59058  0.69614  Biso   1.000  C
  C226     1.0000 0.54668  0.64371  0.69650  Biso   1.000  C
  C227     1.0000 0.55330  0.66941  0.65161  Biso   1.000  C
  H127     1.0000 0.54520  0.65400  0.62190  Biso   1.000  H
  C228     1.0000 0.57211  0.71803  0.65229  Biso   1.000  C
  H128     1.0000 0.57640  0.73530  0.62280  Biso   1.000  H
  C229     1.0000 0.58447  0.74110  0.69607  Biso   1.000  C
  C230     1.0000 0.57812  0.71559  0.73943  Biso   1.000  C
  H129     1.0000 0.58690  0.73090  0.76900  Biso   1.000  H
  C231     1.0000 0.55876  0.66737  0.73978  Biso   1.000  C
  H130     1.0000 0.55390  0.65090  0.76960  Biso   1.000  H
  C232     1.0000 0.58682  0.82767  0.66489  Biso   1.000  C
  C233     1.0000 0.53636  0.83075  0.65339  Biso   1.000  C
  H131     1.0000 0.51440  0.80740  0.66720  Biso   1.000  H
  C234     1.0000 0.51773  0.86591  0.62323  Biso   1.000  C
  H132     1.0000 0.48330  0.86730  0.61720  Biso   1.000  H
  C235     1.0000 0.55034  0.90109  0.60040  Biso   1.000  C
  C236     1.0000 0.60035  0.89886  0.61266  Biso   1.000  C
  H133     1.0000 0.62210  0.92290  0.59970  Biso   1.000  H
  C237     1.0000 0.61940  0.86286  0.64298  Biso   1.000  C
  H134     1.0000 0.65380  0.86150  0.64920  Biso   1.000  H
  C238     1.0000 0.53016  0.93857  0.56424  Biso   1.000  C
  C239     1.0000 0.65096  0.79779  0.72408  Biso   1.000  C
  C240     1.0000 0.68812  0.76112  0.72440  Biso   1.000  C
  H135     1.0000 0.68340  0.73130  0.70700  Biso   1.000  H
  N16      1.0000 0.39412  0.20966  0.69624  Biso   1.000  N
  O61      1.0000 0.47559  0.43060  0.73740  Biso   1.000  O
  O62      1.0000 0.48080  0.42903  0.65457  Biso   1.000  O
  O63      1.0000 0.51475  0.06533  0.55078  Biso   1.000  O
  O64      1.0000 0.43841  0.02790  0.55037  Biso   1.000  O
  C241     1.0000 0.47146  0.40942  0.69614  Biso   1.000  C
  C242     1.0000 0.45332  0.35629  0.69650  Biso   1.000  C
  C243     1.0000 0.44670  0.33059  0.65161  Biso   1.000  C
  H136     1.0000 0.45480  0.34600  0.62190  Biso   1.000  H
  C244     1.0000 0.42789  0.28197  0.65229  Biso   1.000  C
  H137     1.0000 0.42360  0.26470  0.62280  Biso   1.000  H
  C245     1.0000 0.41553  0.25890  0.69607  Biso   1.000  C
  C246     1.0000 0.42188  0.28441  0.73943  Biso   1.000  C
  H138     1.0000 0.41310  0.26910  0.76900  Biso   1.000  H
  C247     1.0000 0.44124  0.33263  0.73978  Biso   1.000  C
  H139     1.0000 0.44610  0.34910  0.76960  Biso   1.000  H
  C248     1.0000 0.41318  0.17233  0.66489  Biso   1.000  C
  C249     1.0000 0.46364  0.16925  0.65339  Biso   1.000  C
  H140     1.0000 0.48560  0.19260  0.66720  Biso   1.000  H
  C250     1.0000 0.48227  0.13409  0.62323  Biso   1.000  C
  H141     1.0000 0.51670  0.13270  0.61720  Biso   1.000  H
  C251     1.0000 0.44966  0.09891  0.60040  Biso   1.000  C
  C252     1.0000 0.39965  0.10114  0.61266  Biso   1.000  C
  H142     1.0000 0.37790  0.07710  0.59970  Biso   1.000  H
  C253     1.0000 0.38060  0.13714  0.64298  Biso   1.000  C
  H143     1.0000 0.34620  0.13850  0.64920  Biso   1.000  H
  C254     1.0000 0.46984  0.06143  0.56424  Biso   1.000  C
  C255     1.0000 0.34904  0.20221  0.72408  Biso   1.000  C
  C256     1.0000 0.31188  0.23888  0.72440  Biso   1.000  C
  H144     1.0000 0.31660  0.26870  0.70700  Biso   1.000  H
  Cu1      1.0000 0.00000  0.00000  0.14756  Biso   1.000  Cu
  Cu2      1.0000 0.00000  0.00000  0.24479  Biso   1.000  Cu
  Cu3      1.0000 0.50000  0.50000  0.35244  Biso   1.000  Cu
  Cu4      1.0000 0.50000  0.50000  0.25521  Biso   1.000  Cu
  Cu5      1.0000 0.00000  0.00000  0.85244  Biso   1.000  Cu
  Cu6      1.0000 0.00000  0.00000  0.75521  Biso   1.000  Cu
  Cu7      1.0000 0.50000  0.50000  0.64756  Biso   1.000  Cu
  Cu8      1.0000 0.50000  0.50000  0.74479  Biso   1.000  Cu
  Cu9      1.0000 0.52209  0.04421  0.00000  Biso   1.000  Cu
  Cu10     1.0000 0.47791  0.95579  0.00000  Biso   1.000  Cu
  Cu11     1.0000 0.95579  0.52209  0.00000  Biso   1.000  Cu
  Cu12     1.0000 0.04421  0.47791  0.00000  Biso   1.000  Cu
  Cu13     1.0000 0.97791  0.54421  0.50000  Biso   1.000  Cu
  Cu14     1.0000 0.02209  0.45579  0.50000  Biso   1.000  Cu
  Cu15     1.0000 0.54421  0.02209  0.50000  Biso   1.000  Cu
  Cu16     1.0000 0.45579  0.97791  0.50000  Biso   1.000  Cu
  C257     1.0000 0.65870  0.84130  0.25000  Biso   1.000  C
  H145     1.0000 0.63400  0.86600  0.25000  Biso   1.000  H
  C258     1.0000 0.73125  0.76875  0.25000  Biso   1.000  C
  H146     1.0000 0.75600  0.74400  0.25000  Biso   1.000  H
  C259     1.0000 0.34130  0.15870  0.25000  Biso   1.000  C
  H147     1.0000 0.36600  0.13400  0.25000  Biso   1.000  H
  C260     1.0000 0.26875  0.23125  0.25000  Biso   1.000  C
  H148     1.0000 0.24400  0.25600  0.25000  Biso   1.000  H
  C261     1.0000 0.15870  0.65870  0.25000  Biso   1.000  C
  H149     1.0000 0.13400  0.63400  0.25000  Biso   1.000  H
  C262     1.0000 0.23125  0.73125  0.25000  Biso   1.000  C
  H150     1.0000 0.25600  0.75600  0.25000  Biso   1.000  H
  C263     1.0000 0.84130  0.34130  0.25000  Biso   1.000  C
  H151     1.0000 0.86600  0.36600  0.25000  Biso   1.000  H
  C264     1.0000 0.76875  0.26875  0.25000  Biso   1.000  C
  H152     1.0000 0.74400  0.24400  0.25000  Biso   1.000  H
  C265     1.0000 0.34130  0.15870  0.75000  Biso   1.000  C
  H153     1.0000 0.36600  0.13400  0.75000  Biso   1.000  H
  C266     1.0000 0.26875  0.23125  0.75000  Biso   1.000  C
  H154     1.0000 0.24400  0.25600  0.75000  Biso   1.000  H
  C267     1.0000 0.65870  0.84130  0.75000  Biso   1.000  C
  H155     1.0000 0.63400  0.86600  0.75000  Biso   1.000  H
  C268     1.0000 0.73125  0.76875  0.75000  Biso   1.000  C
  H156     1.0000 0.75600  0.74400  0.75000  Biso   1.000  H
  C269     1.0000 0.84130  0.34130  0.75000  Biso   1.000  C
  H157     1.0000 0.86600  0.36600  0.75000  Biso   1.000  H
  C270     1.0000 0.76875  0.26875  0.75000  Biso   1.000  C
  H158     1.0000 0.74400  0.24400  0.75000  Biso   1.000  H
  C271     1.0000 0.15870  0.65870  0.75000  Biso   1.000  C
  H159     1.0000 0.13400  0.63400  0.75000  Biso   1.000  H
  C272     1.0000 0.23125  0.73125  0.75000  Biso   1.000  C
  H160     1.0000 0.25600  0.75600  0.75000  Biso   1.000  H
