data_image0
_cell_length_a       13.0022
_cell_length_b       13.3793
_cell_length_c       25.8929
_cell_angle_alpha    84.06
_cell_angle_beta     88.104
_cell_angle_gamma    66.361

_symmetry_space_group_name_H-M    "P 1"
_symmetry_int_tables_number       1

loop_
  _symmetry_equiv_pos_as_xyz
  'x, y, z'

loop_
  _atom_site_label
  _atom_site_occupancy
  _atom_site_fract_x
  _atom_site_fract_y
  _atom_site_fract_z
  _atom_site_thermal_displace_type
  _atom_site_B_iso_or_equiv
  _atom_site_type_symbol
  Tb1      1.0000 0.62516  0.30672  0.50582  Biso   1.000  Tb
  Tb2      1.0000 0.84212  0.62555  0.04299  Biso   1.000  Tb
  C1       1.0000 0.80940  0.71190  0.13810  Biso   1.000  C
  C2       1.0000 0.79150  0.75900  0.18920  Biso   1.000  C
  C3       1.0000 0.80120  0.85840  0.19330  Biso   1.000  C
  H1       1.0000 0.82340  0.89380  0.16510  Biso   1.000  H
  C4       1.0000 0.76100  0.70400  0.23200  Biso   1.000  C
  H2       1.0000 0.75830  0.63640  0.22890  Biso   1.000  H
  C5       1.0000 0.73480  0.74950  0.27910  Biso   1.000  C
  H3       1.0000 0.71270  0.71420  0.30730  Biso   1.000  H
  C6       1.0000 0.74230  0.84900  0.28270  Biso   1.000  C
  C7       1.0000 0.77720  0.90240  0.24040  Biso   1.000  C
  C8       1.0000 0.78070  0.00880  0.25510  Biso   1.000  C
  C9       1.0000 0.70560  0.10910  0.21970  Biso   1.000  C
  H4       1.0000 0.73210  0.10190  0.18470  Biso   1.000  H
  H5       1.0000 0.70790  0.17410  0.23120  Biso   1.000  H
  H6       1.0000 0.62970  0.11430  0.22100  Biso   1.000  H
  C10      1.0000 0.90210  0.00050  0.25370  Biso   1.000  C
  H7       1.0000 0.94840  0.93710  0.27570  Biso   1.000  H
  H8       1.0000 0.90430  0.06510  0.26580  Biso   1.000  H
  H9       1.0000 0.92940  0.99400  0.21870  Biso   1.000  H
  C11      1.0000 0.73760  0.01080  0.31070  Biso   1.000  C
  C12      1.0000 0.71580  0.91830  0.32580  Biso   1.000  C
  C13      1.0000 0.67390  0.90280  0.37510  Biso   1.000  C
  H10      1.0000 0.65800  0.84160  0.38480  Biso   1.000  H
  C14      1.0000 0.65650  0.98270  0.40930  Biso   1.000  C
  H11      1.0000 0.62810  0.97480  0.44220  Biso   1.000  H
  C15      1.0000 0.72210  0.08850  0.34500  Biso   1.000  C
  H12      1.0000 0.73850  0.14940  0.33530  Biso   1.000  H
  C16      1.0000 0.68130  0.07350  0.39460  Biso   1.000  C
  C17      1.0000 0.66690  0.15430  0.43310  Biso   1.000  C
  C18      1.0000 0.57610  0.20080  0.62240  Biso   1.000  C
  C19      1.0000 0.63840  0.13830  0.67150  Biso   1.000  C
  C20      1.0000 0.57910  0.13040  0.71630  Biso   1.000  C
  H13      1.0000 0.50110  0.16430  0.71630  Biso   1.000  H
  C21      1.0000 0.75550  0.08690  0.67150  Biso   1.000  C
  H14      1.0000 0.79420  0.09190  0.64110  Biso   1.000  H
  C22      1.0000 0.81500  0.02850  0.71600  Biso   1.000  C
  H15      1.0000 0.89300  0.99490  0.71590  Biso   1.000  H
  C23      1.0000 0.75500  0.02140  0.76110  Biso   1.000  C
  C24      1.0000 0.63760  0.07120  0.76100  Biso   1.000  C
  C25      1.0000 0.58980  0.04690  0.81310  Biso   1.000  C
  C26      1.0000 0.51550  0.98480  0.80660  Biso   1.000  C
  H16      1.0000 0.55790  0.91870  0.79080  Biso   1.000  H
  H17      1.0000 0.45200  0.03000  0.78490  Biso   1.000  H
  H18      1.0000 0.48990  0.96660  0.84000  Biso   1.000  H
  C27      1.0000 0.52590  0.15140  0.83920  Biso   1.000  C
  H19      1.0000 0.49870  0.13290  0.87220  Biso   1.000  H
  H20      1.0000 0.46360  0.19960  0.81760  Biso   1.000  H
  H21      1.0000 0.57500  0.18730  0.84440  Biso   1.000  H
  C28      1.0000 0.69670  0.97470  0.84280  Biso   1.000  C
  C29      1.0000 0.79300  0.96390  0.81330  Biso   1.000  C
  C30      1.0000 0.90010  0.90210  0.83380  Biso   1.000  C
  H22      1.0000 0.96360  0.89670  0.81470  Biso   1.000  H
  C31      1.0000 0.70830  0.91990  0.89200  Biso   1.000  C
  H23      1.0000 0.64490  0.92660  0.91140  Biso   1.000  H
  C32      1.0000 0.91000  0.84900  0.88340  Biso   1.000  C
  H24      1.0000 0.98110  0.80860  0.89780  Biso   1.000  H
  C33      1.0000 0.81500  0.85470  0.91240  Biso   1.000  C
  C34      1.0000 0.82540  0.78770  0.96310  Biso   1.000  C
  C35      1.0000 0.87830  0.50260  0.92870  Biso   1.000  C
  C36      1.0000 0.80910  0.51940  0.88050  Biso   1.000  C
  C37      1.0000 0.84210  0.44020  0.84510  Biso   1.000  C
  H25      1.0000 0.90530  0.37530  0.85160  Biso   1.000  H
  C38      1.0000 0.71550  0.61540  0.87070  Biso   1.000  C
  H26      1.0000 0.69340  0.66650  0.89500  Biso   1.000  H
  C39      1.0000 0.65340  0.63730  0.82520  Biso   1.000  C
  H27      1.0000 0.59130  0.70310  0.81850  Biso   1.000  H
  C40      1.0000 0.68580  0.55910  0.78980  Biso   1.000  C
  C41      1.0000 0.77860  0.46020  0.79970  Biso   1.000  C
  C42      1.0000 0.79360  0.38640  0.75690  Biso   1.000  C
  C43      1.0000 0.90900  0.34190  0.73400  Biso   1.000  C
  H28      1.0000 0.92230  0.40390  0.71850  Biso   1.000  H
  H29      1.0000 0.91390  0.29410  0.70800  Biso   1.000  H
  H30      1.0000 0.96420  0.30290  0.76070  Biso   1.000  H
  C44      1.0000 0.76430  0.28750  0.77810  Biso   1.000  C
  H31      1.0000 0.81340  0.24670  0.80670  Biso   1.000  H
  H32      1.0000 0.77380  0.24070  0.75100  Biso   1.000  H
  H33      1.0000 0.68790  0.31410  0.78950  Biso   1.000  H
  C45      1.0000 0.70310  0.46220  0.71820  Biso   1.000  C
  C46      1.0000 0.63990  0.56110  0.73860  Biso   1.000  C
  C47      1.0000 0.54950  0.64180  0.71040  Biso   1.000  C
  H34      1.0000 0.50570  0.70690  0.72420  Biso   1.000  H
  C48      1.0000 0.52680  0.62240  0.66140  Biso   1.000  C
  H35      1.0000 0.46770  0.67600  0.64200  Biso   1.000  H
  C49      1.0000 0.67810  0.44390  0.66920  Biso   1.000  C
  H36      1.0000 0.72010  0.37790  0.65570  Biso   1.000  H
  C50      1.0000 0.59020  0.52470  0.64060  Biso   1.000  C
  C51      1.0000 0.56150  0.50500  0.58780  Biso   1.000  C
  O1       1.0000 0.81950  0.76870  0.09730  Biso   1.000  O
  O2       1.0000 0.81230  0.61700  0.13571  Biso   1.000  O
  O3       1.0000 0.71790  0.21730  0.42703  Biso   1.000  O
  O4       1.0000 0.60390  0.15620  0.47214  Biso   1.000  O
  O5       1.0000 0.63270  0.19270  0.58138  Biso   1.000  O
  O6       1.0000 0.47180  0.25630  0.62540  Biso   1.000  O
  O7       1.0000 0.92270  0.72440  0.98093  Biso   1.000  O
  O8       1.0000 0.73850  0.79120  0.98691  Biso   1.000  O
  O9       1.0000 0.83670  0.56310  0.96345  Biso   1.000  O
  O10      1.0000 0.97580  0.42880  0.93004  Biso   1.000  O
  O11      1.0000 0.48870  0.58350  0.56091  Biso   1.000  O
  O12      1.0000 0.61170  0.41180  0.57347  Biso   1.000  O
  Tb3      1.0000 0.37484  0.69328  0.49418  Biso   1.000  Tb
  Tb4      1.0000 0.15788  0.37445  0.95701  Biso   1.000  Tb
  C52      1.0000 0.19060  0.28810  0.86190  Biso   1.000  C
  C53      1.0000 0.20850  0.24100  0.81080  Biso   1.000  C
  C54      1.0000 0.19880  0.14160  0.80670  Biso   1.000  C
  H37      1.0000 0.17660  0.10620  0.83490  Biso   1.000  H
  C55      1.0000 0.23900  0.29600  0.76800  Biso   1.000  C
  H38      1.0000 0.24170  0.36360  0.77110  Biso   1.000  H
  C56      1.0000 0.26520  0.25050  0.72090  Biso   1.000  C
  H39      1.0000 0.28730  0.28580  0.69270  Biso   1.000  H
  C57      1.0000 0.25770  0.15100  0.71730  Biso   1.000  C
  C58      1.0000 0.22280  0.09760  0.75960  Biso   1.000  C
  C59      1.0000 0.21930  0.99120  0.74490  Biso   1.000  C
  C60      1.0000 0.29440  0.89090  0.78030  Biso   1.000  C
  H40      1.0000 0.26790  0.89810  0.81530  Biso   1.000  H
  H41      1.0000 0.29210  0.82590  0.76880  Biso   1.000  H
  H42      1.0000 0.37030  0.88570  0.77900  Biso   1.000  H
  C61      1.0000 0.09790  0.99950  0.74630  Biso   1.000  C
  H43      1.0000 0.05160  0.06290  0.72430  Biso   1.000  H
  H44      1.0000 0.09570  0.93490  0.73420  Biso   1.000  H
  H45      1.0000 0.07060  0.00600  0.78130  Biso   1.000  H
  C62      1.0000 0.26240  0.98920  0.68930  Biso   1.000  C
  C63      1.0000 0.28420  0.08170  0.67420  Biso   1.000  C
  C64      1.0000 0.32610  0.09720  0.62490  Biso   1.000  C
  H46      1.0000 0.34200  0.15840  0.61520  Biso   1.000  H
  C65      1.0000 0.34350  0.01730  0.59070  Biso   1.000  C
  H47      1.0000 0.37190  0.02520  0.55780  Biso   1.000  H
  C66      1.0000 0.27790  0.91150  0.65500  Biso   1.000  C
  H48      1.0000 0.26150  0.85060  0.66470  Biso   1.000  H
  C67      1.0000 0.31870  0.92650  0.60540  Biso   1.000  C
  C68      1.0000 0.33310  0.84570  0.56690  Biso   1.000  C
  C69      1.0000 0.42390  0.79920  0.37760  Biso   1.000  C
  C70      1.0000 0.36160  0.86170  0.32850  Biso   1.000  C
  C71      1.0000 0.42090  0.86960  0.28370  Biso   1.000  C
  H49      1.0000 0.49890  0.83570  0.28370  Biso   1.000  H
  C72      1.0000 0.24450  0.91310  0.32850  Biso   1.000  C
  H50      1.0000 0.20580  0.90810  0.35890  Biso   1.000  H
  C73      1.0000 0.18500  0.97150  0.28400  Biso   1.000  C
  H51      1.0000 0.10700  0.00510  0.28410  Biso   1.000  H
  C74      1.0000 0.24500  0.97860  0.23890  Biso   1.000  C
  C75      1.0000 0.36240  0.92880  0.23900  Biso   1.000  C
  C76      1.0000 0.41020  0.95310  0.18690  Biso   1.000  C
  C77      1.0000 0.48450  0.01520  0.19340  Biso   1.000  C
  H52      1.0000 0.44210  0.08130  0.20920  Biso   1.000  H
  H53      1.0000 0.54800  0.97000  0.21510  Biso   1.000  H
  H54      1.0000 0.51010  0.03340  0.16000  Biso   1.000  H
  C78      1.0000 0.47410  0.84860  0.16080  Biso   1.000  C
  H55      1.0000 0.50130  0.86710  0.12780  Biso   1.000  H
  H56      1.0000 0.53640  0.80040  0.18240  Biso   1.000  H
  H57      1.0000 0.42500  0.81270  0.15560  Biso   1.000  H
  C79      1.0000 0.30330  0.02530  0.15720  Biso   1.000  C
  C80      1.0000 0.20700  0.03610  0.18670  Biso   1.000  C
  C81      1.0000 0.09990  0.09790  0.16620  Biso   1.000  C
  H58      1.0000 0.03640  0.10330  0.18530  Biso   1.000  H
  C82      1.0000 0.29170  0.08010  0.10800  Biso   1.000  C
  H59      1.0000 0.35510  0.07340  0.08860  Biso   1.000  H
  C83      1.0000 0.09000  0.15100  0.11660  Biso   1.000  C
  H60      1.0000 0.01890  0.19140  0.10220  Biso   1.000  H
  C84      1.0000 0.18500  0.14530  0.08760  Biso   1.000  C
  C85      1.0000 0.17460  0.21230  0.03690  Biso   1.000  C
  C86      1.0000 0.12170  0.49740  0.07130  Biso   1.000  C
  C87      1.0000 0.19090  0.48060  0.11950  Biso   1.000  C
  C88      1.0000 0.15790  0.55980  0.15490  Biso   1.000  C
  H61      1.0000 0.09470  0.62470  0.14840  Biso   1.000  H
  C89      1.0000 0.28450  0.38460  0.12930  Biso   1.000  C
  H62      1.0000 0.30660  0.33350  0.10500  Biso   1.000  H
  C90      1.0000 0.34660  0.36270  0.17480  Biso   1.000  C
  H63      1.0000 0.40870  0.29690  0.18150  Biso   1.000  H
  C91      1.0000 0.31420  0.44090  0.21020  Biso   1.000  C
  C92      1.0000 0.22140  0.53980  0.20030  Biso   1.000  C
  C93      1.0000 0.20640  0.61360  0.24310  Biso   1.000  C
  C94      1.0000 0.09100  0.65810  0.26600  Biso   1.000  C
  H64      1.0000 0.07770  0.59610  0.28150  Biso   1.000  H
  H65      1.0000 0.08610  0.70590  0.29200  Biso   1.000  H
  H66      1.0000 0.03580  0.69710  0.23930  Biso   1.000  H
  C95      1.0000 0.23570  0.71250  0.22190  Biso   1.000  C
  H67      1.0000 0.18660  0.75330  0.19330  Biso   1.000  H
  H68      1.0000 0.22620  0.75930  0.24900  Biso   1.000  H
  H69      1.0000 0.31210  0.68590  0.21050  Biso   1.000  H
  C96      1.0000 0.29690  0.53780  0.28180  Biso   1.000  C
  C97      1.0000 0.36010  0.43890  0.26140  Biso   1.000  C
  C98      1.0000 0.45050  0.35820  0.28960  Biso   1.000  C
  H70      1.0000 0.49430  0.29310  0.27580  Biso   1.000  H
  C99      1.0000 0.47320  0.37760  0.33860  Biso   1.000  C
  H71      1.0000 0.53230  0.32400  0.35800  Biso   1.000  H
  C100     1.0000 0.32190  0.55610  0.33080  Biso   1.000  C
  H72      1.0000 0.27990  0.62210  0.34430  Biso   1.000  H
  C101     1.0000 0.40980  0.47530  0.35940  Biso   1.000  C
  C102     1.0000 0.43850  0.49500  0.41220  Biso   1.000  C
  O13      1.0000 0.18050  0.23130  0.90270  Biso   1.000  O
  O14      1.0000 0.18770  0.38300  0.86429  Biso   1.000  O
  O15      1.0000 0.28210  0.78270  0.57297  Biso   1.000  O
  O16      1.0000 0.39610  0.84380  0.52786  Biso   1.000  O
  O17      1.0000 0.36730  0.80730  0.41862  Biso   1.000  O
  O18      1.0000 0.52820  0.74370  0.37460  Biso   1.000  O
  O19      1.0000 0.07730  0.27560  0.01907  Biso   1.000  O
  O20      1.0000 0.26150  0.20880  0.01309  Biso   1.000  O
  O21      1.0000 0.16330  0.43690  0.03655  Biso   1.000  O
  O22      1.0000 0.02420  0.57120  0.06996  Biso   1.000  O
  O23      1.0000 0.51130  0.41650  0.43909  Biso   1.000  O
  O24      1.0000 0.38830  0.58820  0.42653  Biso   1.000  O
