data_image0
_cell_length_a       36.417
_cell_length_b       9.831
_cell_length_c       10.995
_cell_angle_alpha    90
_cell_angle_beta     106.189
_cell_angle_gamma    90

_symmetry_space_group_name_H-M    "P 1"
_symmetry_int_tables_number       1

loop_
  _symmetry_equiv_pos_as_xyz
  'x, y, z'

loop_
  _atom_site_label
  _atom_site_occupancy
  _atom_site_fract_x
  _atom_site_fract_y
  _atom_site_fract_z
  _atom_site_thermal_displace_type
  _atom_site_B_iso_or_equiv
  _atom_site_type_symbol
  Cd1      1.0000 0.21025  0.66823  0.36660  Biso   1.000  Cd
  O1       1.0000 0.15334  0.69730  0.20340  Biso   1.000  O
  C1       1.0000 0.02060  0.51510  0.03560  Biso   1.000  C
  C2       1.0000 0.13757  0.59430  0.23500  Biso   1.000  C
  C3       1.0000 0.09750  0.56220  0.16380  Biso   1.000  C
  C4       1.0000 0.04150  0.61190  0.99490  Biso   1.000  C
  H1       1.0000 0.02990  0.66250  0.92300  Biso   1.000  H
  C5       1.0000 0.07890  0.63600  0.05700  Biso   1.000  C
  H2       1.0000 0.09210  0.70320  0.02720  Biso   1.000  H
  C6       1.0000 0.07710  0.46670  0.20540  Biso   1.000  C
  H3       1.0000 0.08860  0.41690  0.27800  Biso   1.000  H
  N1       1.0000 0.23620  0.56830  0.55550  Biso   1.000  N
  C7       1.0000 0.03940  0.44290  0.14070  Biso   1.000  C
  H4       1.0000 0.02630  0.37480  0.16970  Biso   1.000  H
  C8       1.0000 0.22233  0.46540  0.60520  Biso   1.000  C
  O2       1.0000 0.15402  0.52290  0.32350  Biso   1.000  O
  N2       1.0000 0.23355  0.46560  0.73220  Biso   1.000  N
  N3       1.0000 0.25814  0.64120  0.65700  Biso   1.000  N
  C9       1.0000 0.25539  0.57900  0.75810  Biso   1.000  C
  H5       1.0000 0.26720  0.60910  0.83980  Biso   1.000  H
  N4       1.0000 0.20000  0.36520  0.53610  Biso   1.000  N
  H6       1.0000 0.19420  0.36700  0.45470  Biso   1.000  H
  H7       1.0000 0.19170  0.30040  0.57390  Biso   1.000  H
  Cd2      1.0000 0.71025  0.16823  0.36660  Biso   1.000  Cd
  O3       1.0000 0.65334  0.19730  0.20340  Biso   1.000  O
  C10      1.0000 0.52060  0.01510  0.03560  Biso   1.000  C
  C11      1.0000 0.63757  0.09430  0.23500  Biso   1.000  C
  C12      1.0000 0.59750  0.06220  0.16380  Biso   1.000  C
  C13      1.0000 0.54150  0.11190  0.99490  Biso   1.000  C
  H8       1.0000 0.52990  0.16250  0.92300  Biso   1.000  H
  C14      1.0000 0.57890  0.13600  0.05700  Biso   1.000  C
  H9       1.0000 0.59210  0.20320  0.02720  Biso   1.000  H
  C15      1.0000 0.57710  0.96670  0.20540  Biso   1.000  C
  H10      1.0000 0.58860  0.91690  0.27800  Biso   1.000  H
  N5       1.0000 0.73620  0.06830  0.55550  Biso   1.000  N
  C16      1.0000 0.53940  0.94290  0.14070  Biso   1.000  C
  H11      1.0000 0.52630  0.87480  0.16970  Biso   1.000  H
  C17      1.0000 0.72233  0.96540  0.60520  Biso   1.000  C
  O4       1.0000 0.65402  0.02290  0.32350  Biso   1.000  O
  N6       1.0000 0.73355  0.96560  0.73220  Biso   1.000  N
  N7       1.0000 0.75814  0.14120  0.65700  Biso   1.000  N
  C18      1.0000 0.75539  0.07900  0.75810  Biso   1.000  C
  H12      1.0000 0.76720  0.10910  0.83980  Biso   1.000  H
  N8       1.0000 0.70000  0.86520  0.53610  Biso   1.000  N
  H13      1.0000 0.69420  0.86700  0.45470  Biso   1.000  H
  H14      1.0000 0.69170  0.80040  0.57390  Biso   1.000  H
  Cd3      1.0000 0.78975  0.66823  0.13340  Biso   1.000  Cd
  O5       1.0000 0.84666  0.69730  0.29660  Biso   1.000  O
  C19      1.0000 0.97940  0.51510  0.46440  Biso   1.000  C
  C20      1.0000 0.86243  0.59430  0.26500  Biso   1.000  C
  C21      1.0000 0.90250  0.56220  0.33620  Biso   1.000  C
  C22      1.0000 0.95850  0.61190  0.50510  Biso   1.000  C
  H15      1.0000 0.97010  0.66250  0.57700  Biso   1.000  H
  C23      1.0000 0.92110  0.63600  0.44300  Biso   1.000  C
  H16      1.0000 0.90790  0.70320  0.47280  Biso   1.000  H
  C24      1.0000 0.92290  0.46670  0.29460  Biso   1.000  C
  H17      1.0000 0.91140  0.41690  0.22200  Biso   1.000  H
  N9       1.0000 0.76380  0.56830  0.94450  Biso   1.000  N
  C25      1.0000 0.96060  0.44290  0.35930  Biso   1.000  C
  H18      1.0000 0.97370  0.37480  0.33030  Biso   1.000  H
  C26      1.0000 0.77767  0.46540  0.89480  Biso   1.000  C
  O6       1.0000 0.84598  0.52290  0.17650  Biso   1.000  O
  N10      1.0000 0.76645  0.46560  0.76780  Biso   1.000  N
  N11      1.0000 0.74186  0.64120  0.84300  Biso   1.000  N
  C27      1.0000 0.74461  0.57900  0.74190  Biso   1.000  C
  H19      1.0000 0.73280  0.60910  0.66020  Biso   1.000  H
  N12      1.0000 0.80000  0.36520  0.96390  Biso   1.000  N
  H20      1.0000 0.80580  0.36700  0.04530  Biso   1.000  H
  H21      1.0000 0.80830  0.30040  0.92610  Biso   1.000  H
  Cd4      1.0000 0.28975  0.16823  0.13340  Biso   1.000  Cd
  O7       1.0000 0.34666  0.19730  0.29660  Biso   1.000  O
  C28      1.0000 0.47940  0.01510  0.46440  Biso   1.000  C
  C29      1.0000 0.36243  0.09430  0.26500  Biso   1.000  C
  C30      1.0000 0.40250  0.06220  0.33620  Biso   1.000  C
  C31      1.0000 0.45850  0.11190  0.50510  Biso   1.000  C
  H22      1.0000 0.47010  0.16250  0.57700  Biso   1.000  H
  C32      1.0000 0.42110  0.13600  0.44300  Biso   1.000  C
  H23      1.0000 0.40790  0.20320  0.47280  Biso   1.000  H
  C33      1.0000 0.42290  0.96670  0.29460  Biso   1.000  C
  H24      1.0000 0.41140  0.91690  0.22200  Biso   1.000  H
  N13      1.0000 0.26380  0.06830  0.94450  Biso   1.000  N
  C34      1.0000 0.46060  0.94290  0.35930  Biso   1.000  C
  H25      1.0000 0.47370  0.87480  0.33030  Biso   1.000  H
  C35      1.0000 0.27767  0.96540  0.89480  Biso   1.000  C
  O8       1.0000 0.34598  0.02290  0.17650  Biso   1.000  O
  N14      1.0000 0.26645  0.96560  0.76780  Biso   1.000  N
  N15      1.0000 0.24186  0.14120  0.84300  Biso   1.000  N
  C36      1.0000 0.24461  0.07900  0.74190  Biso   1.000  C
  H26      1.0000 0.23280  0.10910  0.66020  Biso   1.000  H
  N16      1.0000 0.30000  0.86520  0.96390  Biso   1.000  N
  H27      1.0000 0.30580  0.86700  0.04530  Biso   1.000  H
  H28      1.0000 0.30830  0.80040  0.92610  Biso   1.000  H
  Cd5      1.0000 0.78975  0.33177  0.63340  Biso   1.000  Cd
  O9       1.0000 0.84666  0.30270  0.79660  Biso   1.000  O
  C37      1.0000 0.97940  0.48490  0.96440  Biso   1.000  C
  C38      1.0000 0.86243  0.40570  0.76500  Biso   1.000  C
  C39      1.0000 0.90250  0.43780  0.83620  Biso   1.000  C
  C40      1.0000 0.95850  0.38810  0.00510  Biso   1.000  C
  H29      1.0000 0.97010  0.33750  0.07700  Biso   1.000  H
  C41      1.0000 0.92110  0.36400  0.94300  Biso   1.000  C
  H30      1.0000 0.90790  0.29680  0.97280  Biso   1.000  H
  C42      1.0000 0.92290  0.53330  0.79460  Biso   1.000  C
  H31      1.0000 0.91140  0.58310  0.72200  Biso   1.000  H
  N17      1.0000 0.76380  0.43170  0.44450  Biso   1.000  N
  C43      1.0000 0.96060  0.55710  0.85930  Biso   1.000  C
  H32      1.0000 0.97370  0.62520  0.83030  Biso   1.000  H
  C44      1.0000 0.77767  0.53460  0.39480  Biso   1.000  C
  O10      1.0000 0.84598  0.47710  0.67650  Biso   1.000  O
  N18      1.0000 0.76645  0.53440  0.26780  Biso   1.000  N
  N19      1.0000 0.74186  0.35880  0.34300  Biso   1.000  N
  C45      1.0000 0.74461  0.42100  0.24190  Biso   1.000  C
  H33      1.0000 0.73280  0.39090  0.16020  Biso   1.000  H
  N20      1.0000 0.80000  0.63480  0.46390  Biso   1.000  N
  H34      1.0000 0.80580  0.63300  0.54530  Biso   1.000  H
  H35      1.0000 0.80830  0.69960  0.42610  Biso   1.000  H
  Cd6      1.0000 0.28975  0.83177  0.63340  Biso   1.000  Cd
  O11      1.0000 0.34666  0.80270  0.79660  Biso   1.000  O
  C46      1.0000 0.47940  0.98490  0.96440  Biso   1.000  C
  C47      1.0000 0.36243  0.90570  0.76500  Biso   1.000  C
  C48      1.0000 0.40250  0.93780  0.83620  Biso   1.000  C
  C49      1.0000 0.45850  0.88810  0.00510  Biso   1.000  C
  H36      1.0000 0.47010  0.83750  0.07700  Biso   1.000  H
  C50      1.0000 0.42110  0.86400  0.94300  Biso   1.000  C
  H37      1.0000 0.40790  0.79680  0.97280  Biso   1.000  H
  C51      1.0000 0.42290  0.03330  0.79460  Biso   1.000  C
  H38      1.0000 0.41140  0.08310  0.72200  Biso   1.000  H
  N21      1.0000 0.26380  0.93170  0.44450  Biso   1.000  N
  C52      1.0000 0.46060  0.05710  0.85930  Biso   1.000  C
  H39      1.0000 0.47370  0.12520  0.83030  Biso   1.000  H
  C53      1.0000 0.27767  0.03460  0.39480  Biso   1.000  C
  O12      1.0000 0.34598  0.97710  0.67650  Biso   1.000  O
  N22      1.0000 0.26645  0.03440  0.26780  Biso   1.000  N
  N23      1.0000 0.24186  0.85880  0.34300  Biso   1.000  N
  C54      1.0000 0.24461  0.92100  0.24190  Biso   1.000  C
  H40      1.0000 0.23280  0.89090  0.16020  Biso   1.000  H
  N24      1.0000 0.30000  0.13480  0.46390  Biso   1.000  N
  H41      1.0000 0.30580  0.13300  0.54530  Biso   1.000  H
  H42      1.0000 0.30830  0.19960  0.42610  Biso   1.000  H
  Cd7      1.0000 0.21025  0.33177  0.86660  Biso   1.000  Cd
  O13      1.0000 0.15334  0.30270  0.70340  Biso   1.000  O
  C55      1.0000 0.02060  0.48490  0.53560  Biso   1.000  C
  C56      1.0000 0.13757  0.40570  0.73500  Biso   1.000  C
  C57      1.0000 0.09750  0.43780  0.66380  Biso   1.000  C
  C58      1.0000 0.04150  0.38810  0.49490  Biso   1.000  C
  H43      1.0000 0.02990  0.33750  0.42300  Biso   1.000  H
  C59      1.0000 0.07890  0.36400  0.55700  Biso   1.000  C
  H44      1.0000 0.09210  0.29680  0.52720  Biso   1.000  H
  C60      1.0000 0.07710  0.53330  0.70540  Biso   1.000  C
  H45      1.0000 0.08860  0.58310  0.77800  Biso   1.000  H
  N25      1.0000 0.23620  0.43170  0.05550  Biso   1.000  N
  C61      1.0000 0.03940  0.55710  0.64070  Biso   1.000  C
  H46      1.0000 0.02630  0.62520  0.66970  Biso   1.000  H
  C62      1.0000 0.22233  0.53460  0.10520  Biso   1.000  C
  O14      1.0000 0.15402  0.47710  0.82350  Biso   1.000  O
  N26      1.0000 0.23355  0.53440  0.23220  Biso   1.000  N
  N27      1.0000 0.25814  0.35880  0.15700  Biso   1.000  N
  C63      1.0000 0.25539  0.42100  0.25810  Biso   1.000  C
  H47      1.0000 0.26720  0.39090  0.33980  Biso   1.000  H
  N28      1.0000 0.20000  0.63480  0.03610  Biso   1.000  N
  H48      1.0000 0.19420  0.63300  0.95470  Biso   1.000  H
  H49      1.0000 0.19170  0.69960  0.07390  Biso   1.000  H
  Cd8      1.0000 0.71025  0.83177  0.86660  Biso   1.000  Cd
  O15      1.0000 0.65334  0.80270  0.70340  Biso   1.000  O
  C64      1.0000 0.52060  0.98490  0.53560  Biso   1.000  C
  C65      1.0000 0.63757  0.90570  0.73500  Biso   1.000  C
  C66      1.0000 0.59750  0.93780  0.66380  Biso   1.000  C
  C67      1.0000 0.54150  0.88810  0.49490  Biso   1.000  C
  H50      1.0000 0.52990  0.83750  0.42300  Biso   1.000  H
  C68      1.0000 0.57890  0.86400  0.55700  Biso   1.000  C
  H51      1.0000 0.59210  0.79680  0.52720  Biso   1.000  H
  C69      1.0000 0.57710  0.03330  0.70540  Biso   1.000  C
  H52      1.0000 0.58860  0.08310  0.77800  Biso   1.000  H
  N29      1.0000 0.73620  0.93170  0.05550  Biso   1.000  N
  C70      1.0000 0.53940  0.05710  0.64070  Biso   1.000  C
  H53      1.0000 0.52630  0.12520  0.66970  Biso   1.000  H
  C71      1.0000 0.72233  0.03460  0.10520  Biso   1.000  C
  O16      1.0000 0.65402  0.97710  0.82350  Biso   1.000  O
  N30      1.0000 0.73355  0.03440  0.23220  Biso   1.000  N
  N31      1.0000 0.75814  0.85880  0.15700  Biso   1.000  N
  C72      1.0000 0.75539  0.92100  0.25810  Biso   1.000  C
  H54      1.0000 0.76720  0.89090  0.33980  Biso   1.000  H
  N32      1.0000 0.70000  0.13480  0.03610  Biso   1.000  N
  H55      1.0000 0.69420  0.13300  0.95470  Biso   1.000  H
  H56      1.0000 0.69170  0.19960  0.07390  Biso   1.000  H
