data_image0
_cell_length_a       9.3366
_cell_length_b       21.917
_cell_length_c       24.057
_cell_angle_alpha    90
_cell_angle_beta     90
_cell_angle_gamma    90

_symmetry_space_group_name_H-M    "P 1"
_symmetry_int_tables_number       1

loop_
  _symmetry_equiv_pos_as_xyz
  'x, y, z'

loop_
  _atom_site_label
  _atom_site_occupancy
  _atom_site_fract_x
  _atom_site_fract_y
  _atom_site_fract_z
  _atom_site_thermal_displace_type
  _atom_site_B_iso_or_equiv
  _atom_site_type_symbol
  In1      1.0000 0.15952  0.10985  0.02502  Biso   1.000  In
  In2      1.0000 0.82446  0.26398  0.17820  Biso   1.000  In
  O1       1.0000 0.96570  0.11250  0.07670  Biso   1.000  O
  O2       1.0000 0.17560  0.19590  0.07980  Biso   1.000  O
  O3       1.0000 0.03740  0.25460  0.13350  Biso   1.000  O
  O4       1.0000 0.83760  0.16930  0.13480  Biso   1.000  O
  O5       1.0000 0.85480  0.98880  0.95570  Biso   1.000  O
  O6       1.0000 0.99220  0.07070  0.96690  Biso   1.000  O
  O7       1.0000 0.93470  0.20960  0.24260  Biso   1.000  O
  O8       1.0000 0.98330  0.32840  0.22370  Biso   1.000  O
  O9       1.0000 0.18440  0.32400  0.27430  Biso   1.000  O
  O10      1.0000 0.14020  0.20450  0.29090  Biso   1.000  O
  O11      1.0000 0.66360  0.26530  0.10780  Biso   1.000  O
  O12      1.0000 0.85570  0.35220  0.12840  Biso   1.000  O
  O13      1.0000 0.79450  0.40080  0.05050  Biso   1.000  O
  O14      1.0000 0.60380  0.31150  0.02800  Biso   1.000  O
  N1       1.0000 0.36810  0.09830  0.06440  Biso   1.000  N
  N2       1.0000 0.58270  0.11520  0.09990  Biso   1.000  N
  C1       1.0000 0.94460  0.15890  0.10580  Biso   1.000  C
  C2       1.0000 0.06520  0.20700  0.10600  Biso   1.000  C
  C3       1.0000 0.95720  0.01710  0.97820  Biso   1.000  C
  C4       1.0000 0.04740  0.23160  0.26320  Biso   1.000  C
  C5       1.0000 0.07320  0.30100  0.25190  Biso   1.000  C
  C6       1.0000 0.67420  0.30740  0.07230  Biso   1.000  C
  C7       1.0000 0.78450  0.35810  0.08470  Biso   1.000  C
  C8       1.0000 0.45100  0.04660  0.05840  Biso   1.000  C
  H1       1.0000 0.42130  0.01010  0.04240  Biso   1.000  H
  C9       1.0000 0.45410  0.13790  0.08960  Biso   1.000  C
  H2       1.0000 0.42690  0.17740  0.09900  Biso   1.000  H
  C10      1.0000 0.58260  0.05760  0.07960  Biso   1.000  C
  H3       1.0000 0.65930  0.03050  0.08020  Biso   1.000  H
  In3      1.0000 0.34048  0.89015  0.52502  Biso   1.000  In
  In4      1.0000 0.67554  0.73602  0.67820  Biso   1.000  In
  O15      1.0000 0.53430  0.88750  0.57670  Biso   1.000  O
  O16      1.0000 0.32440  0.80410  0.57980  Biso   1.000  O
  O17      1.0000 0.46260  0.74540  0.63350  Biso   1.000  O
  O18      1.0000 0.66240  0.83070  0.63480  Biso   1.000  O
  O19      1.0000 0.64520  0.01120  0.45570  Biso   1.000  O
  O20      1.0000 0.50780  0.92930  0.46690  Biso   1.000  O
  O21      1.0000 0.56530  0.79040  0.74260  Biso   1.000  O
  O22      1.0000 0.51670  0.67160  0.72370  Biso   1.000  O
  O23      1.0000 0.31560  0.67600  0.77430  Biso   1.000  O
  O24      1.0000 0.35980  0.79550  0.79090  Biso   1.000  O
  O25      1.0000 0.83640  0.73470  0.60780  Biso   1.000  O
  O26      1.0000 0.64430  0.64780  0.62840  Biso   1.000  O
  O27      1.0000 0.70550  0.59920  0.55050  Biso   1.000  O
  O28      1.0000 0.89620  0.68850  0.52800  Biso   1.000  O
  N3       1.0000 0.13190  0.90170  0.56440  Biso   1.000  N
  N4       1.0000 0.91730  0.88480  0.59990  Biso   1.000  N
  C11      1.0000 0.55540  0.84110  0.60580  Biso   1.000  C
  C12      1.0000 0.43480  0.79300  0.60600  Biso   1.000  C
  C13      1.0000 0.54280  0.98290  0.47820  Biso   1.000  C
  C14      1.0000 0.45260  0.76840  0.76320  Biso   1.000  C
  C15      1.0000 0.42680  0.69900  0.75190  Biso   1.000  C
  C16      1.0000 0.82580  0.69260  0.57230  Biso   1.000  C
  C17      1.0000 0.71550  0.64190  0.58470  Biso   1.000  C
  C18      1.0000 0.04900  0.95340  0.55840  Biso   1.000  C
  H4       1.0000 0.07870  0.98990  0.54240  Biso   1.000  H
  C19      1.0000 0.04590  0.86210  0.58960  Biso   1.000  C
  H5       1.0000 0.07310  0.82260  0.59900  Biso   1.000  H
  C20      1.0000 0.91740  0.94240  0.57960  Biso   1.000  C
  H6       1.0000 0.84070  0.96950  0.58020  Biso   1.000  H
  In5      1.0000 0.84048  0.60985  0.47498  Biso   1.000  In
  In6      1.0000 0.17554  0.76398  0.32180  Biso   1.000  In
  O29      1.0000 0.03430  0.61250  0.42330  Biso   1.000  O
  O30      1.0000 0.82440  0.69590  0.42020  Biso   1.000  O
  O31      1.0000 0.96260  0.75460  0.36650  Biso   1.000  O
  O32      1.0000 0.16240  0.66930  0.36520  Biso   1.000  O
  O33      1.0000 0.14520  0.48880  0.54430  Biso   1.000  O
  O34      1.0000 0.00780  0.57070  0.53310  Biso   1.000  O
  O35      1.0000 0.06530  0.70960  0.25740  Biso   1.000  O
  O36      1.0000 0.01670  0.82840  0.27630  Biso   1.000  O
  O37      1.0000 0.81560  0.82400  0.22570  Biso   1.000  O
  O38      1.0000 0.85980  0.70450  0.20910  Biso   1.000  O
  O39      1.0000 0.33640  0.76530  0.39220  Biso   1.000  O
  O40      1.0000 0.14430  0.85220  0.37160  Biso   1.000  O
  O41      1.0000 0.20550  0.90080  0.44950  Biso   1.000  O
  O42      1.0000 0.39620  0.81150  0.47200  Biso   1.000  O
  N5       1.0000 0.63190  0.59830  0.43560  Biso   1.000  N
  N6       1.0000 0.41730  0.61520  0.40010  Biso   1.000  N
  C21      1.0000 0.05540  0.65890  0.39420  Biso   1.000  C
  C22      1.0000 0.93480  0.70700  0.39400  Biso   1.000  C
  C23      1.0000 0.04280  0.51710  0.52180  Biso   1.000  C
  C24      1.0000 0.95260  0.73160  0.23680  Biso   1.000  C
  C25      1.0000 0.92680  0.80100  0.24810  Biso   1.000  C
  C26      1.0000 0.32580  0.80740  0.42770  Biso   1.000  C
  C27      1.0000 0.21550  0.85810  0.41530  Biso   1.000  C
  C28      1.0000 0.54900  0.54660  0.44160  Biso   1.000  C
  H7       1.0000 0.57870  0.51010  0.45760  Biso   1.000  H
  C29      1.0000 0.54590  0.63790  0.41040  Biso   1.000  C
  H8       1.0000 0.57310  0.67740  0.40100  Biso   1.000  H
  C30      1.0000 0.41740  0.55760  0.42040  Biso   1.000  C
  H9       1.0000 0.34070  0.53050  0.41980  Biso   1.000  H
  In7      1.0000 0.65952  0.39015  0.97498  Biso   1.000  In
  In8      1.0000 0.32446  0.23602  0.82180  Biso   1.000  In
  O43      1.0000 0.46570  0.38750  0.92330  Biso   1.000  O
  O44      1.0000 0.67560  0.30410  0.92020  Biso   1.000  O
  O45      1.0000 0.53740  0.24540  0.86650  Biso   1.000  O
  O46      1.0000 0.33760  0.33070  0.86520  Biso   1.000  O
  O47      1.0000 0.35480  0.51120  0.04430  Biso   1.000  O
  O48      1.0000 0.49220  0.42930  0.03310  Biso   1.000  O
  O49      1.0000 0.43470  0.29040  0.75740  Biso   1.000  O
  O50      1.0000 0.48330  0.17160  0.77630  Biso   1.000  O
  O51      1.0000 0.68440  0.17600  0.72570  Biso   1.000  O
  O52      1.0000 0.64020  0.29550  0.70910  Biso   1.000  O
  O53      1.0000 0.16360  0.23470  0.89220  Biso   1.000  O
  O54      1.0000 0.35570  0.14780  0.87160  Biso   1.000  O
  O55      1.0000 0.29450  0.09920  0.94950  Biso   1.000  O
  O56      1.0000 0.10380  0.18850  0.97200  Biso   1.000  O
  N7       1.0000 0.86810  0.40170  0.93560  Biso   1.000  N
  N8       1.0000 0.08270  0.38480  0.90010  Biso   1.000  N
  C31      1.0000 0.44460  0.34110  0.89420  Biso   1.000  C
  C32      1.0000 0.56520  0.29300  0.89400  Biso   1.000  C
  C33      1.0000 0.45720  0.48290  0.02180  Biso   1.000  C
  C34      1.0000 0.54740  0.26840  0.73680  Biso   1.000  C
  C35      1.0000 0.57320  0.19900  0.74810  Biso   1.000  C
  C36      1.0000 0.17420  0.19260  0.92770  Biso   1.000  C
  C37      1.0000 0.28450  0.14190  0.91530  Biso   1.000  C
  C38      1.0000 0.95100  0.45340  0.94160  Biso   1.000  C
  H10      1.0000 0.92130  0.48990  0.95760  Biso   1.000  H
  C39      1.0000 0.95410  0.36210  0.91040  Biso   1.000  C
  H11      1.0000 0.92690  0.32260  0.90100  Biso   1.000  H
  C40      1.0000 0.08260  0.44240  0.92040  Biso   1.000  C
  H12      1.0000 0.15930  0.46950  0.91980  Biso   1.000  H
  In9      1.0000 0.84048  0.89015  0.97498  Biso   1.000  In
  In10     1.0000 0.17554  0.73602  0.82180  Biso   1.000  In
  O57      1.0000 0.03430  0.88750  0.92330  Biso   1.000  O
  O58      1.0000 0.82440  0.80410  0.92020  Biso   1.000  O
  O59      1.0000 0.96260  0.74540  0.86650  Biso   1.000  O
  O60      1.0000 0.16240  0.83070  0.86520  Biso   1.000  O
  O61      1.0000 0.14520  0.01120  0.04430  Biso   1.000  O
  O62      1.0000 0.00780  0.92930  0.03310  Biso   1.000  O
  O63      1.0000 0.06530  0.79040  0.75740  Biso   1.000  O
  O64      1.0000 0.01670  0.67160  0.77630  Biso   1.000  O
  O65      1.0000 0.81560  0.67600  0.72570  Biso   1.000  O
  O66      1.0000 0.85980  0.79550  0.70910  Biso   1.000  O
  O67      1.0000 0.33640  0.73470  0.89220  Biso   1.000  O
  O68      1.0000 0.14430  0.64780  0.87160  Biso   1.000  O
  O69      1.0000 0.20550  0.59920  0.94950  Biso   1.000  O
  O70      1.0000 0.39620  0.68850  0.97200  Biso   1.000  O
  N9       1.0000 0.63190  0.90170  0.93560  Biso   1.000  N
  N10      1.0000 0.41730  0.88480  0.90010  Biso   1.000  N
  C41      1.0000 0.05540  0.84110  0.89420  Biso   1.000  C
  C42      1.0000 0.93480  0.79300  0.89400  Biso   1.000  C
  C43      1.0000 0.04280  0.98290  0.02180  Biso   1.000  C
  C44      1.0000 0.95260  0.76840  0.73680  Biso   1.000  C
  C45      1.0000 0.92680  0.69900  0.74810  Biso   1.000  C
  C46      1.0000 0.32580  0.69260  0.92770  Biso   1.000  C
  C47      1.0000 0.21550  0.64190  0.91530  Biso   1.000  C
  C48      1.0000 0.54900  0.95340  0.94160  Biso   1.000  C
  H13      1.0000 0.57870  0.98990  0.95760  Biso   1.000  H
  C49      1.0000 0.54590  0.86210  0.91040  Biso   1.000  C
  H14      1.0000 0.57310  0.82260  0.90100  Biso   1.000  H
  C50      1.0000 0.41740  0.94240  0.92040  Biso   1.000  C
  H15      1.0000 0.34070  0.96950  0.91980  Biso   1.000  H
  In11     1.0000 0.65952  0.10985  0.47498  Biso   1.000  In
  In12     1.0000 0.32446  0.26398  0.32180  Biso   1.000  In
  O71      1.0000 0.46570  0.11250  0.42330  Biso   1.000  O
  O72      1.0000 0.67560  0.19590  0.42020  Biso   1.000  O
  O73      1.0000 0.53740  0.25460  0.36650  Biso   1.000  O
  O74      1.0000 0.33760  0.16930  0.36520  Biso   1.000  O
  O75      1.0000 0.35480  0.98880  0.54430  Biso   1.000  O
  O76      1.0000 0.49220  0.07070  0.53310  Biso   1.000  O
  O77      1.0000 0.43470  0.20960  0.25740  Biso   1.000  O
  O78      1.0000 0.48330  0.32840  0.27630  Biso   1.000  O
  O79      1.0000 0.68440  0.32400  0.22570  Biso   1.000  O
  O80      1.0000 0.64020  0.20450  0.20910  Biso   1.000  O
  O81      1.0000 0.16360  0.26530  0.39220  Biso   1.000  O
  O82      1.0000 0.35570  0.35220  0.37160  Biso   1.000  O
  O83      1.0000 0.29450  0.40080  0.44950  Biso   1.000  O
  O84      1.0000 0.10380  0.31150  0.47200  Biso   1.000  O
  N11      1.0000 0.86810  0.09830  0.43560  Biso   1.000  N
  N12      1.0000 0.08270  0.11520  0.40010  Biso   1.000  N
  C51      1.0000 0.44460  0.15890  0.39420  Biso   1.000  C
  C52      1.0000 0.56520  0.20700  0.39400  Biso   1.000  C
  C53      1.0000 0.45720  0.01710  0.52180  Biso   1.000  C
  C54      1.0000 0.54740  0.23160  0.23680  Biso   1.000  C
  C55      1.0000 0.57320  0.30100  0.24810  Biso   1.000  C
  C56      1.0000 0.17420  0.30740  0.42770  Biso   1.000  C
  C57      1.0000 0.28450  0.35810  0.41530  Biso   1.000  C
  C58      1.0000 0.95100  0.04660  0.44160  Biso   1.000  C
  H16      1.0000 0.92130  0.01010  0.45760  Biso   1.000  H
  C59      1.0000 0.95410  0.13790  0.41040  Biso   1.000  C
  H17      1.0000 0.92690  0.17740  0.40100  Biso   1.000  H
  C60      1.0000 0.08260  0.05760  0.42040  Biso   1.000  C
  H18      1.0000 0.15930  0.03050  0.41980  Biso   1.000  H
  In13     1.0000 0.15952  0.39015  0.52502  Biso   1.000  In
  In14     1.0000 0.82446  0.23602  0.67820  Biso   1.000  In
  O85      1.0000 0.96570  0.38750  0.57670  Biso   1.000  O
  O86      1.0000 0.17560  0.30410  0.57980  Biso   1.000  O
  O87      1.0000 0.03740  0.24540  0.63350  Biso   1.000  O
  O88      1.0000 0.83760  0.33070  0.63480  Biso   1.000  O
  O89      1.0000 0.85480  0.51120  0.45570  Biso   1.000  O
  O90      1.0000 0.99220  0.42930  0.46690  Biso   1.000  O
  O91      1.0000 0.93470  0.29040  0.74260  Biso   1.000  O
  O92      1.0000 0.98330  0.17160  0.72370  Biso   1.000  O
  O93      1.0000 0.18440  0.17600  0.77430  Biso   1.000  O
  O94      1.0000 0.14020  0.29550  0.79090  Biso   1.000  O
  O95      1.0000 0.66360  0.23470  0.60780  Biso   1.000  O
  O96      1.0000 0.85570  0.14780  0.62840  Biso   1.000  O
  O97      1.0000 0.79450  0.09920  0.55050  Biso   1.000  O
  O98      1.0000 0.60380  0.18850  0.52800  Biso   1.000  O
  N13      1.0000 0.36810  0.40170  0.56440  Biso   1.000  N
  N14      1.0000 0.58270  0.38480  0.59990  Biso   1.000  N
  C61      1.0000 0.94460  0.34110  0.60580  Biso   1.000  C
  C62      1.0000 0.06520  0.29300  0.60600  Biso   1.000  C
  C63      1.0000 0.95720  0.48290  0.47820  Biso   1.000  C
  C64      1.0000 0.04740  0.26840  0.76320  Biso   1.000  C
  C65      1.0000 0.07320  0.19900  0.75190  Biso   1.000  C
  C66      1.0000 0.67420  0.19260  0.57230  Biso   1.000  C
  C67      1.0000 0.78450  0.14190  0.58470  Biso   1.000  C
  C68      1.0000 0.45100  0.45340  0.55840  Biso   1.000  C
  H19      1.0000 0.42130  0.48990  0.54240  Biso   1.000  H
  C69      1.0000 0.45410  0.36210  0.58960  Biso   1.000  C
  H20      1.0000 0.42690  0.32260  0.59900  Biso   1.000  H
  C70      1.0000 0.58260  0.44240  0.57960  Biso   1.000  C
  H21      1.0000 0.65930  0.46950  0.58020  Biso   1.000  H
  In15     1.0000 0.34048  0.60985  0.02502  Biso   1.000  In
  In16     1.0000 0.67554  0.76398  0.17820  Biso   1.000  In
  O99      1.0000 0.53430  0.61250  0.07670  Biso   1.000  O
  O100     1.0000 0.32440  0.69590  0.07980  Biso   1.000  O
  O101     1.0000 0.46260  0.75460  0.13350  Biso   1.000  O
  O102     1.0000 0.66240  0.66930  0.13480  Biso   1.000  O
  O103     1.0000 0.64520  0.48880  0.95570  Biso   1.000  O
  O104     1.0000 0.50780  0.57070  0.96690  Biso   1.000  O
  O105     1.0000 0.56530  0.70960  0.24260  Biso   1.000  O
  O106     1.0000 0.51670  0.82840  0.22370  Biso   1.000  O
  O107     1.0000 0.31560  0.82400  0.27430  Biso   1.000  O
  O108     1.0000 0.35980  0.70450  0.29090  Biso   1.000  O
  O109     1.0000 0.83640  0.76530  0.10780  Biso   1.000  O
  O110     1.0000 0.64430  0.85220  0.12840  Biso   1.000  O
  O111     1.0000 0.70550  0.90080  0.05050  Biso   1.000  O
  O112     1.0000 0.89620  0.81150  0.02800  Biso   1.000  O
  N15      1.0000 0.13190  0.59830  0.06440  Biso   1.000  N
  N16      1.0000 0.91730  0.61520  0.09990  Biso   1.000  N
  C71      1.0000 0.55540  0.65890  0.10580  Biso   1.000  C
  C72      1.0000 0.43480  0.70700  0.10600  Biso   1.000  C
  C73      1.0000 0.54280  0.51710  0.97820  Biso   1.000  C
  C74      1.0000 0.45260  0.73160  0.26320  Biso   1.000  C
  C75      1.0000 0.42680  0.80100  0.25190  Biso   1.000  C
  C76      1.0000 0.82580  0.80740  0.07230  Biso   1.000  C
  C77      1.0000 0.71550  0.85810  0.08470  Biso   1.000  C
  C78      1.0000 0.04900  0.54660  0.05840  Biso   1.000  C
  H22      1.0000 0.07870  0.51010  0.04240  Biso   1.000  H
  C79      1.0000 0.04590  0.63790  0.08960  Biso   1.000  C
  H23      1.0000 0.07310  0.67740  0.09900  Biso   1.000  H
  C80      1.0000 0.91740  0.55760  0.07960  Biso   1.000  C
  H24      1.0000 0.84070  0.53050  0.08020  Biso   1.000  H
