data_image0
_cell_length_a       17.201
_cell_length_b       23.81
_cell_length_c       13.601
_cell_angle_alpha    90
_cell_angle_beta     90
_cell_angle_gamma    90

_symmetry_space_group_name_H-M    "P 1"
_symmetry_int_tables_number       1

loop_
  _symmetry_equiv_pos_as_xyz
  'x, y, z'

loop_
  _atom_site_label
  _atom_site_occupancy
  _atom_site_fract_x
  _atom_site_fract_y
  _atom_site_fract_z
  _atom_site_thermal_displace_type
  _atom_site_B_iso_or_equiv
  _atom_site_type_symbol
  Co1      1.0000 0.35195  0.57257  0.51642  Biso   1.000  Co
  O1       1.0000 0.35710  0.49356  0.46560  Biso   1.000  O
  O2       1.0000 0.30920  0.54821  0.34890  Biso   1.000  O
  O3       1.0000 0.52800  0.09460  0.04770  Biso   1.000  O
  O4       1.0000 0.61430  0.15810  0.01890  Biso   1.000  O
  O5       1.0000 0.32750  0.31364  0.12380  Biso   1.000  O
  N1       1.0000 0.40310  0.55496  0.65020  Biso   1.000  N
  N2       1.0000 0.47370  0.50403  0.75140  Biso   1.000  N
  N3       1.0000 0.63850  0.36994  0.87450  Biso   1.000  N
  N4       1.0000 0.74030  0.40645  0.94920  Biso   1.000  N
  C1       1.0000 0.33340  0.45160  0.30990  Biso   1.000  C
  C2       1.0000 0.29710  0.45360  0.22060  Biso   1.000  C
  H1       1.0000 0.27170  0.48630  0.20160  Biso   1.000  H
  C3       1.0000 0.29740  0.40750  0.15740  Biso   1.000  C
  H2       1.0000 0.27210  0.40920  0.09700  Biso   1.000  H
  C4       1.0000 0.33560  0.35940  0.18590  Biso   1.000  C
  C5       1.0000 0.37330  0.35670  0.27520  Biso   1.000  C
  H3       1.0000 0.39890  0.32400  0.29410  Biso   1.000  H
  C6       1.0000 0.37250  0.40290  0.33640  Biso   1.000  C
  H4       1.0000 0.39860  0.40150  0.39620  Biso   1.000  H
  C7       1.0000 0.33220  0.50060  0.37690  Biso   1.000  C
  C8       1.0000 0.38660  0.27450  0.11270  Biso   1.000  C
  C9       1.0000 0.36330  0.22030  0.09660  Biso   1.000  C
  H5       1.0000 0.31050  0.21210  0.09880  Biso   1.000  H
  C10      1.0000 0.41450  0.17800  0.07750  Biso   1.000  C
  H6       1.0000 0.39750  0.14120  0.06940  Biso   1.000  H
  C11      1.0000 0.49200  0.19140  0.07050  Biso   1.000  C
  C12      1.0000 0.51850  0.24550  0.08740  Biso   1.000  C
  H7       1.0000 0.57120  0.25380  0.08300  Biso   1.000  H
  C13      1.0000 0.46350  0.28870  0.11170  Biso   1.000  C
  H8       1.0000 0.47970  0.32510  0.12630  Biso   1.000  H
  C14      1.0000 0.55150  0.14270  0.04180  Biso   1.000  C
  C15      1.0000 0.44290  0.50810  0.66160  Biso   1.000  C
  H9       1.0000 0.44890  0.48110  0.61280  Biso   1.000  H
  C16      1.0000 0.45370  0.55180  0.79990  Biso   1.000  C
  H10      1.0000 0.46730  0.56140  0.86390  Biso   1.000  H
  C17      1.0000 0.40990  0.58320  0.73660  Biso   1.000  C
  H11      1.0000 0.38830  0.61810  0.75050  Biso   1.000  H
  C18      1.0000 0.51910  0.45740  0.78920  Biso   1.000  C
  H12      1.0000 0.54640  0.46940  0.84790  Biso   1.000  H
  H13      1.0000 0.55770  0.44680  0.74060  Biso   1.000  H
  C19      1.0000 0.46940  0.40590  0.81390  Biso   1.000  C
  C20      1.0000 0.50490  0.35350  0.81890  Biso   1.000  C
  C21      1.0000 0.45950  0.30670  0.84290  Biso   1.000  C
  H14      1.0000 0.48260  0.27140  0.84600  Biso   1.000  H
  C22      1.0000 0.37980  0.31210  0.86230  Biso   1.000  C
  H15      1.0000 0.35010  0.28050  0.87670  Biso   1.000  H
  C23      1.0000 0.34590  0.36430  0.86010  Biso   1.000  C
  H16      1.0000 0.29350  0.36850  0.87520  Biso   1.000  H
  C24      1.0000 0.39100  0.41080  0.83490  Biso   1.000  C
  H17      1.0000 0.36780  0.44600  0.83210  Biso   1.000  H
  C25      1.0000 0.59020  0.34530  0.79760  Biso   1.000  C
  H18      1.0000 0.60120  0.30540  0.79260  Biso   1.000  H
  H19      1.0000 0.60280  0.36250  0.73490  Biso   1.000  H
  C26      1.0000 0.70920  0.39090  0.86470  Biso   1.000  C
  H20      1.0000 0.73450  0.39430  0.80460  Biso   1.000  H
  C27      1.0000 0.68470  0.39470  0.01570  Biso   1.000  C
  H21      1.0000 0.68850  0.40150  0.08290  Biso   1.000  H
  C28      1.0000 0.62210  0.37140  0.97060  Biso   1.000  C
  H22      1.0000 0.57670  0.35890  0.00060  Biso   1.000  H
  Co2      1.0000 0.14805  0.92743  0.51642  Biso   1.000  Co
  O6       1.0000 0.14290  0.00644  0.46560  Biso   1.000  O
  O7       1.0000 0.19080  0.95179  0.34890  Biso   1.000  O
  O8       1.0000 0.97200  0.40540  0.04770  Biso   1.000  O
  O9       1.0000 0.88570  0.34190  0.01890  Biso   1.000  O
  O10      1.0000 0.17250  0.18636  0.12380  Biso   1.000  O
  N5       1.0000 0.09690  0.94504  0.65020  Biso   1.000  N
  N6       1.0000 0.02630  0.99597  0.75140  Biso   1.000  N
  N7       1.0000 0.86150  0.13006  0.87450  Biso   1.000  N
  N8       1.0000 0.75970  0.09355  0.94920  Biso   1.000  N
  C29      1.0000 0.16660  0.04840  0.30990  Biso   1.000  C
  C30      1.0000 0.20290  0.04640  0.22060  Biso   1.000  C
  H23      1.0000 0.22830  0.01370  0.20160  Biso   1.000  H
  C31      1.0000 0.20260  0.09250  0.15740  Biso   1.000  C
  H24      1.0000 0.22790  0.09080  0.09700  Biso   1.000  H
  C32      1.0000 0.16440  0.14060  0.18590  Biso   1.000  C
  C33      1.0000 0.12670  0.14330  0.27520  Biso   1.000  C
  H25      1.0000 0.10110  0.17600  0.29410  Biso   1.000  H
  C34      1.0000 0.12750  0.09710  0.33640  Biso   1.000  C
  H26      1.0000 0.10140  0.09850  0.39620  Biso   1.000  H
  C35      1.0000 0.16780  0.99940  0.37690  Biso   1.000  C
  C36      1.0000 0.11340  0.22550  0.11270  Biso   1.000  C
  C37      1.0000 0.13670  0.27970  0.09660  Biso   1.000  C
  H27      1.0000 0.18950  0.28790  0.09880  Biso   1.000  H
  C38      1.0000 0.08550  0.32200  0.07750  Biso   1.000  C
  H28      1.0000 0.10250  0.35880  0.06940  Biso   1.000  H
  C39      1.0000 0.00800  0.30860  0.07050  Biso   1.000  C
  C40      1.0000 0.98150  0.25450  0.08740  Biso   1.000  C
  H29      1.0000 0.92880  0.24620  0.08300  Biso   1.000  H
  C41      1.0000 0.03650  0.21130  0.11170  Biso   1.000  C
  H30      1.0000 0.02030  0.17490  0.12630  Biso   1.000  H
  C42      1.0000 0.94850  0.35730  0.04180  Biso   1.000  C
  C43      1.0000 0.05710  0.99190  0.66160  Biso   1.000  C
  H31      1.0000 0.05110  0.01890  0.61280  Biso   1.000  H
  C44      1.0000 0.04630  0.94820  0.79990  Biso   1.000  C
  H32      1.0000 0.03270  0.93860  0.86390  Biso   1.000  H
  C45      1.0000 0.09010  0.91680  0.73660  Biso   1.000  C
  H33      1.0000 0.11170  0.88190  0.75050  Biso   1.000  H
  C46      1.0000 0.98090  0.04260  0.78920  Biso   1.000  C
  H34      1.0000 0.95360  0.03060  0.84790  Biso   1.000  H
  H35      1.0000 0.94230  0.05320  0.74060  Biso   1.000  H
  C47      1.0000 0.03060  0.09410  0.81390  Biso   1.000  C
  C48      1.0000 0.99510  0.14650  0.81890  Biso   1.000  C
  C49      1.0000 0.04050  0.19330  0.84290  Biso   1.000  C
  H36      1.0000 0.01740  0.22860  0.84600  Biso   1.000  H
  C50      1.0000 0.12020  0.18790  0.86230  Biso   1.000  C
  H37      1.0000 0.14990  0.21950  0.87670  Biso   1.000  H
  C51      1.0000 0.15410  0.13570  0.86010  Biso   1.000  C
  H38      1.0000 0.20650  0.13150  0.87520  Biso   1.000  H
  C52      1.0000 0.10900  0.08920  0.83490  Biso   1.000  C
  H39      1.0000 0.13220  0.05400  0.83210  Biso   1.000  H
  C53      1.0000 0.90980  0.15470  0.79760  Biso   1.000  C
  H40      1.0000 0.89880  0.19460  0.79260  Biso   1.000  H
  H41      1.0000 0.89720  0.13750  0.73490  Biso   1.000  H
  C54      1.0000 0.79080  0.10910  0.86470  Biso   1.000  C
  H42      1.0000 0.76550  0.10570  0.80460  Biso   1.000  H
  C55      1.0000 0.81530  0.10530  0.01570  Biso   1.000  C
  H43      1.0000 0.81150  0.09850  0.08290  Biso   1.000  H
  C56      1.0000 0.87790  0.12860  0.97060  Biso   1.000  C
  H44      1.0000 0.92330  0.14110  0.00060  Biso   1.000  H
  Co3      1.0000 0.64805  0.07257  0.98358  Biso   1.000  Co
  O11      1.0000 0.64290  0.99356  0.03440  Biso   1.000  O
  O12      1.0000 0.69080  0.04821  0.15110  Biso   1.000  O
  O13      1.0000 0.47200  0.59460  0.45230  Biso   1.000  O
  O14      1.0000 0.38570  0.65810  0.48110  Biso   1.000  O
  O15      1.0000 0.67250  0.81364  0.37620  Biso   1.000  O
  N9       1.0000 0.59690  0.05496  0.84980  Biso   1.000  N
  N10      1.0000 0.52630  0.00403  0.74860  Biso   1.000  N
  N11      1.0000 0.36150  0.86994  0.62550  Biso   1.000  N
  N12      1.0000 0.25970  0.90645  0.55080  Biso   1.000  N
  C57      1.0000 0.66660  0.95160  0.19010  Biso   1.000  C
  C58      1.0000 0.70290  0.95360  0.27940  Biso   1.000  C
  H45      1.0000 0.72830  0.98630  0.29840  Biso   1.000  H
  C59      1.0000 0.70260  0.90750  0.34260  Biso   1.000  C
  H46      1.0000 0.72790  0.90920  0.40300  Biso   1.000  H
  C60      1.0000 0.66440  0.85940  0.31410  Biso   1.000  C
  C61      1.0000 0.62670  0.85670  0.22480  Biso   1.000  C
  H47      1.0000 0.60110  0.82400  0.20590  Biso   1.000  H
  C62      1.0000 0.62750  0.90290  0.16360  Biso   1.000  C
  H48      1.0000 0.60140  0.90150  0.10380  Biso   1.000  H
  C63      1.0000 0.66780  0.00060  0.12310  Biso   1.000  C
  C64      1.0000 0.61340  0.77450  0.38730  Biso   1.000  C
  C65      1.0000 0.63670  0.72030  0.40340  Biso   1.000  C
  H49      1.0000 0.68950  0.71210  0.40120  Biso   1.000  H
  C66      1.0000 0.58550  0.67800  0.42250  Biso   1.000  C
  H50      1.0000 0.60250  0.64120  0.43060  Biso   1.000  H
  C67      1.0000 0.50800  0.69140  0.42950  Biso   1.000  C
  C68      1.0000 0.48150  0.74550  0.41260  Biso   1.000  C
  H51      1.0000 0.42880  0.75380  0.41700  Biso   1.000  H
  C69      1.0000 0.53650  0.78870  0.38830  Biso   1.000  C
  H52      1.0000 0.52030  0.82510  0.37370  Biso   1.000  H
  C70      1.0000 0.44850  0.64270  0.45820  Biso   1.000  C
  C71      1.0000 0.55710  0.00810  0.83840  Biso   1.000  C
  H53      1.0000 0.55110  0.98110  0.88720  Biso   1.000  H
  C72      1.0000 0.54630  0.05180  0.70010  Biso   1.000  C
  H54      1.0000 0.53270  0.06140  0.63610  Biso   1.000  H
  C73      1.0000 0.59010  0.08320  0.76340  Biso   1.000  C
  H55      1.0000 0.61170  0.11810  0.74950  Biso   1.000  H
  C74      1.0000 0.48090  0.95740  0.71080  Biso   1.000  C
  H56      1.0000 0.45360  0.96940  0.65210  Biso   1.000  H
  H57      1.0000 0.44230  0.94680  0.75940  Biso   1.000  H
  C75      1.0000 0.53060  0.90590  0.68610  Biso   1.000  C
  C76      1.0000 0.49510  0.85350  0.68110  Biso   1.000  C
  C77      1.0000 0.54050  0.80670  0.65710  Biso   1.000  C
  H58      1.0000 0.51740  0.77140  0.65400  Biso   1.000  H
  C78      1.0000 0.62020  0.81210  0.63770  Biso   1.000  C
  H59      1.0000 0.64990  0.78050  0.62330  Biso   1.000  H
  C79      1.0000 0.65410  0.86430  0.63990  Biso   1.000  C
  H60      1.0000 0.70650  0.86850  0.62480  Biso   1.000  H
  C80      1.0000 0.60900  0.91080  0.66510  Biso   1.000  C
  H61      1.0000 0.63220  0.94600  0.66790  Biso   1.000  H
  C81      1.0000 0.40980  0.84530  0.70240  Biso   1.000  C
  H62      1.0000 0.39880  0.80540  0.70740  Biso   1.000  H
  H63      1.0000 0.39720  0.86250  0.76510  Biso   1.000  H
  C82      1.0000 0.29080  0.89090  0.63530  Biso   1.000  C
  H64      1.0000 0.26550  0.89430  0.69540  Biso   1.000  H
  C83      1.0000 0.31530  0.89470  0.48430  Biso   1.000  C
  H65      1.0000 0.31150  0.90150  0.41710  Biso   1.000  H
  C84      1.0000 0.37790  0.87140  0.52940  Biso   1.000  C
  H66      1.0000 0.42330  0.85890  0.49940  Biso   1.000  H
  Co4      1.0000 0.85195  0.42743  0.98358  Biso   1.000  Co
  O16      1.0000 0.85710  0.50644  0.03440  Biso   1.000  O
  O17      1.0000 0.80920  0.45179  0.15110  Biso   1.000  O
  O18      1.0000 0.02800  0.90540  0.45230  Biso   1.000  O
  O19      1.0000 0.11430  0.84190  0.48110  Biso   1.000  O
  O20      1.0000 0.82750  0.68636  0.37620  Biso   1.000  O
  N13      1.0000 0.90310  0.44504  0.84980  Biso   1.000  N
  N14      1.0000 0.97370  0.49597  0.74860  Biso   1.000  N
  N15      1.0000 0.13850  0.63006  0.62550  Biso   1.000  N
  N16      1.0000 0.24030  0.59355  0.55080  Biso   1.000  N
  C85      1.0000 0.83340  0.54840  0.19010  Biso   1.000  C
  C86      1.0000 0.79710  0.54640  0.27940  Biso   1.000  C
  H67      1.0000 0.77170  0.51370  0.29840  Biso   1.000  H
  C87      1.0000 0.79740  0.59250  0.34260  Biso   1.000  C
  H68      1.0000 0.77210  0.59080  0.40300  Biso   1.000  H
  C88      1.0000 0.83560  0.64060  0.31410  Biso   1.000  C
  C89      1.0000 0.87330  0.64330  0.22480  Biso   1.000  C
  H69      1.0000 0.89890  0.67600  0.20590  Biso   1.000  H
  C90      1.0000 0.87250  0.59710  0.16360  Biso   1.000  C
  H70      1.0000 0.89860  0.59850  0.10380  Biso   1.000  H
  C91      1.0000 0.83220  0.49940  0.12310  Biso   1.000  C
  C92      1.0000 0.88660  0.72550  0.38730  Biso   1.000  C
  C93      1.0000 0.86330  0.77970  0.40340  Biso   1.000  C
  H71      1.0000 0.81050  0.78790  0.40120  Biso   1.000  H
  C94      1.0000 0.91450  0.82200  0.42250  Biso   1.000  C
  H72      1.0000 0.89750  0.85880  0.43060  Biso   1.000  H
  C95      1.0000 0.99200  0.80860  0.42950  Biso   1.000  C
  C96      1.0000 0.01850  0.75450  0.41260  Biso   1.000  C
  H73      1.0000 0.07120  0.74620  0.41700  Biso   1.000  H
  C97      1.0000 0.96350  0.71130  0.38830  Biso   1.000  C
  H74      1.0000 0.97970  0.67490  0.37370  Biso   1.000  H
  C98      1.0000 0.05150  0.85730  0.45820  Biso   1.000  C
  C99      1.0000 0.94290  0.49190  0.83840  Biso   1.000  C
  H75      1.0000 0.94890  0.51890  0.88720  Biso   1.000  H
  C100     1.0000 0.95370  0.44820  0.70010  Biso   1.000  C
  H76      1.0000 0.96730  0.43860  0.63610  Biso   1.000  H
  C101     1.0000 0.90990  0.41680  0.76340  Biso   1.000  C
  H77      1.0000 0.88830  0.38190  0.74950  Biso   1.000  H
  C102     1.0000 0.01910  0.54260  0.71080  Biso   1.000  C
  H78      1.0000 0.04640  0.53060  0.65210  Biso   1.000  H
  H79      1.0000 0.05770  0.55320  0.75940  Biso   1.000  H
  C103     1.0000 0.96940  0.59410  0.68610  Biso   1.000  C
  C104     1.0000 0.00490  0.64650  0.68110  Biso   1.000  C
  C105     1.0000 0.95950  0.69330  0.65710  Biso   1.000  C
  H80      1.0000 0.98260  0.72860  0.65400  Biso   1.000  H
  C106     1.0000 0.87980  0.68790  0.63770  Biso   1.000  C
  H81      1.0000 0.85010  0.71950  0.62330  Biso   1.000  H
  C107     1.0000 0.84590  0.63570  0.63990  Biso   1.000  C
  H82      1.0000 0.79350  0.63150  0.62480  Biso   1.000  H
  C108     1.0000 0.89100  0.58920  0.66510  Biso   1.000  C
  H83      1.0000 0.86780  0.55400  0.66790  Biso   1.000  H
  C109     1.0000 0.09020  0.65470  0.70240  Biso   1.000  C
  H84      1.0000 0.10120  0.69460  0.70740  Biso   1.000  H
  H85      1.0000 0.10280  0.63750  0.76510  Biso   1.000  H
  C110     1.0000 0.20920  0.60910  0.63530  Biso   1.000  C
  H86      1.0000 0.23450  0.60570  0.69540  Biso   1.000  H
  C111     1.0000 0.18470  0.60530  0.48430  Biso   1.000  C
  H87      1.0000 0.18850  0.59850  0.41710  Biso   1.000  H
  C112     1.0000 0.12210  0.62860  0.52940  Biso   1.000  C
  H88      1.0000 0.07670  0.64110  0.49940  Biso   1.000  H
  Co5      1.0000 0.64805  0.42743  0.48358  Biso   1.000  Co
  O21      1.0000 0.64290  0.50644  0.53440  Biso   1.000  O
  O22      1.0000 0.69080  0.45179  0.65110  Biso   1.000  O
  O23      1.0000 0.47200  0.90540  0.95230  Biso   1.000  O
  O24      1.0000 0.38570  0.84190  0.98110  Biso   1.000  O
  O25      1.0000 0.67250  0.68636  0.87620  Biso   1.000  O
  N17      1.0000 0.59690  0.44504  0.34980  Biso   1.000  N
  N18      1.0000 0.52630  0.49597  0.24860  Biso   1.000  N
  N19      1.0000 0.36150  0.63006  0.12550  Biso   1.000  N
  N20      1.0000 0.25970  0.59355  0.05080  Biso   1.000  N
  C113     1.0000 0.66660  0.54840  0.69010  Biso   1.000  C
  C114     1.0000 0.70290  0.54640  0.77940  Biso   1.000  C
  H89      1.0000 0.72830  0.51370  0.79840  Biso   1.000  H
  C115     1.0000 0.70260  0.59250  0.84260  Biso   1.000  C
  H90      1.0000 0.72790  0.59080  0.90300  Biso   1.000  H
  C116     1.0000 0.66440  0.64060  0.81410  Biso   1.000  C
  C117     1.0000 0.62670  0.64330  0.72480  Biso   1.000  C
  H91      1.0000 0.60110  0.67600  0.70590  Biso   1.000  H
  C118     1.0000 0.62750  0.59710  0.66360  Biso   1.000  C
  H92      1.0000 0.60140  0.59850  0.60380  Biso   1.000  H
  C119     1.0000 0.66780  0.49940  0.62310  Biso   1.000  C
  C120     1.0000 0.61340  0.72550  0.88730  Biso   1.000  C
  C121     1.0000 0.63670  0.77970  0.90340  Biso   1.000  C
  H93      1.0000 0.68950  0.78790  0.90120  Biso   1.000  H
  C122     1.0000 0.58550  0.82200  0.92250  Biso   1.000  C
  H94      1.0000 0.60250  0.85880  0.93060  Biso   1.000  H
  C123     1.0000 0.50800  0.80860  0.92950  Biso   1.000  C
  C124     1.0000 0.48150  0.75450  0.91260  Biso   1.000  C
  H95      1.0000 0.42880  0.74620  0.91700  Biso   1.000  H
  C125     1.0000 0.53650  0.71130  0.88830  Biso   1.000  C
  H96      1.0000 0.52030  0.67490  0.87370  Biso   1.000  H
  C126     1.0000 0.44850  0.85730  0.95820  Biso   1.000  C
  C127     1.0000 0.55710  0.49190  0.33840  Biso   1.000  C
  H97      1.0000 0.55110  0.51890  0.38720  Biso   1.000  H
  C128     1.0000 0.54630  0.44820  0.20010  Biso   1.000  C
  H98      1.0000 0.53270  0.43860  0.13610  Biso   1.000  H
  C129     1.0000 0.59010  0.41680  0.26340  Biso   1.000  C
  H99      1.0000 0.61170  0.38190  0.24950  Biso   1.000  H
  C130     1.0000 0.48090  0.54260  0.21080  Biso   1.000  C
  H100     1.0000 0.45360  0.53060  0.15210  Biso   1.000  H
  H101     1.0000 0.44230  0.55320  0.25940  Biso   1.000  H
  C131     1.0000 0.53060  0.59410  0.18610  Biso   1.000  C
  C132     1.0000 0.49510  0.64650  0.18110  Biso   1.000  C
  C133     1.0000 0.54050  0.69330  0.15710  Biso   1.000  C
  H102     1.0000 0.51740  0.72860  0.15400  Biso   1.000  H
  C134     1.0000 0.62020  0.68790  0.13770  Biso   1.000  C
  H103     1.0000 0.64990  0.71950  0.12330  Biso   1.000  H
  C135     1.0000 0.65410  0.63570  0.13990  Biso   1.000  C
  H104     1.0000 0.70650  0.63150  0.12480  Biso   1.000  H
  C136     1.0000 0.60900  0.58920  0.16510  Biso   1.000  C
  H105     1.0000 0.63220  0.55400  0.16790  Biso   1.000  H
  C137     1.0000 0.40980  0.65470  0.20240  Biso   1.000  C
  H106     1.0000 0.39880  0.69460  0.20740  Biso   1.000  H
  H107     1.0000 0.39720  0.63750  0.26510  Biso   1.000  H
  C138     1.0000 0.29080  0.60910  0.13530  Biso   1.000  C
  H108     1.0000 0.26550  0.60570  0.19540  Biso   1.000  H
  C139     1.0000 0.31530  0.60530  0.98430  Biso   1.000  C
  H109     1.0000 0.31150  0.59850  0.91710  Biso   1.000  H
  C140     1.0000 0.37790  0.62860  0.02940  Biso   1.000  C
  H110     1.0000 0.42330  0.64110  0.99940  Biso   1.000  H
  Co6      1.0000 0.85195  0.07257  0.48358  Biso   1.000  Co
  O26      1.0000 0.85710  0.99356  0.53440  Biso   1.000  O
  O27      1.0000 0.80920  0.04821  0.65110  Biso   1.000  O
  O28      1.0000 0.02800  0.59460  0.95230  Biso   1.000  O
  O29      1.0000 0.11430  0.65810  0.98110  Biso   1.000  O
  O30      1.0000 0.82750  0.81364  0.87620  Biso   1.000  O
  N21      1.0000 0.90310  0.05496  0.34980  Biso   1.000  N
  N22      1.0000 0.97370  0.00403  0.24860  Biso   1.000  N
  N23      1.0000 0.13850  0.86994  0.12550  Biso   1.000  N
  N24      1.0000 0.24030  0.90645  0.05080  Biso   1.000  N
  C141     1.0000 0.83340  0.95160  0.69010  Biso   1.000  C
  C142     1.0000 0.79710  0.95360  0.77940  Biso   1.000  C
  H111     1.0000 0.77170  0.98630  0.79840  Biso   1.000  H
  C143     1.0000 0.79740  0.90750  0.84260  Biso   1.000  C
  H112     1.0000 0.77210  0.90920  0.90300  Biso   1.000  H
  C144     1.0000 0.83560  0.85940  0.81410  Biso   1.000  C
  C145     1.0000 0.87330  0.85670  0.72480  Biso   1.000  C
  H113     1.0000 0.89890  0.82400  0.70590  Biso   1.000  H
  C146     1.0000 0.87250  0.90290  0.66360  Biso   1.000  C
  H114     1.0000 0.89860  0.90150  0.60380  Biso   1.000  H
  C147     1.0000 0.83220  0.00060  0.62310  Biso   1.000  C
  C148     1.0000 0.88660  0.77450  0.88730  Biso   1.000  C
  C149     1.0000 0.86330  0.72030  0.90340  Biso   1.000  C
  H115     1.0000 0.81050  0.71210  0.90120  Biso   1.000  H
  C150     1.0000 0.91450  0.67800  0.92250  Biso   1.000  C
  H116     1.0000 0.89750  0.64120  0.93060  Biso   1.000  H
  C151     1.0000 0.99200  0.69140  0.92950  Biso   1.000  C
  C152     1.0000 0.01850  0.74550  0.91260  Biso   1.000  C
  H117     1.0000 0.07120  0.75380  0.91700  Biso   1.000  H
  C153     1.0000 0.96350  0.78870  0.88830  Biso   1.000  C
  H118     1.0000 0.97970  0.82510  0.87370  Biso   1.000  H
  C154     1.0000 0.05150  0.64270  0.95820  Biso   1.000  C
  C155     1.0000 0.94290  0.00810  0.33840  Biso   1.000  C
  H119     1.0000 0.94890  0.98110  0.38720  Biso   1.000  H
  C156     1.0000 0.95370  0.05180  0.20010  Biso   1.000  C
  H120     1.0000 0.96730  0.06140  0.13610  Biso   1.000  H
  C157     1.0000 0.90990  0.08320  0.26340  Biso   1.000  C
  H121     1.0000 0.88830  0.11810  0.24950  Biso   1.000  H
  C158     1.0000 0.01910  0.95740  0.21080  Biso   1.000  C
  H122     1.0000 0.04640  0.96940  0.15210  Biso   1.000  H
  H123     1.0000 0.05770  0.94680  0.25940  Biso   1.000  H
  C159     1.0000 0.96940  0.90590  0.18610  Biso   1.000  C
  C160     1.0000 0.00490  0.85350  0.18110  Biso   1.000  C
  C161     1.0000 0.95950  0.80670  0.15710  Biso   1.000  C
  H124     1.0000 0.98260  0.77140  0.15400  Biso   1.000  H
  C162     1.0000 0.87980  0.81210  0.13770  Biso   1.000  C
  H125     1.0000 0.85010  0.78050  0.12330  Biso   1.000  H
  C163     1.0000 0.84590  0.86430  0.13990  Biso   1.000  C
  H126     1.0000 0.79350  0.86850  0.12480  Biso   1.000  H
  C164     1.0000 0.89100  0.91080  0.16510  Biso   1.000  C
  H127     1.0000 0.86780  0.94600  0.16790  Biso   1.000  H
  C165     1.0000 0.09020  0.84530  0.20240  Biso   1.000  C
  H128     1.0000 0.10120  0.80540  0.20740  Biso   1.000  H
  H129     1.0000 0.10280  0.86250  0.26510  Biso   1.000  H
  C166     1.0000 0.20920  0.89090  0.13530  Biso   1.000  C
  H130     1.0000 0.23450  0.89430  0.19540  Biso   1.000  H
  C167     1.0000 0.18470  0.89470  0.98430  Biso   1.000  C
  H131     1.0000 0.18850  0.90150  0.91710  Biso   1.000  H
  C168     1.0000 0.12210  0.87140  0.02940  Biso   1.000  C
  H132     1.0000 0.07670  0.85890  0.99940  Biso   1.000  H
  Co7      1.0000 0.35195  0.92743  0.01642  Biso   1.000  Co
  O31      1.0000 0.35710  0.00644  0.96560  Biso   1.000  O
  O32      1.0000 0.30920  0.95179  0.84890  Biso   1.000  O
  O33      1.0000 0.52800  0.40540  0.54770  Biso   1.000  O
  O34      1.0000 0.61430  0.34190  0.51890  Biso   1.000  O
  O35      1.0000 0.32750  0.18636  0.62380  Biso   1.000  O
  N25      1.0000 0.40310  0.94504  0.15020  Biso   1.000  N
  N26      1.0000 0.47370  0.99597  0.25140  Biso   1.000  N
  N27      1.0000 0.63850  0.13006  0.37450  Biso   1.000  N
  N28      1.0000 0.74030  0.09355  0.44920  Biso   1.000  N
  C169     1.0000 0.33340  0.04840  0.80990  Biso   1.000  C
  C170     1.0000 0.29710  0.04640  0.72060  Biso   1.000  C
  H133     1.0000 0.27170  0.01370  0.70160  Biso   1.000  H
  C171     1.0000 0.29740  0.09250  0.65740  Biso   1.000  C
  H134     1.0000 0.27210  0.09080  0.59700  Biso   1.000  H
  C172     1.0000 0.33560  0.14060  0.68590  Biso   1.000  C
  C173     1.0000 0.37330  0.14330  0.77520  Biso   1.000  C
  H135     1.0000 0.39890  0.17600  0.79410  Biso   1.000  H
  C174     1.0000 0.37250  0.09710  0.83640  Biso   1.000  C
  H136     1.0000 0.39860  0.09850  0.89620  Biso   1.000  H
  C175     1.0000 0.33220  0.99940  0.87690  Biso   1.000  C
  C176     1.0000 0.38660  0.22550  0.61270  Biso   1.000  C
  C177     1.0000 0.36330  0.27970  0.59660  Biso   1.000  C
  H137     1.0000 0.31050  0.28790  0.59880  Biso   1.000  H
  C178     1.0000 0.41450  0.32200  0.57750  Biso   1.000  C
  H138     1.0000 0.39750  0.35880  0.56940  Biso   1.000  H
  C179     1.0000 0.49200  0.30860  0.57050  Biso   1.000  C
  C180     1.0000 0.51850  0.25450  0.58740  Biso   1.000  C
  H139     1.0000 0.57120  0.24620  0.58300  Biso   1.000  H
  C181     1.0000 0.46350  0.21130  0.61170  Biso   1.000  C
  H140     1.0000 0.47970  0.17490  0.62630  Biso   1.000  H
  C182     1.0000 0.55150  0.35730  0.54180  Biso   1.000  C
  C183     1.0000 0.44290  0.99190  0.16160  Biso   1.000  C
  H141     1.0000 0.44890  0.01890  0.11280  Biso   1.000  H
  C184     1.0000 0.45370  0.94820  0.29990  Biso   1.000  C
  H142     1.0000 0.46730  0.93860  0.36390  Biso   1.000  H
  C185     1.0000 0.40990  0.91680  0.23660  Biso   1.000  C
  H143     1.0000 0.38830  0.88190  0.25050  Biso   1.000  H
  C186     1.0000 0.51910  0.04260  0.28920  Biso   1.000  C
  H144     1.0000 0.54640  0.03060  0.34790  Biso   1.000  H
  H145     1.0000 0.55770  0.05320  0.24060  Biso   1.000  H
  C187     1.0000 0.46940  0.09410  0.31390  Biso   1.000  C
  C188     1.0000 0.50490  0.14650  0.31890  Biso   1.000  C
  C189     1.0000 0.45950  0.19330  0.34290  Biso   1.000  C
  H146     1.0000 0.48260  0.22860  0.34600  Biso   1.000  H
  C190     1.0000 0.37980  0.18790  0.36230  Biso   1.000  C
  H147     1.0000 0.35010  0.21950  0.37670  Biso   1.000  H
  C191     1.0000 0.34590  0.13570  0.36010  Biso   1.000  C
  H148     1.0000 0.29350  0.13150  0.37520  Biso   1.000  H
  C192     1.0000 0.39100  0.08920  0.33490  Biso   1.000  C
  H149     1.0000 0.36780  0.05400  0.33210  Biso   1.000  H
  C193     1.0000 0.59020  0.15470  0.29760  Biso   1.000  C
  H150     1.0000 0.60120  0.19460  0.29260  Biso   1.000  H
  H151     1.0000 0.60280  0.13750  0.23490  Biso   1.000  H
  C194     1.0000 0.70920  0.10910  0.36470  Biso   1.000  C
  H152     1.0000 0.73450  0.10570  0.30460  Biso   1.000  H
  C195     1.0000 0.68470  0.10530  0.51570  Biso   1.000  C
  H153     1.0000 0.68850  0.09850  0.58290  Biso   1.000  H
  C196     1.0000 0.62210  0.12860  0.47060  Biso   1.000  C
  H154     1.0000 0.57670  0.14110  0.50060  Biso   1.000  H
  Co8      1.0000 0.14805  0.57257  0.01642  Biso   1.000  Co
  O36      1.0000 0.14290  0.49356  0.96560  Biso   1.000  O
  O37      1.0000 0.19080  0.54821  0.84890  Biso   1.000  O
  O38      1.0000 0.97200  0.09460  0.54770  Biso   1.000  O
  O39      1.0000 0.88570  0.15810  0.51890  Biso   1.000  O
  O40      1.0000 0.17250  0.31364  0.62380  Biso   1.000  O
  N29      1.0000 0.09690  0.55496  0.15020  Biso   1.000  N
  N30      1.0000 0.02630  0.50403  0.25140  Biso   1.000  N
  N31      1.0000 0.86150  0.36994  0.37450  Biso   1.000  N
  N32      1.0000 0.75970  0.40645  0.44920  Biso   1.000  N
  C197     1.0000 0.16660  0.45160  0.80990  Biso   1.000  C
  C198     1.0000 0.20290  0.45360  0.72060  Biso   1.000  C
  H155     1.0000 0.22830  0.48630  0.70160  Biso   1.000  H
  C199     1.0000 0.20260  0.40750  0.65740  Biso   1.000  C
  H156     1.0000 0.22790  0.40920  0.59700  Biso   1.000  H
  C200     1.0000 0.16440  0.35940  0.68590  Biso   1.000  C
  C201     1.0000 0.12670  0.35670  0.77520  Biso   1.000  C
  H157     1.0000 0.10110  0.32400  0.79410  Biso   1.000  H
  C202     1.0000 0.12750  0.40290  0.83640  Biso   1.000  C
  H158     1.0000 0.10140  0.40150  0.89620  Biso   1.000  H
  C203     1.0000 0.16780  0.50060  0.87690  Biso   1.000  C
  C204     1.0000 0.11340  0.27450  0.61270  Biso   1.000  C
  C205     1.0000 0.13670  0.22030  0.59660  Biso   1.000  C
  H159     1.0000 0.18950  0.21210  0.59880  Biso   1.000  H
  C206     1.0000 0.08550  0.17800  0.57750  Biso   1.000  C
  H160     1.0000 0.10250  0.14120  0.56940  Biso   1.000  H
  C207     1.0000 0.00800  0.19140  0.57050  Biso   1.000  C
  C208     1.0000 0.98150  0.24550  0.58740  Biso   1.000  C
  H161     1.0000 0.92880  0.25380  0.58300  Biso   1.000  H
  C209     1.0000 0.03650  0.28870  0.61170  Biso   1.000  C
  H162     1.0000 0.02030  0.32510  0.62630  Biso   1.000  H
  C210     1.0000 0.94850  0.14270  0.54180  Biso   1.000  C
  C211     1.0000 0.05710  0.50810  0.16160  Biso   1.000  C
  H163     1.0000 0.05110  0.48110  0.11280  Biso   1.000  H
  C212     1.0000 0.04630  0.55180  0.29990  Biso   1.000  C
  H164     1.0000 0.03270  0.56140  0.36390  Biso   1.000  H
  C213     1.0000 0.09010  0.58320  0.23660  Biso   1.000  C
  H165     1.0000 0.11170  0.61810  0.25050  Biso   1.000  H
  C214     1.0000 0.98090  0.45740  0.28920  Biso   1.000  C
  H166     1.0000 0.95360  0.46940  0.34790  Biso   1.000  H
  H167     1.0000 0.94230  0.44680  0.24060  Biso   1.000  H
  C215     1.0000 0.03060  0.40590  0.31390  Biso   1.000  C
  C216     1.0000 0.99510  0.35350  0.31890  Biso   1.000  C
  C217     1.0000 0.04050  0.30670  0.34290  Biso   1.000  C
  H168     1.0000 0.01740  0.27140  0.34600  Biso   1.000  H
  C218     1.0000 0.12020  0.31210  0.36230  Biso   1.000  C
  H169     1.0000 0.14990  0.28050  0.37670  Biso   1.000  H
  C219     1.0000 0.15410  0.36430  0.36010  Biso   1.000  C
  H170     1.0000 0.20650  0.36850  0.37520  Biso   1.000  H
  C220     1.0000 0.10900  0.41080  0.33490  Biso   1.000  C
  H171     1.0000 0.13220  0.44600  0.33210  Biso   1.000  H
  C221     1.0000 0.90980  0.34530  0.29760  Biso   1.000  C
  H172     1.0000 0.89880  0.30540  0.29260  Biso   1.000  H
  H173     1.0000 0.89720  0.36250  0.23490  Biso   1.000  H
  C222     1.0000 0.79080  0.39090  0.36470  Biso   1.000  C
  H174     1.0000 0.76550  0.39430  0.30460  Biso   1.000  H
  C223     1.0000 0.81530  0.39470  0.51570  Biso   1.000  C
  H175     1.0000 0.81150  0.40150  0.58290  Biso   1.000  H
  C224     1.0000 0.87790  0.37140  0.47060  Biso   1.000  C
  H176     1.0000 0.92330  0.35890  0.50060  Biso   1.000  H
