data_image0
_cell_length_a       38.027
_cell_length_b       19.03
_cell_length_c       19.7515
_cell_angle_alpha    90
_cell_angle_beta     104.123
_cell_angle_gamma    90

_symmetry_space_group_name_H-M    "P 1"
_symmetry_int_tables_number       1

loop_
  _symmetry_equiv_pos_as_xyz
  'x, y, z'

loop_
  _atom_site_label
  _atom_site_occupancy
  _atom_site_fract_x
  _atom_site_fract_y
  _atom_site_fract_z
  _atom_site_thermal_displace_type
  _atom_site_B_iso_or_equiv
  _atom_site_type_symbol
  Zn1      1.0000 0.90116  0.38890  0.08891  Biso   1.000  Zn
  Zn2      1.0000 0.89303  0.10900  0.20344  Biso   1.000  Zn
  Zn3      1.0000 0.81100  0.41066  0.05121  Biso   1.000  Zn
  C1       1.0000 0.93040  0.05670  0.10400  Biso   1.000  C
  C2       1.0000 0.92830  0.03190  0.03240  Biso   1.000  C
  C3       1.0000 0.95640  0.99150  0.02200  Biso   1.000  C
  H1       1.0000 0.97560  0.98110  0.05980  Biso   1.000  H
  C4       1.0000 0.95680  0.96600  0.95680  Biso   1.000  C
  H2       1.0000 0.97640  0.93950  0.95100  Biso   1.000  H
  C5       1.0000 0.92810  0.97970  0.89980  Biso   1.000  C
  C6       1.0000 0.89877  0.02050  0.91050  Biso   1.000  C
  H3       1.0000 0.87920  0.02950  0.87290  Biso   1.000  H
  C7       1.0000 0.89851  0.04700  0.97490  Biso   1.000  C
  C8       1.0000 0.92780  0.95310  0.82840  Biso   1.000  C
  C9       1.0000 0.86703  0.09000  0.98150  Biso   1.000  C
  C10      1.0000 0.87258  0.15880  0.00790  Biso   1.000  C
  H4       1.0000 0.89600  0.17660  0.02190  Biso   1.000  H
  C11      1.0000 0.84322  0.20040  0.01330  Biso   1.000  C
  C12      1.0000 0.80832  0.17180  0.99480  Biso   1.000  C
  H5       1.0000 0.78870  0.19860  0.00010  Biso   1.000  H
  C13      1.0000 0.80254  0.10490  0.96880  Biso   1.000  C
  C14      1.0000 0.83264  0.06400  0.96120  Biso   1.000  C
  H6       1.0000 0.82880  0.01920  0.94210  Biso   1.000  H
  C15      1.0000 0.84841  0.27410  0.04130  Biso   1.000  C
  C16      1.0000 0.76560  0.07330  0.95200  Biso   1.000  C
  C17      1.0000 0.93608  0.22430  0.24800  Biso   1.000  C
  C18      1.0000 0.94389  0.29550  0.28130  Biso   1.000  C
  C19      1.0000 0.97955  0.31560  0.31040  Biso   1.000  C
  H7       1.0000 0.99850  0.28450  0.31070  Biso   1.000  H
  C20      1.0000 0.98691  0.38300  0.33940  Biso   1.000  C
  C21      1.0000 0.95752  0.42840  0.33880  Biso   1.000  C
  H8       1.0000 0.96220  0.47380  0.35620  Biso   1.000  H
  C22      1.0000 0.92214  0.40720  0.31310  Biso   1.000  C
  C23      1.0000 0.91496  0.34080  0.28270  Biso   1.000  C
  H9       1.0000 0.89120  0.32680  0.26350  Biso   1.000  H
  C24      1.0000 0.02464  0.40600  0.36890  Biso   1.000  C
  C25      1.0000 0.89095  0.45390  0.31660  Biso   1.000  C
  C26      1.0000 0.89011  0.48290  0.37960  Biso   1.000  C
  H10      1.0000 0.90960  0.47560  0.41790  Biso   1.000  H
  C27      1.0000 0.86100  0.52290  0.38800  Biso   1.000  C
  C28      1.0000 0.83190  0.53380  0.33140  Biso   1.000  C
  H11      1.0000 0.81240  0.56090  0.33630  Biso   1.000  H
  C29      1.0000 0.83210  0.50410  0.26700  Biso   1.000  C
  H12      1.0000 0.81250  0.51110  0.22890  Biso   1.000  H
  C30      1.0000 0.86132  0.46400  0.25970  Biso   1.000  C
  C31      1.0000 0.86040  0.55210  0.46000  Biso   1.000  C
  C32      1.0000 0.86030  0.43630  0.18750  Biso   1.000  C
  O1       1.0000 0.89988  0.05890  0.12320  Biso   1.000  O
  O2       1.0000 0.95968  0.07080  0.14150  Biso   1.000  O
  O3       1.0000 0.89783  0.94980  0.78550  Biso   1.000  O
  O4       1.0000 0.95663  0.93470  0.81700  Biso   1.000  O
  O5       1.0000 0.82085  0.30660  0.04610  Biso   1.000  O
  O6       1.0000 0.88031  0.29780  0.05690  Biso   1.000  O
  O7       1.0000 0.74055  0.10990  0.96550  Biso   1.000  O
  O8       1.0000 0.76092  0.01290  0.92560  Biso   1.000  O
  O9       1.0000 0.90315  0.20620  0.22790  Biso   1.000  O
  O10      1.0000 0.96145  0.18890  0.24010  Biso   1.000  O
  O11      1.0000 0.03122  0.46920  0.38000  Biso   1.000  O
  O12      1.0000 0.04920  0.35910  0.37930  Biso   1.000  O
  O13      1.0000 0.83041  0.41360  0.15340  Biso   1.000  O
  O14      1.0000 0.88766  0.44060  0.16530  Biso   1.000  O
  O15      1.0000 0.83014  0.57470  0.46550  Biso   1.000  O
  O16      1.0000 0.88965  0.55110  0.50530  Biso   1.000  O
  Zn4      1.0000 0.40116  0.88890  0.08891  Biso   1.000  Zn
  Zn5      1.0000 0.39303  0.60900  0.20344  Biso   1.000  Zn
  Zn6      1.0000 0.31100  0.91066  0.05121  Biso   1.000  Zn
  C33      1.0000 0.43040  0.55670  0.10400  Biso   1.000  C
  C34      1.0000 0.42830  0.53190  0.03240  Biso   1.000  C
  C35      1.0000 0.45640  0.49150  0.02200  Biso   1.000  C
  H13      1.0000 0.47560  0.48110  0.05980  Biso   1.000  H
  C36      1.0000 0.45680  0.46600  0.95680  Biso   1.000  C
  H14      1.0000 0.47640  0.43950  0.95100  Biso   1.000  H
  C37      1.0000 0.42810  0.47970  0.89980  Biso   1.000  C
  C38      1.0000 0.39877  0.52050  0.91050  Biso   1.000  C
  H15      1.0000 0.37920  0.52950  0.87290  Biso   1.000  H
  C39      1.0000 0.39851  0.54700  0.97490  Biso   1.000  C
  C40      1.0000 0.42780  0.45310  0.82840  Biso   1.000  C
  C41      1.0000 0.36703  0.59000  0.98150  Biso   1.000  C
  C42      1.0000 0.37258  0.65880  0.00790  Biso   1.000  C
  H16      1.0000 0.39600  0.67660  0.02190  Biso   1.000  H
  C43      1.0000 0.34322  0.70040  0.01330  Biso   1.000  C
  C44      1.0000 0.30832  0.67180  0.99480  Biso   1.000  C
  H17      1.0000 0.28870  0.69860  0.00010  Biso   1.000  H
  C45      1.0000 0.30254  0.60490  0.96880  Biso   1.000  C
  C46      1.0000 0.33264  0.56400  0.96120  Biso   1.000  C
  H18      1.0000 0.32880  0.51920  0.94210  Biso   1.000  H
  C47      1.0000 0.34841  0.77410  0.04130  Biso   1.000  C
  C48      1.0000 0.26560  0.57330  0.95200  Biso   1.000  C
  C49      1.0000 0.43608  0.72430  0.24800  Biso   1.000  C
  C50      1.0000 0.44389  0.79550  0.28130  Biso   1.000  C
  C51      1.0000 0.47955  0.81560  0.31040  Biso   1.000  C
  H19      1.0000 0.49850  0.78450  0.31070  Biso   1.000  H
  C52      1.0000 0.48691  0.88300  0.33940  Biso   1.000  C
  C53      1.0000 0.45752  0.92840  0.33880  Biso   1.000  C
  H20      1.0000 0.46220  0.97380  0.35620  Biso   1.000  H
  C54      1.0000 0.42214  0.90720  0.31310  Biso   1.000  C
  C55      1.0000 0.41496  0.84080  0.28270  Biso   1.000  C
  H21      1.0000 0.39120  0.82680  0.26350  Biso   1.000  H
  C56      1.0000 0.52464  0.90600  0.36890  Biso   1.000  C
  C57      1.0000 0.39095  0.95390  0.31660  Biso   1.000  C
  C58      1.0000 0.39011  0.98290  0.37960  Biso   1.000  C
  H22      1.0000 0.40960  0.97560  0.41790  Biso   1.000  H
  C59      1.0000 0.36100  0.02290  0.38800  Biso   1.000  C
  C60      1.0000 0.33190  0.03380  0.33140  Biso   1.000  C
  H23      1.0000 0.31240  0.06090  0.33630  Biso   1.000  H
  C61      1.0000 0.33210  0.00410  0.26700  Biso   1.000  C
  H24      1.0000 0.31250  0.01110  0.22890  Biso   1.000  H
  C62      1.0000 0.36132  0.96400  0.25970  Biso   1.000  C
  C63      1.0000 0.36040  0.05210  0.46000  Biso   1.000  C
  C64      1.0000 0.36030  0.93630  0.18750  Biso   1.000  C
  O17      1.0000 0.39988  0.55890  0.12320  Biso   1.000  O
  O18      1.0000 0.45968  0.57080  0.14150  Biso   1.000  O
  O19      1.0000 0.39783  0.44980  0.78550  Biso   1.000  O
  O20      1.0000 0.45663  0.43470  0.81700  Biso   1.000  O
  O21      1.0000 0.32085  0.80660  0.04610  Biso   1.000  O
  O22      1.0000 0.38031  0.79780  0.05690  Biso   1.000  O
  O23      1.0000 0.24055  0.60990  0.96550  Biso   1.000  O
  O24      1.0000 0.26092  0.51290  0.92560  Biso   1.000  O
  O25      1.0000 0.40315  0.70620  0.22790  Biso   1.000  O
  O26      1.0000 0.46145  0.68890  0.24010  Biso   1.000  O
  O27      1.0000 0.53122  0.96920  0.38000  Biso   1.000  O
  O28      1.0000 0.54920  0.85910  0.37930  Biso   1.000  O
  O29      1.0000 0.33041  0.91360  0.15340  Biso   1.000  O
  O30      1.0000 0.38766  0.94060  0.16530  Biso   1.000  O
  O31      1.0000 0.33014  0.07470  0.46550  Biso   1.000  O
  O32      1.0000 0.38965  0.05110  0.50530  Biso   1.000  O
  Zn7      1.0000 0.09884  0.38890  0.41109  Biso   1.000  Zn
  Zn8      1.0000 0.10697  0.10900  0.29656  Biso   1.000  Zn
  Zn9      1.0000 0.18900  0.41066  0.44879  Biso   1.000  Zn
  C65      1.0000 0.06960  0.05670  0.39600  Biso   1.000  C
  C66      1.0000 0.07170  0.03190  0.46760  Biso   1.000  C
  C67      1.0000 0.04360  0.99150  0.47800  Biso   1.000  C
  H25      1.0000 0.02440  0.98110  0.44020  Biso   1.000  H
  C68      1.0000 0.04320  0.96600  0.54320  Biso   1.000  C
  H26      1.0000 0.02360  0.93950  0.54900  Biso   1.000  H
  C69      1.0000 0.07190  0.97970  0.60020  Biso   1.000  C
  C70      1.0000 0.10123  0.02050  0.58950  Biso   1.000  C
  H27      1.0000 0.12080  0.02950  0.62710  Biso   1.000  H
  C71      1.0000 0.10149  0.04700  0.52510  Biso   1.000  C
  C72      1.0000 0.07220  0.95310  0.67160  Biso   1.000  C
  C73      1.0000 0.13297  0.09000  0.51850  Biso   1.000  C
  C74      1.0000 0.12742  0.15880  0.49210  Biso   1.000  C
  H28      1.0000 0.10400  0.17660  0.47810  Biso   1.000  H
  C75      1.0000 0.15678  0.20040  0.48670  Biso   1.000  C
  C76      1.0000 0.19168  0.17180  0.50520  Biso   1.000  C
  H29      1.0000 0.21130  0.19860  0.49990  Biso   1.000  H
  C77      1.0000 0.19746  0.10490  0.53120  Biso   1.000  C
  C78      1.0000 0.16736  0.06400  0.53880  Biso   1.000  C
  H30      1.0000 0.17120  0.01920  0.55790  Biso   1.000  H
  C79      1.0000 0.15159  0.27410  0.45870  Biso   1.000  C
  C80      1.0000 0.23440  0.07330  0.54800  Biso   1.000  C
  C81      1.0000 0.06392  0.22430  0.25200  Biso   1.000  C
  C82      1.0000 0.05611  0.29550  0.21870  Biso   1.000  C
  C83      1.0000 0.02045  0.31560  0.18960  Biso   1.000  C
  H31      1.0000 0.00150  0.28450  0.18930  Biso   1.000  H
  C84      1.0000 0.01309  0.38300  0.16060  Biso   1.000  C
  C85      1.0000 0.04248  0.42840  0.16120  Biso   1.000  C
  H32      1.0000 0.03780  0.47380  0.14380  Biso   1.000  H
  C86      1.0000 0.07786  0.40720  0.18690  Biso   1.000  C
  C87      1.0000 0.08504  0.34080  0.21730  Biso   1.000  C
  H33      1.0000 0.10880  0.32680  0.23650  Biso   1.000  H
  C88      1.0000 0.97536  0.40600  0.13110  Biso   1.000  C
  C89      1.0000 0.10905  0.45390  0.18340  Biso   1.000  C
  C90      1.0000 0.10989  0.48290  0.12040  Biso   1.000  C
  H34      1.0000 0.09040  0.47560  0.08210  Biso   1.000  H
  C91      1.0000 0.13900  0.52290  0.11200  Biso   1.000  C
  C92      1.0000 0.16810  0.53380  0.16860  Biso   1.000  C
  H35      1.0000 0.18760  0.56090  0.16370  Biso   1.000  H
  C93      1.0000 0.16790  0.50410  0.23300  Biso   1.000  C
  H36      1.0000 0.18750  0.51110  0.27110  Biso   1.000  H
  C94      1.0000 0.13868  0.46400  0.24030  Biso   1.000  C
  C95      1.0000 0.13960  0.55210  0.04000  Biso   1.000  C
  C96      1.0000 0.13970  0.43630  0.31250  Biso   1.000  C
  O33      1.0000 0.10012  0.05890  0.37680  Biso   1.000  O
  O34      1.0000 0.04032  0.07080  0.35850  Biso   1.000  O
  O35      1.0000 0.10217  0.94980  0.71450  Biso   1.000  O
  O36      1.0000 0.04337  0.93470  0.68300  Biso   1.000  O
  O37      1.0000 0.17915  0.30660  0.45390  Biso   1.000  O
  O38      1.0000 0.11969  0.29780  0.44310  Biso   1.000  O
  O39      1.0000 0.25945  0.10990  0.53450  Biso   1.000  O
  O40      1.0000 0.23908  0.01290  0.57440  Biso   1.000  O
  O41      1.0000 0.09685  0.20620  0.27210  Biso   1.000  O
  O42      1.0000 0.03855  0.18890  0.25990  Biso   1.000  O
  O43      1.0000 0.96878  0.46920  0.12000  Biso   1.000  O
  O44      1.0000 0.95080  0.35910  0.12070  Biso   1.000  O
  O45      1.0000 0.16959  0.41360  0.34660  Biso   1.000  O
  O46      1.0000 0.11234  0.44060  0.33470  Biso   1.000  O
  O47      1.0000 0.16986  0.57470  0.03450  Biso   1.000  O
  O48      1.0000 0.11035  0.55110  0.99470  Biso   1.000  O
  Zn10     1.0000 0.59884  0.88890  0.41109  Biso   1.000  Zn
  Zn11     1.0000 0.60697  0.60900  0.29656  Biso   1.000  Zn
  Zn12     1.0000 0.68900  0.91066  0.44879  Biso   1.000  Zn
  C97      1.0000 0.56960  0.55670  0.39600  Biso   1.000  C
  C98      1.0000 0.57170  0.53190  0.46760  Biso   1.000  C
  C99      1.0000 0.54360  0.49150  0.47800  Biso   1.000  C
  H37      1.0000 0.52440  0.48110  0.44020  Biso   1.000  H
  C100     1.0000 0.54320  0.46600  0.54320  Biso   1.000  C
  H38      1.0000 0.52360  0.43950  0.54900  Biso   1.000  H
  C101     1.0000 0.57190  0.47970  0.60020  Biso   1.000  C
  C102     1.0000 0.60123  0.52050  0.58950  Biso   1.000  C
  H39      1.0000 0.62080  0.52950  0.62710  Biso   1.000  H
  C103     1.0000 0.60149  0.54700  0.52510  Biso   1.000  C
  C104     1.0000 0.57220  0.45310  0.67160  Biso   1.000  C
  C105     1.0000 0.63297  0.59000  0.51850  Biso   1.000  C
  C106     1.0000 0.62742  0.65880  0.49210  Biso   1.000  C
  H40      1.0000 0.60400  0.67660  0.47810  Biso   1.000  H
  C107     1.0000 0.65678  0.70040  0.48670  Biso   1.000  C
  C108     1.0000 0.69168  0.67180  0.50520  Biso   1.000  C
  H41      1.0000 0.71130  0.69860  0.49990  Biso   1.000  H
  C109     1.0000 0.69746  0.60490  0.53120  Biso   1.000  C
  C110     1.0000 0.66736  0.56400  0.53880  Biso   1.000  C
  H42      1.0000 0.67120  0.51920  0.55790  Biso   1.000  H
  C111     1.0000 0.65159  0.77410  0.45870  Biso   1.000  C
  C112     1.0000 0.73440  0.57330  0.54800  Biso   1.000  C
  C113     1.0000 0.56392  0.72430  0.25200  Biso   1.000  C
  C114     1.0000 0.55611  0.79550  0.21870  Biso   1.000  C
  C115     1.0000 0.52045  0.81560  0.18960  Biso   1.000  C
  H43      1.0000 0.50150  0.78450  0.18930  Biso   1.000  H
  C116     1.0000 0.51309  0.88300  0.16060  Biso   1.000  C
  C117     1.0000 0.54248  0.92840  0.16120  Biso   1.000  C
  H44      1.0000 0.53780  0.97380  0.14380  Biso   1.000  H
  C118     1.0000 0.57786  0.90720  0.18690  Biso   1.000  C
  C119     1.0000 0.58504  0.84080  0.21730  Biso   1.000  C
  H45      1.0000 0.60880  0.82680  0.23650  Biso   1.000  H
  C120     1.0000 0.47536  0.90600  0.13110  Biso   1.000  C
  C121     1.0000 0.60905  0.95390  0.18340  Biso   1.000  C
  C122     1.0000 0.60989  0.98290  0.12040  Biso   1.000  C
  H46      1.0000 0.59040  0.97560  0.08210  Biso   1.000  H
  C123     1.0000 0.63900  0.02290  0.11200  Biso   1.000  C
  C124     1.0000 0.66810  0.03380  0.16860  Biso   1.000  C
  H47      1.0000 0.68760  0.06090  0.16370  Biso   1.000  H
  C125     1.0000 0.66790  0.00410  0.23300  Biso   1.000  C
  H48      1.0000 0.68750  0.01110  0.27110  Biso   1.000  H
  C126     1.0000 0.63868  0.96400  0.24030  Biso   1.000  C
  C127     1.0000 0.63960  0.05210  0.04000  Biso   1.000  C
  C128     1.0000 0.63970  0.93630  0.31250  Biso   1.000  C
  O49      1.0000 0.60012  0.55890  0.37680  Biso   1.000  O
  O50      1.0000 0.54032  0.57080  0.35850  Biso   1.000  O
  O51      1.0000 0.60217  0.44980  0.71450  Biso   1.000  O
  O52      1.0000 0.54337  0.43470  0.68300  Biso   1.000  O
  O53      1.0000 0.67915  0.80660  0.45390  Biso   1.000  O
  O54      1.0000 0.61969  0.79780  0.44310  Biso   1.000  O
  O55      1.0000 0.75945  0.60990  0.53450  Biso   1.000  O
  O56      1.0000 0.73908  0.51290  0.57440  Biso   1.000  O
  O57      1.0000 0.59685  0.70620  0.27210  Biso   1.000  O
  O58      1.0000 0.53855  0.68890  0.25990  Biso   1.000  O
  O59      1.0000 0.46878  0.96920  0.12000  Biso   1.000  O
  O60      1.0000 0.45080  0.85910  0.12070  Biso   1.000  O
  O61      1.0000 0.66959  0.91360  0.34660  Biso   1.000  O
  O62      1.0000 0.61234  0.94060  0.33470  Biso   1.000  O
  O63      1.0000 0.66986  0.07470  0.03450  Biso   1.000  O
  O64      1.0000 0.61035  0.05110  0.99470  Biso   1.000  O
  Zn13     1.0000 0.09884  0.61110  0.91109  Biso   1.000  Zn
  Zn14     1.0000 0.10697  0.89100  0.79656  Biso   1.000  Zn
  Zn15     1.0000 0.18900  0.58934  0.94879  Biso   1.000  Zn
  C129     1.0000 0.06960  0.94330  0.89600  Biso   1.000  C
  C130     1.0000 0.07170  0.96810  0.96760  Biso   1.000  C
  C131     1.0000 0.04360  0.00850  0.97800  Biso   1.000  C
  H49      1.0000 0.02440  0.01890  0.94020  Biso   1.000  H
  C132     1.0000 0.04320  0.03400  0.04320  Biso   1.000  C
  H50      1.0000 0.02360  0.06050  0.04900  Biso   1.000  H
  C133     1.0000 0.07190  0.02030  0.10020  Biso   1.000  C
  C134     1.0000 0.10123  0.97950  0.08950  Biso   1.000  C
  H51      1.0000 0.12080  0.97050  0.12710  Biso   1.000  H
  C135     1.0000 0.10149  0.95300  0.02510  Biso   1.000  C
  C136     1.0000 0.07220  0.04690  0.17160  Biso   1.000  C
  C137     1.0000 0.13297  0.91000  0.01850  Biso   1.000  C
  C138     1.0000 0.12742  0.84120  0.99210  Biso   1.000  C
  H52      1.0000 0.10400  0.82340  0.97810  Biso   1.000  H
  C139     1.0000 0.15678  0.79960  0.98670  Biso   1.000  C
  C140     1.0000 0.19168  0.82820  0.00520  Biso   1.000  C
  H53      1.0000 0.21130  0.80140  0.99990  Biso   1.000  H
  C141     1.0000 0.19746  0.89510  0.03120  Biso   1.000  C
  C142     1.0000 0.16736  0.93600  0.03880  Biso   1.000  C
  H54      1.0000 0.17120  0.98080  0.05790  Biso   1.000  H
  C143     1.0000 0.15159  0.72590  0.95870  Biso   1.000  C
  C144     1.0000 0.23440  0.92670  0.04800  Biso   1.000  C
  C145     1.0000 0.06392  0.77570  0.75200  Biso   1.000  C
  C146     1.0000 0.05611  0.70450  0.71870  Biso   1.000  C
  C147     1.0000 0.02045  0.68440  0.68960  Biso   1.000  C
  H55      1.0000 0.00150  0.71550  0.68930  Biso   1.000  H
  C148     1.0000 0.01309  0.61700  0.66060  Biso   1.000  C
  C149     1.0000 0.04248  0.57160  0.66120  Biso   1.000  C
  H56      1.0000 0.03780  0.52620  0.64380  Biso   1.000  H
  C150     1.0000 0.07786  0.59280  0.68690  Biso   1.000  C
  C151     1.0000 0.08504  0.65920  0.71730  Biso   1.000  C
  H57      1.0000 0.10880  0.67320  0.73650  Biso   1.000  H
  C152     1.0000 0.97536  0.59400  0.63110  Biso   1.000  C
  C153     1.0000 0.10905  0.54610  0.68340  Biso   1.000  C
  C154     1.0000 0.10989  0.51710  0.62040  Biso   1.000  C
  H58      1.0000 0.09040  0.52440  0.58210  Biso   1.000  H
  C155     1.0000 0.13900  0.47710  0.61200  Biso   1.000  C
  C156     1.0000 0.16810  0.46620  0.66860  Biso   1.000  C
  H59      1.0000 0.18760  0.43910  0.66370  Biso   1.000  H
  C157     1.0000 0.16790  0.49590  0.73300  Biso   1.000  C
  H60      1.0000 0.18750  0.48890  0.77110  Biso   1.000  H
  C158     1.0000 0.13868  0.53600  0.74030  Biso   1.000  C
  C159     1.0000 0.13960  0.44790  0.54000  Biso   1.000  C
  C160     1.0000 0.13970  0.56370  0.81250  Biso   1.000  C
  O65      1.0000 0.10012  0.94110  0.87680  Biso   1.000  O
  O66      1.0000 0.04032  0.92920  0.85850  Biso   1.000  O
  O67      1.0000 0.10217  0.05020  0.21450  Biso   1.000  O
  O68      1.0000 0.04337  0.06530  0.18300  Biso   1.000  O
  O69      1.0000 0.17915  0.69340  0.95390  Biso   1.000  O
  O70      1.0000 0.11969  0.70220  0.94310  Biso   1.000  O
  O71      1.0000 0.25945  0.89010  0.03450  Biso   1.000  O
  O72      1.0000 0.23908  0.98710  0.07440  Biso   1.000  O
  O73      1.0000 0.09685  0.79380  0.77210  Biso   1.000  O
  O74      1.0000 0.03855  0.81110  0.75990  Biso   1.000  O
  O75      1.0000 0.96878  0.53080  0.62000  Biso   1.000  O
  O76      1.0000 0.95080  0.64090  0.62070  Biso   1.000  O
  O77      1.0000 0.16959  0.58640  0.84660  Biso   1.000  O
  O78      1.0000 0.11234  0.55940  0.83470  Biso   1.000  O
  O79      1.0000 0.16986  0.42530  0.53450  Biso   1.000  O
  O80      1.0000 0.11035  0.44890  0.49470  Biso   1.000  O
  Zn16     1.0000 0.59884  0.11110  0.91109  Biso   1.000  Zn
  Zn17     1.0000 0.60697  0.39100  0.79656  Biso   1.000  Zn
  Zn18     1.0000 0.68900  0.08934  0.94879  Biso   1.000  Zn
  C161     1.0000 0.56960  0.44330  0.89600  Biso   1.000  C
  C162     1.0000 0.57170  0.46810  0.96760  Biso   1.000  C
  C163     1.0000 0.54360  0.50850  0.97800  Biso   1.000  C
  H61      1.0000 0.52440  0.51890  0.94020  Biso   1.000  H
  C164     1.0000 0.54320  0.53400  0.04320  Biso   1.000  C
  H62      1.0000 0.52360  0.56050  0.04900  Biso   1.000  H
  C165     1.0000 0.57190  0.52030  0.10020  Biso   1.000  C
  C166     1.0000 0.60123  0.47950  0.08950  Biso   1.000  C
  H63      1.0000 0.62080  0.47050  0.12710  Biso   1.000  H
  C167     1.0000 0.60149  0.45300  0.02510  Biso   1.000  C
  C168     1.0000 0.57220  0.54690  0.17160  Biso   1.000  C
  C169     1.0000 0.63297  0.41000  0.01850  Biso   1.000  C
  C170     1.0000 0.62742  0.34120  0.99210  Biso   1.000  C
  H64      1.0000 0.60400  0.32340  0.97810  Biso   1.000  H
  C171     1.0000 0.65678  0.29960  0.98670  Biso   1.000  C
  C172     1.0000 0.69168  0.32820  0.00520  Biso   1.000  C
  H65      1.0000 0.71130  0.30140  0.99990  Biso   1.000  H
  C173     1.0000 0.69746  0.39510  0.03120  Biso   1.000  C
  C174     1.0000 0.66736  0.43600  0.03880  Biso   1.000  C
  H66      1.0000 0.67120  0.48080  0.05790  Biso   1.000  H
  C175     1.0000 0.65159  0.22590  0.95870  Biso   1.000  C
  C176     1.0000 0.73440  0.42670  0.04800  Biso   1.000  C
  C177     1.0000 0.56392  0.27570  0.75200  Biso   1.000  C
  C178     1.0000 0.55611  0.20450  0.71870  Biso   1.000  C
  C179     1.0000 0.52045  0.18440  0.68960  Biso   1.000  C
  H67      1.0000 0.50150  0.21550  0.68930  Biso   1.000  H
  C180     1.0000 0.51309  0.11700  0.66060  Biso   1.000  C
  C181     1.0000 0.54248  0.07160  0.66120  Biso   1.000  C
  H68      1.0000 0.53780  0.02620  0.64380  Biso   1.000  H
  C182     1.0000 0.57786  0.09280  0.68690  Biso   1.000  C
  C183     1.0000 0.58504  0.15920  0.71730  Biso   1.000  C
  H69      1.0000 0.60880  0.17320  0.73650  Biso   1.000  H
  C184     1.0000 0.47536  0.09400  0.63110  Biso   1.000  C
  C185     1.0000 0.60905  0.04610  0.68340  Biso   1.000  C
  C186     1.0000 0.60989  0.01710  0.62040  Biso   1.000  C
  H70      1.0000 0.59040  0.02440  0.58210  Biso   1.000  H
  C187     1.0000 0.63900  0.97710  0.61200  Biso   1.000  C
  C188     1.0000 0.66810  0.96620  0.66860  Biso   1.000  C
  H71      1.0000 0.68760  0.93910  0.66370  Biso   1.000  H
  C189     1.0000 0.66790  0.99590  0.73300  Biso   1.000  C
  H72      1.0000 0.68750  0.98890  0.77110  Biso   1.000  H
  C190     1.0000 0.63868  0.03600  0.74030  Biso   1.000  C
  C191     1.0000 0.63960  0.94790  0.54000  Biso   1.000  C
  C192     1.0000 0.63970  0.06370  0.81250  Biso   1.000  C
  O81      1.0000 0.60012  0.44110  0.87680  Biso   1.000  O
  O82      1.0000 0.54032  0.42920  0.85850  Biso   1.000  O
  O83      1.0000 0.60217  0.55020  0.21450  Biso   1.000  O
  O84      1.0000 0.54337  0.56530  0.18300  Biso   1.000  O
  O85      1.0000 0.67915  0.19340  0.95390  Biso   1.000  O
  O86      1.0000 0.61969  0.20220  0.94310  Biso   1.000  O
  O87      1.0000 0.75945  0.39010  0.03450  Biso   1.000  O
  O88      1.0000 0.73908  0.48710  0.07440  Biso   1.000  O
  O89      1.0000 0.59685  0.29380  0.77210  Biso   1.000  O
  O90      1.0000 0.53855  0.31110  0.75990  Biso   1.000  O
  O91      1.0000 0.46878  0.03080  0.62000  Biso   1.000  O
  O92      1.0000 0.45080  0.14090  0.62070  Biso   1.000  O
  O93      1.0000 0.66959  0.08640  0.84660  Biso   1.000  O
  O94      1.0000 0.61234  0.05940  0.83470  Biso   1.000  O
  O95      1.0000 0.66986  0.92530  0.53450  Biso   1.000  O
  O96      1.0000 0.61035  0.94890  0.49470  Biso   1.000  O
  Zn19     1.0000 0.90116  0.61110  0.58891  Biso   1.000  Zn
  Zn20     1.0000 0.89303  0.89100  0.70344  Biso   1.000  Zn
  Zn21     1.0000 0.81100  0.58934  0.55121  Biso   1.000  Zn
  C193     1.0000 0.93040  0.94330  0.60400  Biso   1.000  C
  C194     1.0000 0.92830  0.96810  0.53240  Biso   1.000  C
  C195     1.0000 0.95640  0.00850  0.52200  Biso   1.000  C
  H73      1.0000 0.97560  0.01890  0.55980  Biso   1.000  H
  C196     1.0000 0.95680  0.03400  0.45680  Biso   1.000  C
  H74      1.0000 0.97640  0.06050  0.45100  Biso   1.000  H
  C197     1.0000 0.92810  0.02030  0.39980  Biso   1.000  C
  C198     1.0000 0.89877  0.97950  0.41050  Biso   1.000  C
  H75      1.0000 0.87920  0.97050  0.37290  Biso   1.000  H
  C199     1.0000 0.89851  0.95300  0.47490  Biso   1.000  C
  C200     1.0000 0.92780  0.04690  0.32840  Biso   1.000  C
  C201     1.0000 0.86703  0.91000  0.48150  Biso   1.000  C
  C202     1.0000 0.87258  0.84120  0.50790  Biso   1.000  C
  H76      1.0000 0.89600  0.82340  0.52190  Biso   1.000  H
  C203     1.0000 0.84322  0.79960  0.51330  Biso   1.000  C
  C204     1.0000 0.80832  0.82820  0.49480  Biso   1.000  C
  H77      1.0000 0.78870  0.80140  0.50010  Biso   1.000  H
  C205     1.0000 0.80254  0.89510  0.46880  Biso   1.000  C
  C206     1.0000 0.83264  0.93600  0.46120  Biso   1.000  C
  H78      1.0000 0.82880  0.98080  0.44210  Biso   1.000  H
  C207     1.0000 0.84841  0.72590  0.54130  Biso   1.000  C
  C208     1.0000 0.76560  0.92670  0.45200  Biso   1.000  C
  C209     1.0000 0.93608  0.77570  0.74800  Biso   1.000  C
  C210     1.0000 0.94389  0.70450  0.78130  Biso   1.000  C
  C211     1.0000 0.97955  0.68440  0.81040  Biso   1.000  C
  H79      1.0000 0.99850  0.71550  0.81070  Biso   1.000  H
  C212     1.0000 0.98691  0.61700  0.83940  Biso   1.000  C
  C213     1.0000 0.95752  0.57160  0.83880  Biso   1.000  C
  H80      1.0000 0.96220  0.52620  0.85620  Biso   1.000  H
  C214     1.0000 0.92214  0.59280  0.81310  Biso   1.000  C
  C215     1.0000 0.91496  0.65920  0.78270  Biso   1.000  C
  H81      1.0000 0.89120  0.67320  0.76350  Biso   1.000  H
  C216     1.0000 0.02464  0.59400  0.86890  Biso   1.000  C
  C217     1.0000 0.89095  0.54610  0.81660  Biso   1.000  C
  C218     1.0000 0.89011  0.51710  0.87960  Biso   1.000  C
  H82      1.0000 0.90960  0.52440  0.91790  Biso   1.000  H
  C219     1.0000 0.86100  0.47710  0.88800  Biso   1.000  C
  C220     1.0000 0.83190  0.46620  0.83140  Biso   1.000  C
  H83      1.0000 0.81240  0.43910  0.83630  Biso   1.000  H
  C221     1.0000 0.83210  0.49590  0.76700  Biso   1.000  C
  H84      1.0000 0.81250  0.48890  0.72890  Biso   1.000  H
  C222     1.0000 0.86132  0.53600  0.75970  Biso   1.000  C
  C223     1.0000 0.86040  0.44790  0.96000  Biso   1.000  C
  C224     1.0000 0.86030  0.56370  0.68750  Biso   1.000  C
  O97      1.0000 0.89988  0.94110  0.62320  Biso   1.000  O
  O98      1.0000 0.95968  0.92920  0.64150  Biso   1.000  O
  O99      1.0000 0.89783  0.05020  0.28550  Biso   1.000  O
  O100     1.0000 0.95663  0.06530  0.31700  Biso   1.000  O
  O101     1.0000 0.82085  0.69340  0.54610  Biso   1.000  O
  O102     1.0000 0.88031  0.70220  0.55690  Biso   1.000  O
  O103     1.0000 0.74055  0.89010  0.46550  Biso   1.000  O
  O104     1.0000 0.76092  0.98710  0.42560  Biso   1.000  O
  O105     1.0000 0.90315  0.79380  0.72790  Biso   1.000  O
  O106     1.0000 0.96145  0.81110  0.74010  Biso   1.000  O
  O107     1.0000 0.03122  0.53080  0.88000  Biso   1.000  O
  O108     1.0000 0.04920  0.64090  0.87930  Biso   1.000  O
  O109     1.0000 0.83041  0.58640  0.65340  Biso   1.000  O
  O110     1.0000 0.88766  0.55940  0.66530  Biso   1.000  O
  O111     1.0000 0.83014  0.42530  0.96550  Biso   1.000  O
  O112     1.0000 0.88965  0.44890  0.00530  Biso   1.000  O
  Zn22     1.0000 0.40116  0.11110  0.58891  Biso   1.000  Zn
  Zn23     1.0000 0.39303  0.39100  0.70344  Biso   1.000  Zn
  Zn24     1.0000 0.31100  0.08934  0.55121  Biso   1.000  Zn
  C225     1.0000 0.43040  0.44330  0.60400  Biso   1.000  C
  C226     1.0000 0.42830  0.46810  0.53240  Biso   1.000  C
  C227     1.0000 0.45640  0.50850  0.52200  Biso   1.000  C
  H85      1.0000 0.47560  0.51890  0.55980  Biso   1.000  H
  C228     1.0000 0.45680  0.53400  0.45680  Biso   1.000  C
  H86      1.0000 0.47640  0.56050  0.45100  Biso   1.000  H
  C229     1.0000 0.42810  0.52030  0.39980  Biso   1.000  C
  C230     1.0000 0.39877  0.47950  0.41050  Biso   1.000  C
  H87      1.0000 0.37920  0.47050  0.37290  Biso   1.000  H
  C231     1.0000 0.39851  0.45300  0.47490  Biso   1.000  C
  C232     1.0000 0.42780  0.54690  0.32840  Biso   1.000  C
  C233     1.0000 0.36703  0.41000  0.48150  Biso   1.000  C
  C234     1.0000 0.37258  0.34120  0.50790  Biso   1.000  C
  H88      1.0000 0.39600  0.32340  0.52190  Biso   1.000  H
  C235     1.0000 0.34322  0.29960  0.51330  Biso   1.000  C
  C236     1.0000 0.30832  0.32820  0.49480  Biso   1.000  C
  H89      1.0000 0.28870  0.30140  0.50010  Biso   1.000  H
  C237     1.0000 0.30254  0.39510  0.46880  Biso   1.000  C
  C238     1.0000 0.33264  0.43600  0.46120  Biso   1.000  C
  H90      1.0000 0.32880  0.48080  0.44210  Biso   1.000  H
  C239     1.0000 0.34841  0.22590  0.54130  Biso   1.000  C
  C240     1.0000 0.26560  0.42670  0.45200  Biso   1.000  C
  C241     1.0000 0.43608  0.27570  0.74800  Biso   1.000  C
  C242     1.0000 0.44389  0.20450  0.78130  Biso   1.000  C
  C243     1.0000 0.47955  0.18440  0.81040  Biso   1.000  C
  H91      1.0000 0.49850  0.21550  0.81070  Biso   1.000  H
  C244     1.0000 0.48691  0.11700  0.83940  Biso   1.000  C
  C245     1.0000 0.45752  0.07160  0.83880  Biso   1.000  C
  H92      1.0000 0.46220  0.02620  0.85620  Biso   1.000  H
  C246     1.0000 0.42214  0.09280  0.81310  Biso   1.000  C
  C247     1.0000 0.41496  0.15920  0.78270  Biso   1.000  C
  H93      1.0000 0.39120  0.17320  0.76350  Biso   1.000  H
  C248     1.0000 0.52464  0.09400  0.86890  Biso   1.000  C
  C249     1.0000 0.39095  0.04610  0.81660  Biso   1.000  C
  C250     1.0000 0.39011  0.01710  0.87960  Biso   1.000  C
  H94      1.0000 0.40960  0.02440  0.91790  Biso   1.000  H
  C251     1.0000 0.36100  0.97710  0.88800  Biso   1.000  C
  C252     1.0000 0.33190  0.96620  0.83140  Biso   1.000  C
  H95      1.0000 0.31240  0.93910  0.83630  Biso   1.000  H
  C253     1.0000 0.33210  0.99590  0.76700  Biso   1.000  C
  H96      1.0000 0.31250  0.98890  0.72890  Biso   1.000  H
  C254     1.0000 0.36132  0.03600  0.75970  Biso   1.000  C
  C255     1.0000 0.36040  0.94790  0.96000  Biso   1.000  C
  C256     1.0000 0.36030  0.06370  0.68750  Biso   1.000  C
  O113     1.0000 0.39988  0.44110  0.62320  Biso   1.000  O
  O114     1.0000 0.45968  0.42920  0.64150  Biso   1.000  O
  O115     1.0000 0.39783  0.55020  0.28550  Biso   1.000  O
  O116     1.0000 0.45663  0.56530  0.31700  Biso   1.000  O
  O117     1.0000 0.32085  0.19340  0.54610  Biso   1.000  O
  O118     1.0000 0.38031  0.20220  0.55690  Biso   1.000  O
  O119     1.0000 0.24055  0.39010  0.46550  Biso   1.000  O
  O120     1.0000 0.26092  0.48710  0.42560  Biso   1.000  O
  O121     1.0000 0.40315  0.29380  0.72790  Biso   1.000  O
  O122     1.0000 0.46145  0.31110  0.74010  Biso   1.000  O
  O123     1.0000 0.53122  0.03080  0.88000  Biso   1.000  O
  O124     1.0000 0.54920  0.14090  0.87930  Biso   1.000  O
  O125     1.0000 0.33041  0.08640  0.65340  Biso   1.000  O
  O126     1.0000 0.38766  0.05940  0.66530  Biso   1.000  O
  O127     1.0000 0.33014  0.92530  0.96550  Biso   1.000  O
  O128     1.0000 0.38965  0.94890  0.00530  Biso   1.000  O
