data_image0
_cell_length_a       17.714
_cell_length_b       12.567
_cell_length_c       25.643
_cell_angle_alpha    90
_cell_angle_beta     93.44
_cell_angle_gamma    90

_symmetry_space_group_name_H-M    "P 1"
_symmetry_int_tables_number       1

loop_
  _symmetry_equiv_pos_as_xyz
  'x, y, z'

loop_
  _atom_site_label
  _atom_site_occupancy
  _atom_site_fract_x
  _atom_site_fract_y
  _atom_site_fract_z
  _atom_site_thermal_displace_type
  _atom_site_B_iso_or_equiv
  _atom_site_type_symbol
  Cu1      1.0000 0.82189  0.22490  0.50327  Biso   1.000  Cu
  O1       1.0000 0.83540  0.34510  0.55140  Biso   1.000  O
  O2       1.0000 0.70590  0.39040  0.54620  Biso   1.000  O
  O3       1.0000 0.82860  0.67730  0.94280  Biso   1.000  O
  O4       1.0000 0.70040  0.63280  0.93830  Biso   1.000  O
  C1       1.0000 0.93420  0.53770  0.71800  Biso   1.000  C
  C2       1.0000 0.93280  0.53880  0.77440  Biso   1.000  C
  C3       1.0000 0.00120  0.53800  0.69490  Biso   1.000  C
  H1       1.0000 0.00230  0.53760  0.65860  Biso   1.000  H
  C4       1.0000 0.86340  0.55040  0.68210  Biso   1.000  C
  C5       1.0000 0.85200  0.47420  0.63890  Biso   1.000  C
  H2       1.0000 0.88820  0.42260  0.63320  Biso   1.000  H
  C6       1.0000 0.78690  0.48060  0.60730  Biso   1.000  C
  C7       1.0000 0.73630  0.56760  0.61440  Biso   1.000  C
  H3       1.0000 0.69450  0.57450  0.59100  Biso   1.000  H
  C8       1.0000 0.74570  0.63930  0.65260  Biso   1.000  C
  H4       1.0000 0.71100  0.69100  0.64500  Biso   1.000  H
  C9       1.0000 0.80840  0.63070  0.68880  Biso   1.000  C
  H5       1.0000 0.81370  0.67730  0.71690  Biso   1.000  H
  C10      1.0000 0.85450  0.52820  0.80110  Biso   1.000  C
  C11      1.0000 0.84730  0.57520  0.84450  Biso   1.000  C
  H6       1.0000 0.88720  0.61630  0.85870  Biso   1.000  H
  C12      1.0000 0.78000  0.56700  0.87230  Biso   1.000  C
  C13      1.0000 0.72300  0.49840  0.85230  Biso   1.000  C
  H7       1.0000 0.67770  0.49230  0.86850  Biso   1.000  H
  C14      1.0000 0.73520  0.44220  0.80960  Biso   1.000  C
  H8       1.0000 0.69810  0.39470  0.79720  Biso   1.000  H
  C15      1.0000 0.80170  0.45140  0.78230  Biso   1.000  C
  H9       1.0000 0.81020  0.40910  0.75350  Biso   1.000  H
  C16      1.0000 0.77290  0.39760  0.56480  Biso   1.000  C
  C17      1.0000 0.76850  0.63130  0.92450  Biso   1.000  C
  Cu2      1.0000 0.32189  0.72490  0.50327  Biso   1.000  Cu
  O5       1.0000 0.33540  0.84510  0.55140  Biso   1.000  O
  O6       1.0000 0.20590  0.89040  0.54620  Biso   1.000  O
  O7       1.0000 0.32860  0.17730  0.94280  Biso   1.000  O
  O8       1.0000 0.20040  0.13280  0.93830  Biso   1.000  O
  C18      1.0000 0.43420  0.03770  0.71800  Biso   1.000  C
  C19      1.0000 0.43280  0.03880  0.77440  Biso   1.000  C
  C20      1.0000 0.50120  0.03800  0.69490  Biso   1.000  C
  H10      1.0000 0.50230  0.03760  0.65860  Biso   1.000  H
  C21      1.0000 0.36340  0.05040  0.68210  Biso   1.000  C
  C22      1.0000 0.35200  0.97420  0.63890  Biso   1.000  C
  H11      1.0000 0.38820  0.92260  0.63320  Biso   1.000  H
  C23      1.0000 0.28690  0.98060  0.60730  Biso   1.000  C
  C24      1.0000 0.23630  0.06760  0.61440  Biso   1.000  C
  H12      1.0000 0.19450  0.07450  0.59100  Biso   1.000  H
  C25      1.0000 0.24570  0.13930  0.65260  Biso   1.000  C
  H13      1.0000 0.21100  0.19100  0.64500  Biso   1.000  H
  C26      1.0000 0.30840  0.13070  0.68880  Biso   1.000  C
  H14      1.0000 0.31370  0.17730  0.71690  Biso   1.000  H
  C27      1.0000 0.35450  0.02820  0.80110  Biso   1.000  C
  C28      1.0000 0.34730  0.07520  0.84450  Biso   1.000  C
  H15      1.0000 0.38720  0.11630  0.85870  Biso   1.000  H
  C29      1.0000 0.28000  0.06700  0.87230  Biso   1.000  C
  C30      1.0000 0.22300  0.99840  0.85230  Biso   1.000  C
  H16      1.0000 0.17770  0.99230  0.86850  Biso   1.000  H
  C31      1.0000 0.23520  0.94220  0.80960  Biso   1.000  C
  H17      1.0000 0.19810  0.89470  0.79720  Biso   1.000  H
  C32      1.0000 0.30170  0.95140  0.78230  Biso   1.000  C
  H18      1.0000 0.31020  0.90910  0.75350  Biso   1.000  H
  C33      1.0000 0.27290  0.89760  0.56480  Biso   1.000  C
  C34      1.0000 0.26850  0.13130  0.92450  Biso   1.000  C
  Cu3      1.0000 0.17811  0.22490  0.99673  Biso   1.000  Cu
  O9       1.0000 0.16460  0.34510  0.94860  Biso   1.000  O
  O10      1.0000 0.29410  0.39040  0.95380  Biso   1.000  O
  O11      1.0000 0.17140  0.67730  0.55720  Biso   1.000  O
  O12      1.0000 0.29960  0.63280  0.56170  Biso   1.000  O
  C35      1.0000 0.06580  0.53770  0.78200  Biso   1.000  C
  C36      1.0000 0.06720  0.53880  0.72560  Biso   1.000  C
  C37      1.0000 0.99880  0.53800  0.80510  Biso   1.000  C
  H19      1.0000 0.99770  0.53760  0.84140  Biso   1.000  H
  C38      1.0000 0.13660  0.55040  0.81790  Biso   1.000  C
  C39      1.0000 0.14800  0.47420  0.86110  Biso   1.000  C
  H20      1.0000 0.11180  0.42260  0.86680  Biso   1.000  H
  C40      1.0000 0.21310  0.48060  0.89270  Biso   1.000  C
  C41      1.0000 0.26370  0.56760  0.88560  Biso   1.000  C
  H21      1.0000 0.30550  0.57450  0.90900  Biso   1.000  H
  C42      1.0000 0.25430  0.63930  0.84740  Biso   1.000  C
  H22      1.0000 0.28900  0.69100  0.85500  Biso   1.000  H
  C43      1.0000 0.19160  0.63070  0.81120  Biso   1.000  C
  H23      1.0000 0.18630  0.67730  0.78310  Biso   1.000  H
  C44      1.0000 0.14550  0.52820  0.69890  Biso   1.000  C
  C45      1.0000 0.15270  0.57520  0.65550  Biso   1.000  C
  H24      1.0000 0.11280  0.61630  0.64130  Biso   1.000  H
  C46      1.0000 0.22000  0.56700  0.62770  Biso   1.000  C
  C47      1.0000 0.27700  0.49840  0.64770  Biso   1.000  C
  H25      1.0000 0.32230  0.49230  0.63150  Biso   1.000  H
  C48      1.0000 0.26480  0.44220  0.69040  Biso   1.000  C
  H26      1.0000 0.30190  0.39470  0.70280  Biso   1.000  H
  C49      1.0000 0.19830  0.45140  0.71770  Biso   1.000  C
  H27      1.0000 0.18980  0.40910  0.74650  Biso   1.000  H
  C50      1.0000 0.22710  0.39760  0.93520  Biso   1.000  C
  C51      1.0000 0.23150  0.63130  0.57550  Biso   1.000  C
  Cu4      1.0000 0.67811  0.72490  0.99673  Biso   1.000  Cu
  O13      1.0000 0.66460  0.84510  0.94860  Biso   1.000  O
  O14      1.0000 0.79410  0.89040  0.95380  Biso   1.000  O
  O15      1.0000 0.67140  0.17730  0.55720  Biso   1.000  O
  O16      1.0000 0.79960  0.13280  0.56170  Biso   1.000  O
  C52      1.0000 0.56580  0.03770  0.78200  Biso   1.000  C
  C53      1.0000 0.56720  0.03880  0.72560  Biso   1.000  C
  C54      1.0000 0.49880  0.03800  0.80510  Biso   1.000  C
  H28      1.0000 0.49770  0.03760  0.84140  Biso   1.000  H
  C55      1.0000 0.63660  0.05040  0.81790  Biso   1.000  C
  C56      1.0000 0.64800  0.97420  0.86110  Biso   1.000  C
  H29      1.0000 0.61180  0.92260  0.86680  Biso   1.000  H
  C57      1.0000 0.71310  0.98060  0.89270  Biso   1.000  C
  C58      1.0000 0.76370  0.06760  0.88560  Biso   1.000  C
  H30      1.0000 0.80550  0.07450  0.90900  Biso   1.000  H
  C59      1.0000 0.75430  0.13930  0.84740  Biso   1.000  C
  H31      1.0000 0.78900  0.19100  0.85500  Biso   1.000  H
  C60      1.0000 0.69160  0.13070  0.81120  Biso   1.000  C
  H32      1.0000 0.68630  0.17730  0.78310  Biso   1.000  H
  C61      1.0000 0.64550  0.02820  0.69890  Biso   1.000  C
  C62      1.0000 0.65270  0.07520  0.65550  Biso   1.000  C
  H33      1.0000 0.61280  0.11630  0.64130  Biso   1.000  H
  C63      1.0000 0.72000  0.06700  0.62770  Biso   1.000  C
  C64      1.0000 0.77700  0.99840  0.64770  Biso   1.000  C
  H34      1.0000 0.82230  0.99230  0.63150  Biso   1.000  H
  C65      1.0000 0.76480  0.94220  0.69040  Biso   1.000  C
  H35      1.0000 0.80190  0.89470  0.70280  Biso   1.000  H
  C66      1.0000 0.69830  0.95140  0.71770  Biso   1.000  C
  H36      1.0000 0.68980  0.90910  0.74650  Biso   1.000  H
  C67      1.0000 0.72710  0.89760  0.93520  Biso   1.000  C
  C68      1.0000 0.73150  0.13130  0.57550  Biso   1.000  C
  Cu5      1.0000 0.17811  0.77510  0.49673  Biso   1.000  Cu
  O17      1.0000 0.16460  0.65490  0.44860  Biso   1.000  O
  O18      1.0000 0.29410  0.60960  0.45380  Biso   1.000  O
  O19      1.0000 0.17140  0.32270  0.05720  Biso   1.000  O
  O20      1.0000 0.29960  0.36720  0.06170  Biso   1.000  O
  C69      1.0000 0.06580  0.46230  0.28200  Biso   1.000  C
  C70      1.0000 0.06720  0.46120  0.22560  Biso   1.000  C
  C71      1.0000 0.99880  0.46200  0.30510  Biso   1.000  C
  H37      1.0000 0.99770  0.46240  0.34140  Biso   1.000  H
  C72      1.0000 0.13660  0.44960  0.31790  Biso   1.000  C
  C73      1.0000 0.14800  0.52580  0.36110  Biso   1.000  C
  H38      1.0000 0.11180  0.57740  0.36680  Biso   1.000  H
  C74      1.0000 0.21310  0.51940  0.39270  Biso   1.000  C
  C75      1.0000 0.26370  0.43240  0.38560  Biso   1.000  C
  H39      1.0000 0.30550  0.42550  0.40900  Biso   1.000  H
  C76      1.0000 0.25430  0.36070  0.34740  Biso   1.000  C
  H40      1.0000 0.28900  0.30900  0.35500  Biso   1.000  H
  C77      1.0000 0.19160  0.36930  0.31120  Biso   1.000  C
  H41      1.0000 0.18630  0.32270  0.28310  Biso   1.000  H
  C78      1.0000 0.14550  0.47180  0.19890  Biso   1.000  C
  C79      1.0000 0.15270  0.42480  0.15550  Biso   1.000  C
  H42      1.0000 0.11280  0.38370  0.14130  Biso   1.000  H
  C80      1.0000 0.22000  0.43300  0.12770  Biso   1.000  C
  C81      1.0000 0.27700  0.50160  0.14770  Biso   1.000  C
  H43      1.0000 0.32230  0.50770  0.13150  Biso   1.000  H
  C82      1.0000 0.26480  0.55780  0.19040  Biso   1.000  C
  H44      1.0000 0.30190  0.60530  0.20280  Biso   1.000  H
  C83      1.0000 0.19830  0.54860  0.21770  Biso   1.000  C
  H45      1.0000 0.18980  0.59090  0.24650  Biso   1.000  H
  C84      1.0000 0.22710  0.60240  0.43520  Biso   1.000  C
  C85      1.0000 0.23150  0.36870  0.07550  Biso   1.000  C
  Cu6      1.0000 0.67811  0.27510  0.49673  Biso   1.000  Cu
  O21      1.0000 0.66460  0.15490  0.44860  Biso   1.000  O
  O22      1.0000 0.79410  0.10960  0.45380  Biso   1.000  O
  O23      1.0000 0.67140  0.82270  0.05720  Biso   1.000  O
  O24      1.0000 0.79960  0.86720  0.06170  Biso   1.000  O
  C86      1.0000 0.56580  0.96230  0.28200  Biso   1.000  C
  C87      1.0000 0.56720  0.96120  0.22560  Biso   1.000  C
  C88      1.0000 0.49880  0.96200  0.30510  Biso   1.000  C
  H46      1.0000 0.49770  0.96240  0.34140  Biso   1.000  H
  C89      1.0000 0.63660  0.94960  0.31790  Biso   1.000  C
  C90      1.0000 0.64800  0.02580  0.36110  Biso   1.000  C
  H47      1.0000 0.61180  0.07740  0.36680  Biso   1.000  H
  C91      1.0000 0.71310  0.01940  0.39270  Biso   1.000  C
  C92      1.0000 0.76370  0.93240  0.38560  Biso   1.000  C
  H48      1.0000 0.80550  0.92550  0.40900  Biso   1.000  H
  C93      1.0000 0.75430  0.86070  0.34740  Biso   1.000  C
  H49      1.0000 0.78900  0.80900  0.35500  Biso   1.000  H
  C94      1.0000 0.69160  0.86930  0.31120  Biso   1.000  C
  H50      1.0000 0.68630  0.82270  0.28310  Biso   1.000  H
  C95      1.0000 0.64550  0.97180  0.19890  Biso   1.000  C
  C96      1.0000 0.65270  0.92480  0.15550  Biso   1.000  C
  H51      1.0000 0.61280  0.88370  0.14130  Biso   1.000  H
  C97      1.0000 0.72000  0.93300  0.12770  Biso   1.000  C
  C98      1.0000 0.77700  0.00160  0.14770  Biso   1.000  C
  H52      1.0000 0.82230  0.00770  0.13150  Biso   1.000  H
  C99      1.0000 0.76480  0.05780  0.19040  Biso   1.000  C
  H53      1.0000 0.80190  0.10530  0.20280  Biso   1.000  H
  C100     1.0000 0.69830  0.04860  0.21770  Biso   1.000  C
  H54      1.0000 0.68980  0.09090  0.24650  Biso   1.000  H
  C101     1.0000 0.72710  0.10240  0.43520  Biso   1.000  C
  C102     1.0000 0.73150  0.86870  0.07550  Biso   1.000  C
  Cu7      1.0000 0.82189  0.77510  0.00327  Biso   1.000  Cu
  O25      1.0000 0.83540  0.65490  0.05140  Biso   1.000  O
  O26      1.0000 0.70590  0.60960  0.04620  Biso   1.000  O
  O27      1.0000 0.82860  0.32270  0.44280  Biso   1.000  O
  O28      1.0000 0.70040  0.36720  0.43830  Biso   1.000  O
  C103     1.0000 0.93420  0.46230  0.21800  Biso   1.000  C
  C104     1.0000 0.93280  0.46120  0.27440  Biso   1.000  C
  C105     1.0000 0.00120  0.46200  0.19490  Biso   1.000  C
  H55      1.0000 0.00230  0.46240  0.15860  Biso   1.000  H
  C106     1.0000 0.86340  0.44960  0.18210  Biso   1.000  C
  C107     1.0000 0.85200  0.52580  0.13890  Biso   1.000  C
  H56      1.0000 0.88820  0.57740  0.13320  Biso   1.000  H
  C108     1.0000 0.78690  0.51940  0.10730  Biso   1.000  C
  C109     1.0000 0.73630  0.43240  0.11440  Biso   1.000  C
  H57      1.0000 0.69450  0.42550  0.09100  Biso   1.000  H
  C110     1.0000 0.74570  0.36070  0.15260  Biso   1.000  C
  H58      1.0000 0.71100  0.30900  0.14500  Biso   1.000  H
  C111     1.0000 0.80840  0.36930  0.18880  Biso   1.000  C
  H59      1.0000 0.81370  0.32270  0.21690  Biso   1.000  H
  C112     1.0000 0.85450  0.47180  0.30110  Biso   1.000  C
  C113     1.0000 0.84730  0.42480  0.34450  Biso   1.000  C
  H60      1.0000 0.88720  0.38370  0.35870  Biso   1.000  H
  C114     1.0000 0.78000  0.43300  0.37230  Biso   1.000  C
  C115     1.0000 0.72300  0.50160  0.35230  Biso   1.000  C
  H61      1.0000 0.67770  0.50770  0.36850  Biso   1.000  H
  C116     1.0000 0.73520  0.55780  0.30960  Biso   1.000  C
  H62      1.0000 0.69810  0.60530  0.29720  Biso   1.000  H
  C117     1.0000 0.80170  0.54860  0.28230  Biso   1.000  C
  H63      1.0000 0.81020  0.59090  0.25350  Biso   1.000  H
  C118     1.0000 0.77290  0.60240  0.06480  Biso   1.000  C
  C119     1.0000 0.76850  0.36870  0.42450  Biso   1.000  C
  Cu8      1.0000 0.32189  0.27510  0.00327  Biso   1.000  Cu
  O29      1.0000 0.33540  0.15490  0.05140  Biso   1.000  O
  O30      1.0000 0.20590  0.10960  0.04620  Biso   1.000  O
  O31      1.0000 0.32860  0.82270  0.44280  Biso   1.000  O
  O32      1.0000 0.20040  0.86720  0.43830  Biso   1.000  O
  C120     1.0000 0.43420  0.96230  0.21800  Biso   1.000  C
  C121     1.0000 0.43280  0.96120  0.27440  Biso   1.000  C
  C122     1.0000 0.50120  0.96200  0.19490  Biso   1.000  C
  H64      1.0000 0.50230  0.96240  0.15860  Biso   1.000  H
  C123     1.0000 0.36340  0.94960  0.18210  Biso   1.000  C
  C124     1.0000 0.35200  0.02580  0.13890  Biso   1.000  C
  H65      1.0000 0.38820  0.07740  0.13320  Biso   1.000  H
  C125     1.0000 0.28690  0.01940  0.10730  Biso   1.000  C
  C126     1.0000 0.23630  0.93240  0.11440  Biso   1.000  C
  H66      1.0000 0.19450  0.92550  0.09100  Biso   1.000  H
  C127     1.0000 0.24570  0.86070  0.15260  Biso   1.000  C
  H67      1.0000 0.21100  0.80900  0.14500  Biso   1.000  H
  C128     1.0000 0.30840  0.86930  0.18880  Biso   1.000  C
  H68      1.0000 0.31370  0.82270  0.21690  Biso   1.000  H
  C129     1.0000 0.35450  0.97180  0.30110  Biso   1.000  C
  C130     1.0000 0.34730  0.92480  0.34450  Biso   1.000  C
  H69      1.0000 0.38720  0.88370  0.35870  Biso   1.000  H
  C131     1.0000 0.28000  0.93300  0.37230  Biso   1.000  C
  C132     1.0000 0.22300  0.00160  0.35230  Biso   1.000  C
  H70      1.0000 0.17770  0.00770  0.36850  Biso   1.000  H
  C133     1.0000 0.23520  0.05780  0.30960  Biso   1.000  C
  H71      1.0000 0.19810  0.10530  0.29720  Biso   1.000  H
  C134     1.0000 0.30170  0.04860  0.28230  Biso   1.000  C
  H72      1.0000 0.31020  0.09090  0.25350  Biso   1.000  H
  C135     1.0000 0.27290  0.10240  0.06480  Biso   1.000  C
  C136     1.0000 0.26850  0.86870  0.42450  Biso   1.000  C
