data_image0
_cell_length_a       13.427
_cell_length_b       18.684
_cell_length_c       16.764
_cell_angle_alpha    90
_cell_angle_beta     112.11
_cell_angle_gamma    90

_symmetry_space_group_name_H-M    "P 1"
_symmetry_int_tables_number       1

loop_
  _symmetry_equiv_pos_as_xyz
  'x, y, z'

loop_
  _atom_site_label
  _atom_site_occupancy
  _atom_site_fract_x
  _atom_site_fract_y
  _atom_site_fract_z
  _atom_site_thermal_displace_type
  _atom_site_B_iso_or_equiv
  _atom_site_type_symbol
  O1       1.0000 0.40869  0.09306  0.49836  Biso   1.000  O
  O2       1.0000 0.25954  0.05405  0.51380  Biso   1.000  O
  O3       1.0000 0.14639  0.11150  0.33186  Biso   1.000  O
  O4       1.0000 0.00832  0.16174  0.34738  Biso   1.000  O
  N1       1.0000 0.58960  0.01192  0.63271  Biso   1.000  N
  N2       1.0000 0.70610  0.98833  0.76300  Biso   1.000  N
  N3       1.0000 0.96730  0.00101  0.83123  Biso   1.000  N
  N4       1.0000 0.90310  0.05206  0.92222  Biso   1.000  N
  H1       1.0000 0.86230  0.05990  0.95040  Biso   1.000  H
  C1       1.0000 0.31870  0.10167  0.50271  Biso   1.000  C
  C2       1.0000 0.10720  0.15530  0.36896  Biso   1.000  C
  C3       1.0000 0.18170  0.20262  0.43846  Biso   1.000  C
  C4       1.0000 0.28110  0.17879  0.49784  Biso   1.000  C
  C5       1.0000 0.34780  0.22665  0.55712  Biso   1.000  C
  H2       1.0000 0.41450  0.21090  0.59520  Biso   1.000  H
  C6       1.0000 0.66350  0.96890  0.68180  Biso   1.000  C
  H3       1.0000 0.68440  0.92780  0.66110  Biso   1.000  H
  C7       1.0000 0.60870  0.07510  0.67880  Biso   1.000  C
  H4       1.0000 0.57670  0.11890  0.65750  Biso   1.000  H
  C8       1.0000 0.68140  0.06420  0.75840  Biso   1.000  C
  H5       1.0000 0.70980  0.09810  0.80170  Biso   1.000  H
  C9       1.0000 0.79350  0.95374  0.83230  Biso   1.000  C
  H6       1.0000 0.81120  0.90880  0.81180  Biso   1.000  H
  H7       1.0000 0.77080  0.94330  0.87960  Biso   1.000  H
  C10      1.0000 0.89000  0.00024  0.86335  Biso   1.000  C
  C11      1.0000 0.03460  0.05774  0.87220  Biso   1.000  C
  C12      1.0000 0.12500  0.08510  0.86280  Biso   1.000  C
  H8       1.0000 0.15220  0.06420  0.82480  Biso   1.000  H
  C13      1.0000 0.17350  0.14350  0.91060  Biso   1.000  C
  H9       1.0000 0.23470  0.16230  0.90500  Biso   1.000  H
  C14      1.0000 0.13380  0.17580  0.96740  Biso   1.000  C
  H10      1.0000 0.16870  0.21570  0.99860  Biso   1.000  H
  C15      1.0000 0.04360  0.14960  0.97840  Biso   1.000  C
  H11      1.0000 0.01730  0.17050  0.01690  Biso   1.000  H
  C16      1.0000 0.99440  0.09076  0.92910  Biso   1.000  C
  C17      1.0000 0.55110  0.04010  0.69440  Biso   1.000  C
  H12      1.0000 0.48990  0.06840  0.68130  Biso   1.000  H
  C18      1.0000 0.61770  0.02250  0.77470  Biso   1.000  C
  H13      1.0000 0.60720  0.03040  0.82570  Biso   1.000  H
  O5       1.0000 0.90869  0.59306  0.49836  Biso   1.000  O
  O6       1.0000 0.75954  0.55405  0.51380  Biso   1.000  O
  O7       1.0000 0.64639  0.61150  0.33186  Biso   1.000  O
  O8       1.0000 0.50832  0.66174  0.34738  Biso   1.000  O
  N5       1.0000 0.08960  0.51192  0.63271  Biso   1.000  N
  N6       1.0000 0.20610  0.48833  0.76300  Biso   1.000  N
  N7       1.0000 0.46730  0.50101  0.83123  Biso   1.000  N
  N8       1.0000 0.40310  0.55206  0.92222  Biso   1.000  N
  H14      1.0000 0.36230  0.55990  0.95040  Biso   1.000  H
  C19      1.0000 0.81870  0.60167  0.50271  Biso   1.000  C
  C20      1.0000 0.60720  0.65530  0.36896  Biso   1.000  C
  C21      1.0000 0.68170  0.70262  0.43846  Biso   1.000  C
  C22      1.0000 0.78110  0.67879  0.49784  Biso   1.000  C
  C23      1.0000 0.84780  0.72665  0.55712  Biso   1.000  C
  H15      1.0000 0.91450  0.71090  0.59520  Biso   1.000  H
  C24      1.0000 0.16350  0.46890  0.68180  Biso   1.000  C
  H16      1.0000 0.18440  0.42780  0.66110  Biso   1.000  H
  C25      1.0000 0.10870  0.57510  0.67880  Biso   1.000  C
  H17      1.0000 0.07670  0.61890  0.65750  Biso   1.000  H
  C26      1.0000 0.18140  0.56420  0.75840  Biso   1.000  C
  H18      1.0000 0.20980  0.59810  0.80170  Biso   1.000  H
  C27      1.0000 0.29350  0.45374  0.83230  Biso   1.000  C
  H19      1.0000 0.31120  0.40880  0.81180  Biso   1.000  H
  H20      1.0000 0.27080  0.44330  0.87960  Biso   1.000  H
  C28      1.0000 0.39000  0.50024  0.86335  Biso   1.000  C
  C29      1.0000 0.53460  0.55774  0.87220  Biso   1.000  C
  C30      1.0000 0.62500  0.58510  0.86280  Biso   1.000  C
  H21      1.0000 0.65220  0.56420  0.82480  Biso   1.000  H
  C31      1.0000 0.67350  0.64350  0.91060  Biso   1.000  C
  H22      1.0000 0.73470  0.66230  0.90500  Biso   1.000  H
  C32      1.0000 0.63380  0.67580  0.96740  Biso   1.000  C
  H23      1.0000 0.66870  0.71570  0.99860  Biso   1.000  H
  C33      1.0000 0.54360  0.64960  0.97840  Biso   1.000  C
  H24      1.0000 0.51730  0.67050  0.01690  Biso   1.000  H
  C34      1.0000 0.49440  0.59076  0.92910  Biso   1.000  C
  C35      1.0000 0.05110  0.54010  0.69440  Biso   1.000  C
  H25      1.0000 0.98990  0.56840  0.68130  Biso   1.000  H
  C36      1.0000 0.11770  0.52250  0.77470  Biso   1.000  C
  H26      1.0000 0.10720  0.53040  0.82570  Biso   1.000  H
  O9       1.0000 0.59131  0.09306  0.00164  Biso   1.000  O
  O10      1.0000 0.74046  0.05405  0.98620  Biso   1.000  O
  O11      1.0000 0.85361  0.11150  0.16814  Biso   1.000  O
  O12      1.0000 0.99168  0.16174  0.15262  Biso   1.000  O
  N9       1.0000 0.41040  0.01192  0.86729  Biso   1.000  N
  N10      1.0000 0.29390  0.98833  0.73700  Biso   1.000  N
  N11      1.0000 0.03270  0.00101  0.66877  Biso   1.000  N
  N12      1.0000 0.09690  0.05206  0.57778  Biso   1.000  N
  H27      1.0000 0.13770  0.05990  0.54960  Biso   1.000  H
  C37      1.0000 0.68130  0.10167  0.99729  Biso   1.000  C
  C38      1.0000 0.89280  0.15530  0.13104  Biso   1.000  C
  C39      1.0000 0.81830  0.20262  0.06154  Biso   1.000  C
  C40      1.0000 0.71890  0.17879  0.00216  Biso   1.000  C
  C41      1.0000 0.65220  0.22665  0.94288  Biso   1.000  C
  H28      1.0000 0.58550  0.21090  0.90480  Biso   1.000  H
  C42      1.0000 0.33650  0.96890  0.81820  Biso   1.000  C
  H29      1.0000 0.31560  0.92780  0.83890  Biso   1.000  H
  C43      1.0000 0.39130  0.07510  0.82120  Biso   1.000  C
  H30      1.0000 0.42330  0.11890  0.84250  Biso   1.000  H
  C44      1.0000 0.31860  0.06420  0.74160  Biso   1.000  C
  H31      1.0000 0.29020  0.09810  0.69830  Biso   1.000  H
  C45      1.0000 0.20650  0.95374  0.66770  Biso   1.000  C
  H32      1.0000 0.18880  0.90880  0.68820  Biso   1.000  H
  H33      1.0000 0.22920  0.94330  0.62040  Biso   1.000  H
  C46      1.0000 0.11000  0.00024  0.63665  Biso   1.000  C
  C47      1.0000 0.96540  0.05774  0.62780  Biso   1.000  C
  C48      1.0000 0.87500  0.08510  0.63720  Biso   1.000  C
  H34      1.0000 0.84780  0.06420  0.67520  Biso   1.000  H
  C49      1.0000 0.82650  0.14350  0.58940  Biso   1.000  C
  H35      1.0000 0.76530  0.16230  0.59500  Biso   1.000  H
  C50      1.0000 0.86620  0.17580  0.53260  Biso   1.000  C
  H36      1.0000 0.83130  0.21570  0.50140  Biso   1.000  H
  C51      1.0000 0.95640  0.14960  0.52160  Biso   1.000  C
  H37      1.0000 0.98270  0.17050  0.48310  Biso   1.000  H
  C52      1.0000 0.00560  0.09076  0.57090  Biso   1.000  C
  C53      1.0000 0.44890  0.04010  0.80560  Biso   1.000  C
  H38      1.0000 0.51010  0.06840  0.81870  Biso   1.000  H
  C54      1.0000 0.38230  0.02250  0.72530  Biso   1.000  C
  H39      1.0000 0.39280  0.03040  0.67430  Biso   1.000  H
  O13      1.0000 0.09131  0.59306  0.00164  Biso   1.000  O
  O14      1.0000 0.24046  0.55405  0.98620  Biso   1.000  O
  O15      1.0000 0.35361  0.61150  0.16814  Biso   1.000  O
  O16      1.0000 0.49168  0.66174  0.15262  Biso   1.000  O
  N13      1.0000 0.91040  0.51192  0.86729  Biso   1.000  N
  N14      1.0000 0.79390  0.48833  0.73700  Biso   1.000  N
  N15      1.0000 0.53270  0.50101  0.66877  Biso   1.000  N
  N16      1.0000 0.59690  0.55206  0.57778  Biso   1.000  N
  H40      1.0000 0.63770  0.55990  0.54960  Biso   1.000  H
  C55      1.0000 0.18130  0.60167  0.99729  Biso   1.000  C
  C56      1.0000 0.39280  0.65530  0.13104  Biso   1.000  C
  C57      1.0000 0.31830  0.70262  0.06154  Biso   1.000  C
  C58      1.0000 0.21890  0.67879  0.00216  Biso   1.000  C
  C59      1.0000 0.15220  0.72665  0.94288  Biso   1.000  C
  H41      1.0000 0.08550  0.71090  0.90480  Biso   1.000  H
  C60      1.0000 0.83650  0.46890  0.81820  Biso   1.000  C
  H42      1.0000 0.81560  0.42780  0.83890  Biso   1.000  H
  C61      1.0000 0.89130  0.57510  0.82120  Biso   1.000  C
  H43      1.0000 0.92330  0.61890  0.84250  Biso   1.000  H
  C62      1.0000 0.81860  0.56420  0.74160  Biso   1.000  C
  H44      1.0000 0.79020  0.59810  0.69830  Biso   1.000  H
  C63      1.0000 0.70650  0.45374  0.66770  Biso   1.000  C
  H45      1.0000 0.68880  0.40880  0.68820  Biso   1.000  H
  H46      1.0000 0.72920  0.44330  0.62040  Biso   1.000  H
  C64      1.0000 0.61000  0.50024  0.63665  Biso   1.000  C
  C65      1.0000 0.46540  0.55774  0.62780  Biso   1.000  C
  C66      1.0000 0.37500  0.58510  0.63720  Biso   1.000  C
  H47      1.0000 0.34780  0.56420  0.67520  Biso   1.000  H
  C67      1.0000 0.32650  0.64350  0.58940  Biso   1.000  C
  H48      1.0000 0.26530  0.66230  0.59500  Biso   1.000  H
  C68      1.0000 0.36620  0.67580  0.53260  Biso   1.000  C
  H49      1.0000 0.33130  0.71570  0.50140  Biso   1.000  H
  C69      1.0000 0.45640  0.64960  0.52160  Biso   1.000  C
  H50      1.0000 0.48270  0.67050  0.48310  Biso   1.000  H
  C70      1.0000 0.50560  0.59076  0.57090  Biso   1.000  C
  C71      1.0000 0.94890  0.54010  0.80560  Biso   1.000  C
  H51      1.0000 0.01010  0.56840  0.81870  Biso   1.000  H
  C72      1.0000 0.88230  0.52250  0.72530  Biso   1.000  C
  H52      1.0000 0.89280  0.53040  0.67430  Biso   1.000  H
  O17      1.0000 0.59131  0.90694  0.50164  Biso   1.000  O
  O18      1.0000 0.74046  0.94595  0.48620  Biso   1.000  O
  O19      1.0000 0.85361  0.88850  0.66814  Biso   1.000  O
  O20      1.0000 0.99168  0.83826  0.65262  Biso   1.000  O
  N17      1.0000 0.41040  0.98808  0.36729  Biso   1.000  N
  N18      1.0000 0.29390  0.01167  0.23700  Biso   1.000  N
  N19      1.0000 0.03270  0.99899  0.16877  Biso   1.000  N
  N20      1.0000 0.09690  0.94794  0.07778  Biso   1.000  N
  H53      1.0000 0.13770  0.94010  0.04960  Biso   1.000  H
  C73      1.0000 0.68130  0.89833  0.49729  Biso   1.000  C
  C74      1.0000 0.89280  0.84470  0.63104  Biso   1.000  C
  C75      1.0000 0.81830  0.79738  0.56154  Biso   1.000  C
  C76      1.0000 0.71890  0.82121  0.50216  Biso   1.000  C
  C77      1.0000 0.65220  0.77335  0.44288  Biso   1.000  C
  H54      1.0000 0.58550  0.78910  0.40480  Biso   1.000  H
  C78      1.0000 0.33650  0.03110  0.31820  Biso   1.000  C
  H55      1.0000 0.31560  0.07220  0.33890  Biso   1.000  H
  C79      1.0000 0.39130  0.92490  0.32120  Biso   1.000  C
  H56      1.0000 0.42330  0.88110  0.34250  Biso   1.000  H
  C80      1.0000 0.31860  0.93580  0.24160  Biso   1.000  C
  H57      1.0000 0.29020  0.90190  0.19830  Biso   1.000  H
  C81      1.0000 0.20650  0.04626  0.16770  Biso   1.000  C
  H58      1.0000 0.18880  0.09120  0.18820  Biso   1.000  H
  H59      1.0000 0.22920  0.05670  0.12040  Biso   1.000  H
  C82      1.0000 0.11000  0.99976  0.13665  Biso   1.000  C
  C83      1.0000 0.96540  0.94226  0.12780  Biso   1.000  C
  C84      1.0000 0.87500  0.91490  0.13720  Biso   1.000  C
  H60      1.0000 0.84780  0.93580  0.17520  Biso   1.000  H
  C85      1.0000 0.82650  0.85650  0.08940  Biso   1.000  C
  H61      1.0000 0.76530  0.83770  0.09500  Biso   1.000  H
  C86      1.0000 0.86620  0.82420  0.03260  Biso   1.000  C
  H62      1.0000 0.83130  0.78430  0.00140  Biso   1.000  H
  C87      1.0000 0.95640  0.85040  0.02160  Biso   1.000  C
  H63      1.0000 0.98270  0.82950  0.98310  Biso   1.000  H
  C88      1.0000 0.00560  0.90924  0.07090  Biso   1.000  C
  C89      1.0000 0.44890  0.95990  0.30560  Biso   1.000  C
  H64      1.0000 0.51010  0.93160  0.31870  Biso   1.000  H
  C90      1.0000 0.38230  0.97750  0.22530  Biso   1.000  C
  H65      1.0000 0.39280  0.96960  0.17430  Biso   1.000  H
  O21      1.0000 0.09131  0.40694  0.50164  Biso   1.000  O
  O22      1.0000 0.24046  0.44595  0.48620  Biso   1.000  O
  O23      1.0000 0.35361  0.38850  0.66814  Biso   1.000  O
  O24      1.0000 0.49168  0.33826  0.65262  Biso   1.000  O
  N21      1.0000 0.91040  0.48808  0.36729  Biso   1.000  N
  N22      1.0000 0.79390  0.51167  0.23700  Biso   1.000  N
  N23      1.0000 0.53270  0.49899  0.16877  Biso   1.000  N
  N24      1.0000 0.59690  0.44794  0.07778  Biso   1.000  N
  H66      1.0000 0.63770  0.44010  0.04960  Biso   1.000  H
  C91      1.0000 0.18130  0.39833  0.49729  Biso   1.000  C
  C92      1.0000 0.39280  0.34470  0.63104  Biso   1.000  C
  C93      1.0000 0.31830  0.29738  0.56154  Biso   1.000  C
  C94      1.0000 0.21890  0.32121  0.50216  Biso   1.000  C
  C95      1.0000 0.15220  0.27335  0.44288  Biso   1.000  C
  H67      1.0000 0.08550  0.28910  0.40480  Biso   1.000  H
  C96      1.0000 0.83650  0.53110  0.31820  Biso   1.000  C
  H68      1.0000 0.81560  0.57220  0.33890  Biso   1.000  H
  C97      1.0000 0.89130  0.42490  0.32120  Biso   1.000  C
  H69      1.0000 0.92330  0.38110  0.34250  Biso   1.000  H
  C98      1.0000 0.81860  0.43580  0.24160  Biso   1.000  C
  H70      1.0000 0.79020  0.40190  0.19830  Biso   1.000  H
  C99      1.0000 0.70650  0.54626  0.16770  Biso   1.000  C
  H71      1.0000 0.68880  0.59120  0.18820  Biso   1.000  H
  H72      1.0000 0.72920  0.55670  0.12040  Biso   1.000  H
  C100     1.0000 0.61000  0.49976  0.13665  Biso   1.000  C
  C101     1.0000 0.46540  0.44226  0.12780  Biso   1.000  C
  C102     1.0000 0.37500  0.41490  0.13720  Biso   1.000  C
  H73      1.0000 0.34780  0.43580  0.17520  Biso   1.000  H
  C103     1.0000 0.32650  0.35650  0.08940  Biso   1.000  C
  H74      1.0000 0.26530  0.33770  0.09500  Biso   1.000  H
  C104     1.0000 0.36620  0.32420  0.03260  Biso   1.000  C
  H75      1.0000 0.33130  0.28430  0.00140  Biso   1.000  H
  C105     1.0000 0.45640  0.35040  0.02160  Biso   1.000  C
  H76      1.0000 0.48270  0.32950  0.98310  Biso   1.000  H
  C106     1.0000 0.50560  0.40924  0.07090  Biso   1.000  C
  C107     1.0000 0.94890  0.45990  0.30560  Biso   1.000  C
  H77      1.0000 0.01010  0.43160  0.31870  Biso   1.000  H
  C108     1.0000 0.88230  0.47750  0.22530  Biso   1.000  C
  H78      1.0000 0.89280  0.46960  0.17430  Biso   1.000  H
  O25      1.0000 0.40869  0.90694  0.99836  Biso   1.000  O
  O26      1.0000 0.25954  0.94595  0.01380  Biso   1.000  O
  O27      1.0000 0.14639  0.88850  0.83186  Biso   1.000  O
  O28      1.0000 0.00832  0.83826  0.84738  Biso   1.000  O
  N25      1.0000 0.58960  0.98808  0.13271  Biso   1.000  N
  N26      1.0000 0.70610  0.01167  0.26300  Biso   1.000  N
  N27      1.0000 0.96730  0.99899  0.33123  Biso   1.000  N
  N28      1.0000 0.90310  0.94794  0.42222  Biso   1.000  N
  H79      1.0000 0.86230  0.94010  0.45040  Biso   1.000  H
  C109     1.0000 0.31870  0.89833  0.00271  Biso   1.000  C
  C110     1.0000 0.10720  0.84470  0.86896  Biso   1.000  C
  C111     1.0000 0.18170  0.79738  0.93846  Biso   1.000  C
  C112     1.0000 0.28110  0.82121  0.99784  Biso   1.000  C
  C113     1.0000 0.34780  0.77335  0.05712  Biso   1.000  C
  H80      1.0000 0.41450  0.78910  0.09520  Biso   1.000  H
  C114     1.0000 0.66350  0.03110  0.18180  Biso   1.000  C
  H81      1.0000 0.68440  0.07220  0.16110  Biso   1.000  H
  C115     1.0000 0.60870  0.92490  0.17880  Biso   1.000  C
  H82      1.0000 0.57670  0.88110  0.15750  Biso   1.000  H
  C116     1.0000 0.68140  0.93580  0.25840  Biso   1.000  C
  H83      1.0000 0.70980  0.90190  0.30170  Biso   1.000  H
  C117     1.0000 0.79350  0.04626  0.33230  Biso   1.000  C
  H84      1.0000 0.81120  0.09120  0.31180  Biso   1.000  H
  H85      1.0000 0.77080  0.05670  0.37960  Biso   1.000  H
  C118     1.0000 0.89000  0.99976  0.36335  Biso   1.000  C
  C119     1.0000 0.03460  0.94226  0.37220  Biso   1.000  C
  C120     1.0000 0.12500  0.91490  0.36280  Biso   1.000  C
  H86      1.0000 0.15220  0.93580  0.32480  Biso   1.000  H
  C121     1.0000 0.17350  0.85650  0.41060  Biso   1.000  C
  H87      1.0000 0.23470  0.83770  0.40500  Biso   1.000  H
  C122     1.0000 0.13380  0.82420  0.46740  Biso   1.000  C
  H88      1.0000 0.16870  0.78430  0.49860  Biso   1.000  H
  C123     1.0000 0.04360  0.85040  0.47840  Biso   1.000  C
  H89      1.0000 0.01730  0.82950  0.51690  Biso   1.000  H
  C124     1.0000 0.99440  0.90924  0.42910  Biso   1.000  C
  C125     1.0000 0.55110  0.95990  0.19440  Biso   1.000  C
  H90      1.0000 0.48990  0.93160  0.18130  Biso   1.000  H
  C126     1.0000 0.61770  0.97750  0.27470  Biso   1.000  C
  H91      1.0000 0.60720  0.96960  0.32570  Biso   1.000  H
  O29      1.0000 0.90869  0.40694  0.99836  Biso   1.000  O
  O30      1.0000 0.75954  0.44595  0.01380  Biso   1.000  O
  O31      1.0000 0.64639  0.38850  0.83186  Biso   1.000  O
  O32      1.0000 0.50832  0.33826  0.84738  Biso   1.000  O
  N29      1.0000 0.08960  0.48808  0.13271  Biso   1.000  N
  N30      1.0000 0.20610  0.51167  0.26300  Biso   1.000  N
  N31      1.0000 0.46730  0.49899  0.33123  Biso   1.000  N
  N32      1.0000 0.40310  0.44794  0.42222  Biso   1.000  N
  H92      1.0000 0.36230  0.44010  0.45040  Biso   1.000  H
  C127     1.0000 0.81870  0.39833  0.00271  Biso   1.000  C
  C128     1.0000 0.60720  0.34470  0.86896  Biso   1.000  C
  C129     1.0000 0.68170  0.29738  0.93846  Biso   1.000  C
  C130     1.0000 0.78110  0.32121  0.99784  Biso   1.000  C
  C131     1.0000 0.84780  0.27335  0.05712  Biso   1.000  C
  H93      1.0000 0.91450  0.28910  0.09520  Biso   1.000  H
  C132     1.0000 0.16350  0.53110  0.18180  Biso   1.000  C
  H94      1.0000 0.18440  0.57220  0.16110  Biso   1.000  H
  C133     1.0000 0.10870  0.42490  0.17880  Biso   1.000  C
  H95      1.0000 0.07670  0.38110  0.15750  Biso   1.000  H
  C134     1.0000 0.18140  0.43580  0.25840  Biso   1.000  C
  H96      1.0000 0.20980  0.40190  0.30170  Biso   1.000  H
  C135     1.0000 0.29350  0.54626  0.33230  Biso   1.000  C
  H97      1.0000 0.31120  0.59120  0.31180  Biso   1.000  H
  H98      1.0000 0.27080  0.55670  0.37960  Biso   1.000  H
  C136     1.0000 0.39000  0.49976  0.36335  Biso   1.000  C
  C137     1.0000 0.53460  0.44226  0.37220  Biso   1.000  C
  C138     1.0000 0.62500  0.41490  0.36280  Biso   1.000  C
  H99      1.0000 0.65220  0.43580  0.32480  Biso   1.000  H
  C139     1.0000 0.67350  0.35650  0.41060  Biso   1.000  C
  H100     1.0000 0.73470  0.33770  0.40500  Biso   1.000  H
  C140     1.0000 0.63380  0.32420  0.46740  Biso   1.000  C
  H101     1.0000 0.66870  0.28430  0.49860  Biso   1.000  H
  C141     1.0000 0.54360  0.35040  0.47840  Biso   1.000  C
  H102     1.0000 0.51730  0.32950  0.51690  Biso   1.000  H
  C142     1.0000 0.49440  0.40924  0.42910  Biso   1.000  C
  C143     1.0000 0.05110  0.45990  0.19440  Biso   1.000  C
  H103     1.0000 0.98990  0.43160  0.18130  Biso   1.000  H
  C144     1.0000 0.11770  0.47750  0.27470  Biso   1.000  C
  H104     1.0000 0.10720  0.46960  0.32570  Biso   1.000  H
  Co1      1.0000 0.50000  0.00000  0.50000  Biso   1.000  Co
  Co2      1.0000 0.00000  0.50000  0.50000  Biso   1.000  Co
  Co3      1.0000 0.50000  0.00000  0.00000  Biso   1.000  Co
  Co4      1.0000 0.00000  0.50000  0.00000  Biso   1.000  Co
  Co5      1.0000 0.00000  0.07186  0.25000  Biso   1.000  Co
  Co6      1.0000 0.50000  0.57186  0.25000  Biso   1.000  Co
  Co7      1.0000 0.00000  0.92814  0.75000  Biso   1.000  Co
  Co8      1.0000 0.50000  0.42814  0.75000  Biso   1.000  Co
