data_image0
_cell_length_a       15.3763
_cell_length_b       15.3763
_cell_length_c       9.8086
_cell_angle_alpha    90
_cell_angle_beta     90
_cell_angle_gamma    90

_symmetry_space_group_name_H-M    "P 1"
_symmetry_int_tables_number       1

loop_
  _symmetry_equiv_pos_as_xyz
  'x, y, z'

loop_
  _atom_site_label
  _atom_site_occupancy
  _atom_site_fract_x
  _atom_site_fract_y
  _atom_site_fract_z
  _atom_site_thermal_displace_type
  _atom_site_B_iso_or_equiv
  _atom_site_type_symbol
  O1       1.0000 0.03119  0.87444  0.12234  Biso   1.000  O
  C1       1.0000 0.88692  0.74442  0.12200  Biso   1.000  C
  H1       1.0000 0.91210  0.76160  0.20390  Biso   1.000  H
  C2       1.0000 0.81207  0.69471  0.12190  Biso   1.000  C
  H2       1.0000 0.78710  0.67800  0.20420  Biso   1.000  H
  O2       1.0000 0.96881  0.12556  0.12234  Biso   1.000  O
  C3       1.0000 0.11308  0.25558  0.12200  Biso   1.000  C
  H3       1.0000 0.08790  0.23840  0.20390  Biso   1.000  H
  C4       1.0000 0.18793  0.30529  0.12190  Biso   1.000  C
  H4       1.0000 0.21290  0.32200  0.20420  Biso   1.000  H
  O3       1.0000 0.12556  0.03119  0.12234  Biso   1.000  O
  C5       1.0000 0.25558  0.88692  0.12200  Biso   1.000  C
  H5       1.0000 0.23840  0.91210  0.20390  Biso   1.000  H
  C6       1.0000 0.30529  0.81207  0.12190  Biso   1.000  C
  H6       1.0000 0.32200  0.78710  0.20420  Biso   1.000  H
  O4       1.0000 0.87444  0.96881  0.12234  Biso   1.000  O
  C7       1.0000 0.74442  0.11308  0.12200  Biso   1.000  C
  H7       1.0000 0.76160  0.08790  0.20390  Biso   1.000  H
  C8       1.0000 0.69471  0.18793  0.12190  Biso   1.000  C
  H8       1.0000 0.67800  0.21290  0.20420  Biso   1.000  H
  O5       1.0000 0.96881  0.87444  0.37766  Biso   1.000  O
  C9       1.0000 0.11308  0.74442  0.37800  Biso   1.000  C
  H9       1.0000 0.08790  0.76160  0.29610  Biso   1.000  H
  C10      1.0000 0.18793  0.69471  0.37810  Biso   1.000  C
  H10      1.0000 0.21290  0.67800  0.29580  Biso   1.000  H
  O6       1.0000 0.03119  0.12556  0.37766  Biso   1.000  O
  C11      1.0000 0.88692  0.25558  0.37800  Biso   1.000  C
  H11      1.0000 0.91210  0.23840  0.29610  Biso   1.000  H
  C12      1.0000 0.81207  0.30529  0.37810  Biso   1.000  C
  H12      1.0000 0.78710  0.32200  0.29580  Biso   1.000  H
  O7       1.0000 0.87444  0.03119  0.37766  Biso   1.000  O
  C13      1.0000 0.74442  0.88692  0.37800  Biso   1.000  C
  H13      1.0000 0.76160  0.91210  0.29610  Biso   1.000  H
  C14      1.0000 0.69471  0.81207  0.37810  Biso   1.000  C
  H14      1.0000 0.67800  0.78710  0.29580  Biso   1.000  H
  O8       1.0000 0.12556  0.96881  0.37766  Biso   1.000  O
  C15      1.0000 0.25558  0.11308  0.37800  Biso   1.000  C
  H15      1.0000 0.23840  0.08790  0.29610  Biso   1.000  H
  C16      1.0000 0.30529  0.18793  0.37810  Biso   1.000  C
  H16      1.0000 0.32200  0.21290  0.29580  Biso   1.000  H
  O9       1.0000 0.96881  0.12556  0.87766  Biso   1.000  O
  C17      1.0000 0.11308  0.25558  0.87800  Biso   1.000  C
  H17      1.0000 0.08790  0.23840  0.79610  Biso   1.000  H
  C18      1.0000 0.18793  0.30529  0.87810  Biso   1.000  C
  H18      1.0000 0.21290  0.32200  0.79580  Biso   1.000  H
  O10      1.0000 0.03119  0.87444  0.87766  Biso   1.000  O
  C19      1.0000 0.88692  0.74442  0.87800  Biso   1.000  C
  H19      1.0000 0.91210  0.76160  0.79610  Biso   1.000  H
  C20      1.0000 0.81207  0.69471  0.87810  Biso   1.000  C
  H20      1.0000 0.78710  0.67800  0.79580  Biso   1.000  H
  O11      1.0000 0.87444  0.96881  0.87766  Biso   1.000  O
  C21      1.0000 0.74442  0.11308  0.87800  Biso   1.000  C
  H21      1.0000 0.76160  0.08790  0.79610  Biso   1.000  H
  C22      1.0000 0.69471  0.18793  0.87810  Biso   1.000  C
  H22      1.0000 0.67800  0.21290  0.79580  Biso   1.000  H
  O12      1.0000 0.12556  0.03119  0.87766  Biso   1.000  O
  C23      1.0000 0.25558  0.88692  0.87800  Biso   1.000  C
  H23      1.0000 0.23840  0.91210  0.79610  Biso   1.000  H
  C24      1.0000 0.30529  0.81207  0.87810  Biso   1.000  C
  H24      1.0000 0.32200  0.78710  0.79580  Biso   1.000  H
  O13      1.0000 0.03119  0.12556  0.62234  Biso   1.000  O
  C25      1.0000 0.88692  0.25558  0.62200  Biso   1.000  C
  H25      1.0000 0.91210  0.23840  0.70390  Biso   1.000  H
  C26      1.0000 0.81207  0.30529  0.62190  Biso   1.000  C
  H26      1.0000 0.78710  0.32200  0.70420  Biso   1.000  H
  O14      1.0000 0.96881  0.87444  0.62234  Biso   1.000  O
  C27      1.0000 0.11308  0.74442  0.62200  Biso   1.000  C
  H27      1.0000 0.08790  0.76160  0.70390  Biso   1.000  H
  C28      1.0000 0.18793  0.69471  0.62190  Biso   1.000  C
  H28      1.0000 0.21290  0.67800  0.70420  Biso   1.000  H
  O15      1.0000 0.12556  0.96881  0.62234  Biso   1.000  O
  C29      1.0000 0.25558  0.11308  0.62200  Biso   1.000  C
  H29      1.0000 0.23840  0.08790  0.70390  Biso   1.000  H
  C30      1.0000 0.30529  0.18793  0.62190  Biso   1.000  C
  H30      1.0000 0.32200  0.21290  0.70420  Biso   1.000  H
  O16      1.0000 0.87444  0.03119  0.62234  Biso   1.000  O
  C31      1.0000 0.74442  0.88692  0.62200  Biso   1.000  C
  H31      1.0000 0.76160  0.91210  0.70390  Biso   1.000  H
  C32      1.0000 0.69471  0.81207  0.62190  Biso   1.000  C
  H32      1.0000 0.67800  0.78710  0.70420  Biso   1.000  H
  Dy1      1.0000 0.00000  0.00000  0.25000  Biso   1.000  Dy
  Dy2      1.0000 0.00000  0.00000  0.75000  Biso   1.000  Dy
  S1       1.0000 0.02606  0.82149  0.00000  Biso   1.000  S
  O17      1.0000 0.08926  0.75239  0.00000  Biso   1.000  O
  N1       1.0000 0.53022  0.62971  0.00000  Biso   1.000  N
  C33      1.0000 0.92375  0.76825  0.00000  Biso   1.000  C
  C34      1.0000 0.77380  0.66945  0.00000  Biso   1.000  C
  C35      1.0000 0.69119  0.61815  0.00000  Biso   1.000  C
  C36      1.0000 0.61317  0.66424  0.00000  Biso   1.000  C
  C37      1.0000 0.60612  0.75807  0.00000  Biso   1.000  C
  H33      1.0000 0.65200  0.79750  0.00000  Biso   1.000  H
  C38      1.0000 0.52070  0.77770  0.00000  Biso   1.000  C
  H34      1.0000 0.49710  0.83340  0.00000  Biso   1.000  H
  C39      1.0000 0.47250  0.69763  0.00000  Biso   1.000  C
  S2       1.0000 0.97394  0.17851  0.00000  Biso   1.000  S
  O18      1.0000 0.91074  0.24761  0.00000  Biso   1.000  O
  N2       1.0000 0.46978  0.37029  0.00000  Biso   1.000  N
  C40      1.0000 0.07625  0.23175  0.00000  Biso   1.000  C
  C41      1.0000 0.22620  0.33055  0.00000  Biso   1.000  C
  C42      1.0000 0.30881  0.38185  0.00000  Biso   1.000  C
  C43      1.0000 0.38683  0.33576  0.00000  Biso   1.000  C
  C44      1.0000 0.39388  0.24193  0.00000  Biso   1.000  C
  H35      1.0000 0.34800  0.20250  0.00000  Biso   1.000  H
  C45      1.0000 0.47930  0.22230  0.00000  Biso   1.000  C
  H36      1.0000 0.50290  0.16660  0.00000  Biso   1.000  H
  C46      1.0000 0.52750  0.30237  0.00000  Biso   1.000  C
  S3       1.0000 0.17851  0.02606  0.00000  Biso   1.000  S
  O19      1.0000 0.24761  0.08926  0.00000  Biso   1.000  O
  N3       1.0000 0.37029  0.53022  0.00000  Biso   1.000  N
  C47      1.0000 0.23175  0.92375  0.00000  Biso   1.000  C
  C48      1.0000 0.33055  0.77380  0.00000  Biso   1.000  C
  C49      1.0000 0.38185  0.69119  0.00000  Biso   1.000  C
  C50      1.0000 0.33576  0.61317  0.00000  Biso   1.000  C
  C51      1.0000 0.24193  0.60612  0.00000  Biso   1.000  C
  H37      1.0000 0.20250  0.65200  0.00000  Biso   1.000  H
  C52      1.0000 0.22230  0.52070  0.00000  Biso   1.000  C
  H38      1.0000 0.16660  0.49710  0.00000  Biso   1.000  H
  C53      1.0000 0.30237  0.47250  0.00000  Biso   1.000  C
  S4       1.0000 0.82149  0.97394  0.00000  Biso   1.000  S
  O20      1.0000 0.75239  0.91074  0.00000  Biso   1.000  O
  N4       1.0000 0.62971  0.46978  0.00000  Biso   1.000  N
  C54      1.0000 0.76825  0.07625  0.00000  Biso   1.000  C
  C55      1.0000 0.66945  0.22620  0.00000  Biso   1.000  C
  C56      1.0000 0.61815  0.30881  0.00000  Biso   1.000  C
  C57      1.0000 0.66424  0.38683  0.00000  Biso   1.000  C
  C58      1.0000 0.75807  0.39388  0.00000  Biso   1.000  C
  H39      1.0000 0.79750  0.34800  0.00000  Biso   1.000  H
  C59      1.0000 0.77770  0.47930  0.00000  Biso   1.000  C
  H40      1.0000 0.83340  0.50290  0.00000  Biso   1.000  H
  C60      1.0000 0.69763  0.52750  0.00000  Biso   1.000  C
  S5       1.0000 0.97394  0.82149  0.50000  Biso   1.000  S
  O21      1.0000 0.91074  0.75239  0.50000  Biso   1.000  O
  N5       1.0000 0.46978  0.62971  0.50000  Biso   1.000  N
  C61      1.0000 0.07625  0.76825  0.50000  Biso   1.000  C
  C62      1.0000 0.22620  0.66945  0.50000  Biso   1.000  C
  C63      1.0000 0.30881  0.61815  0.50000  Biso   1.000  C
  C64      1.0000 0.38683  0.66424  0.50000  Biso   1.000  C
  C65      1.0000 0.39388  0.75807  0.50000  Biso   1.000  C
  H41      1.0000 0.34800  0.79750  0.50000  Biso   1.000  H
  C66      1.0000 0.47930  0.77770  0.50000  Biso   1.000  C
  H42      1.0000 0.50290  0.83340  0.50000  Biso   1.000  H
  C67      1.0000 0.52750  0.69763  0.50000  Biso   1.000  C
  S6       1.0000 0.02606  0.17851  0.50000  Biso   1.000  S
  O22      1.0000 0.08926  0.24761  0.50000  Biso   1.000  O
  N6       1.0000 0.53022  0.37029  0.50000  Biso   1.000  N
  C68      1.0000 0.92375  0.23175  0.50000  Biso   1.000  C
  C69      1.0000 0.77380  0.33055  0.50000  Biso   1.000  C
  C70      1.0000 0.69119  0.38185  0.50000  Biso   1.000  C
  C71      1.0000 0.61317  0.33576  0.50000  Biso   1.000  C
  C72      1.0000 0.60612  0.24193  0.50000  Biso   1.000  C
  H43      1.0000 0.65200  0.20250  0.50000  Biso   1.000  H
  C73      1.0000 0.52070  0.22230  0.50000  Biso   1.000  C
  H44      1.0000 0.49710  0.16660  0.50000  Biso   1.000  H
  C74      1.0000 0.47250  0.30237  0.50000  Biso   1.000  C
  S7       1.0000 0.82149  0.02606  0.50000  Biso   1.000  S
  O23      1.0000 0.75239  0.08926  0.50000  Biso   1.000  O
  N7       1.0000 0.62971  0.53022  0.50000  Biso   1.000  N
  C75      1.0000 0.76825  0.92375  0.50000  Biso   1.000  C
  C76      1.0000 0.66945  0.77380  0.50000  Biso   1.000  C
  C77      1.0000 0.61815  0.69119  0.50000  Biso   1.000  C
  C78      1.0000 0.66424  0.61317  0.50000  Biso   1.000  C
  C79      1.0000 0.75807  0.60612  0.50000  Biso   1.000  C
  H45      1.0000 0.79750  0.65200  0.50000  Biso   1.000  H
  C80      1.0000 0.77770  0.52070  0.50000  Biso   1.000  C
  H46      1.0000 0.83340  0.49710  0.50000  Biso   1.000  H
  C81      1.0000 0.69763  0.47250  0.50000  Biso   1.000  C
  S8       1.0000 0.17851  0.97394  0.50000  Biso   1.000  S
  O24      1.0000 0.24761  0.91074  0.50000  Biso   1.000  O
  N8       1.0000 0.37029  0.46978  0.50000  Biso   1.000  N
  C82      1.0000 0.23175  0.07625  0.50000  Biso   1.000  C
  C83      1.0000 0.33055  0.22620  0.50000  Biso   1.000  C
  C84      1.0000 0.38185  0.30881  0.50000  Biso   1.000  C
  C85      1.0000 0.33576  0.38683  0.50000  Biso   1.000  C
  C86      1.0000 0.24193  0.39388  0.50000  Biso   1.000  C
  H47      1.0000 0.20250  0.34800  0.50000  Biso   1.000  H
  C87      1.0000 0.22230  0.47930  0.50000  Biso   1.000  C
  H48      1.0000 0.16660  0.50290  0.50000  Biso   1.000  H
  C88      1.0000 0.30237  0.52750  0.50000  Biso   1.000  C
