data_image0
_cell_length_a       15.9293
_cell_length_b       10.9222
_cell_length_c       15.8803
_cell_angle_alpha    90
_cell_angle_beta     115.246
_cell_angle_gamma    90

_symmetry_space_group_name_H-M    "P 1"
_symmetry_int_tables_number       1

loop_
  _symmetry_equiv_pos_as_xyz
  'x, y, z'

loop_
  _atom_site_label
  _atom_site_occupancy
  _atom_site_fract_x
  _atom_site_fract_y
  _atom_site_fract_z
  _atom_site_thermal_displace_type
  _atom_site_B_iso_or_equiv
  _atom_site_type_symbol
  Zn1      1.0000 0.29577  0.41718  0.28847  Biso   1.000  Zn
  O1       1.0000 0.27302  0.53160  0.36995  Biso   1.000  O
  O2       1.0000 0.16233  0.66860  0.32703  Biso   1.000  O
  O3       1.0000 0.18030  0.95000  0.59125  Biso   1.000  O
  O4       1.0000 0.32167  0.99670  0.69629  Biso   1.000  O
  O5       1.0000 0.59150  0.76990  0.72239  Biso   1.000  O
  O6       1.0000 0.58244  0.63516  0.61594  Biso   1.000  O
  N1       1.0000 0.19506  0.29317  0.23822  Biso   1.000  N
  N2       1.0000 0.14321  0.25890  0.28000  Biso   1.000  N
  N3       1.0000 0.08273  0.17550  0.22665  Biso   1.000  N
  N4       1.0000 0.17076  0.23315  0.15724  Biso   1.000  N
  C1       1.0000 0.23907  0.62950  0.37944  Biso   1.000  C
  C2       1.0000 0.29666  0.70110  0.46640  Biso   1.000  C
  C3       1.0000 0.25566  0.78710  0.50152  Biso   1.000  C
  H1       1.0000 0.19200  0.80070  0.47140  Biso   1.000  H
  C4       1.0000 0.30943  0.85320  0.58179  Biso   1.000  C
  C5       1.0000 0.40403  0.83270  0.62561  Biso   1.000  C
  H2       1.0000 0.44030  0.87850  0.67790  Biso   1.000  H
  C6       1.0000 0.44583  0.74500  0.59282  Biso   1.000  C
  C7       1.0000 0.39170  0.67960  0.51263  Biso   1.000  C
  H3       1.0000 0.41920  0.62130  0.48980  Biso   1.000  H
  C8       1.0000 0.26476  0.93960  0.62486  Biso   1.000  C
  C9       1.0000 0.54697  0.71650  0.64738  Biso   1.000  C
  C10      1.0000 0.10102  0.16220  0.15229  Biso   1.000  C
  C11      1.0000 0.04975  0.07770  0.07440  Biso   1.000  C
  C12      1.0000 0.96110  0.04040  0.05783  Biso   1.000  C
  H4       1.0000 0.93430  0.06720  0.09630  Biso   1.000  H
  C13      1.0000 0.91209  0.96280  0.98371  Biso   1.000  C
  H5       1.0000 0.85260  0.93790  0.97320  Biso   1.000  H
  Zn2      1.0000 0.70423  0.91718  0.21153  Biso   1.000  Zn
  O7       1.0000 0.72698  0.03160  0.13005  Biso   1.000  O
  O8       1.0000 0.83767  0.16860  0.17297  Biso   1.000  O
  O9       1.0000 0.81970  0.45000  0.90875  Biso   1.000  O
  O10      1.0000 0.67833  0.49670  0.80371  Biso   1.000  O
  O11      1.0000 0.40850  0.26990  0.77761  Biso   1.000  O
  O12      1.0000 0.41756  0.13516  0.88406  Biso   1.000  O
  N5       1.0000 0.80494  0.79317  0.26178  Biso   1.000  N
  N6       1.0000 0.85679  0.75890  0.22000  Biso   1.000  N
  N7       1.0000 0.91727  0.67550  0.27335  Biso   1.000  N
  N8       1.0000 0.82924  0.73315  0.34276  Biso   1.000  N
  C14      1.0000 0.76093  0.12950  0.12056  Biso   1.000  C
  C15      1.0000 0.70334  0.20110  0.03360  Biso   1.000  C
  C16      1.0000 0.74434  0.28710  0.99848  Biso   1.000  C
  H6       1.0000 0.80800  0.30070  0.02860  Biso   1.000  H
  C17      1.0000 0.69057  0.35320  0.91821  Biso   1.000  C
  C18      1.0000 0.59597  0.33270  0.87439  Biso   1.000  C
  H7       1.0000 0.55970  0.37850  0.82210  Biso   1.000  H
  C19      1.0000 0.55417  0.24500  0.90718  Biso   1.000  C
  C20      1.0000 0.60830  0.17960  0.98737  Biso   1.000  C
  H8       1.0000 0.58080  0.12130  0.01020  Biso   1.000  H
  C21      1.0000 0.73524  0.43960  0.87514  Biso   1.000  C
  C22      1.0000 0.45303  0.21650  0.85262  Biso   1.000  C
  C23      1.0000 0.89898  0.66220  0.34771  Biso   1.000  C
  C24      1.0000 0.95025  0.57770  0.42560  Biso   1.000  C
  C25      1.0000 0.03890  0.54040  0.44217  Biso   1.000  C
  H9       1.0000 0.06570  0.56720  0.40370  Biso   1.000  H
  C26      1.0000 0.08791  0.46280  0.51629  Biso   1.000  C
  H10      1.0000 0.14740  0.43790  0.52680  Biso   1.000  H
  Zn3      1.0000 0.70423  0.58282  0.71153  Biso   1.000  Zn
  O13      1.0000 0.72698  0.46840  0.63005  Biso   1.000  O
  O14      1.0000 0.83767  0.33140  0.67297  Biso   1.000  O
  O15      1.0000 0.81970  0.05000  0.40875  Biso   1.000  O
  O16      1.0000 0.67833  0.00330  0.30371  Biso   1.000  O
  O17      1.0000 0.40850  0.23010  0.27761  Biso   1.000  O
  O18      1.0000 0.41756  0.36484  0.38406  Biso   1.000  O
  N9       1.0000 0.80494  0.70683  0.76178  Biso   1.000  N
  N10      1.0000 0.85679  0.74110  0.72000  Biso   1.000  N
  N11      1.0000 0.91727  0.82450  0.77335  Biso   1.000  N
  N12      1.0000 0.82924  0.76685  0.84276  Biso   1.000  N
  C27      1.0000 0.76093  0.37050  0.62056  Biso   1.000  C
  C28      1.0000 0.70334  0.29890  0.53360  Biso   1.000  C
  C29      1.0000 0.74434  0.21290  0.49848  Biso   1.000  C
  H11      1.0000 0.80800  0.19930  0.52860  Biso   1.000  H
  C30      1.0000 0.69057  0.14680  0.41821  Biso   1.000  C
  C31      1.0000 0.59597  0.16730  0.37439  Biso   1.000  C
  H12      1.0000 0.55970  0.12150  0.32210  Biso   1.000  H
  C32      1.0000 0.55417  0.25500  0.40718  Biso   1.000  C
  C33      1.0000 0.60830  0.32040  0.48737  Biso   1.000  C
  H13      1.0000 0.58080  0.37870  0.51020  Biso   1.000  H
  C34      1.0000 0.73524  0.06040  0.37514  Biso   1.000  C
  C35      1.0000 0.45303  0.28350  0.35262  Biso   1.000  C
  C36      1.0000 0.89898  0.83780  0.84771  Biso   1.000  C
  C37      1.0000 0.95025  0.92230  0.92560  Biso   1.000  C
  C38      1.0000 0.03890  0.95960  0.94217  Biso   1.000  C
  H14      1.0000 0.06570  0.93280  0.90370  Biso   1.000  H
  C39      1.0000 0.08791  0.03720  0.01629  Biso   1.000  C
  H15      1.0000 0.14740  0.06210  0.02680  Biso   1.000  H
  Zn4      1.0000 0.29577  0.08282  0.78847  Biso   1.000  Zn
  O19      1.0000 0.27302  0.96840  0.86995  Biso   1.000  O
  O20      1.0000 0.16233  0.83140  0.82703  Biso   1.000  O
  O21      1.0000 0.18030  0.55000  0.09125  Biso   1.000  O
  O22      1.0000 0.32167  0.50330  0.19629  Biso   1.000  O
  O23      1.0000 0.59150  0.73010  0.22239  Biso   1.000  O
  O24      1.0000 0.58244  0.86484  0.11594  Biso   1.000  O
  N13      1.0000 0.19506  0.20683  0.73822  Biso   1.000  N
  N14      1.0000 0.14321  0.24110  0.78000  Biso   1.000  N
  N15      1.0000 0.08273  0.32450  0.72665  Biso   1.000  N
  N16      1.0000 0.17076  0.26685  0.65724  Biso   1.000  N
  C40      1.0000 0.23907  0.87050  0.87944  Biso   1.000  C
  C41      1.0000 0.29666  0.79890  0.96640  Biso   1.000  C
  C42      1.0000 0.25566  0.71290  0.00152  Biso   1.000  C
  H16      1.0000 0.19200  0.69930  0.97140  Biso   1.000  H
  C43      1.0000 0.30943  0.64680  0.08179  Biso   1.000  C
  C44      1.0000 0.40403  0.66730  0.12561  Biso   1.000  C
  H17      1.0000 0.44030  0.62150  0.17790  Biso   1.000  H
  C45      1.0000 0.44583  0.75500  0.09282  Biso   1.000  C
  C46      1.0000 0.39170  0.82040  0.01263  Biso   1.000  C
  H18      1.0000 0.41920  0.87870  0.98980  Biso   1.000  H
  C47      1.0000 0.26476  0.56040  0.12486  Biso   1.000  C
  C48      1.0000 0.54697  0.78350  0.14738  Biso   1.000  C
  C49      1.0000 0.10102  0.33780  0.65229  Biso   1.000  C
  C50      1.0000 0.04975  0.42230  0.57440  Biso   1.000  C
  C51      1.0000 0.96110  0.45960  0.55783  Biso   1.000  C
  H19      1.0000 0.93430  0.43280  0.59630  Biso   1.000  H
  C52      1.0000 0.91209  0.53720  0.48371  Biso   1.000  C
  H20      1.0000 0.85260  0.56210  0.47320  Biso   1.000  H
