data_image0
_cell_length_a       14.0086
_cell_length_b       16.332
_cell_length_c       16.622
_cell_angle_alpha    90
_cell_angle_beta     90
_cell_angle_gamma    90

_symmetry_space_group_name_H-M    "P 1"
_symmetry_int_tables_number       1

loop_
  _symmetry_equiv_pos_as_xyz
  'x, y, z'

loop_
  _atom_site_label
  _atom_site_occupancy
  _atom_site_fract_x
  _atom_site_fract_y
  _atom_site_fract_z
  _atom_site_thermal_displace_type
  _atom_site_B_iso_or_equiv
  _atom_site_type_symbol
  Ni1      1.0000 0.97368  0.17556  0.61066  Biso   1.000  Ni
  C1       1.0000 0.75260  0.99679  0.65727  Biso   1.000  C
  C2       1.0000 0.71905  0.92024  0.63312  Biso   1.000  C
  H1       1.0000 0.74550  0.89420  0.58710  Biso   1.000  H
  C3       1.0000 0.64662  0.88192  0.67670  Biso   1.000  C
  C4       1.0000 0.60947  0.92028  0.74457  Biso   1.000  C
  H2       1.0000 0.56370  0.89250  0.77670  Biso   1.000  H
  C5       1.0000 0.63842  0.99841  0.76579  Biso   1.000  C
  C6       1.0000 0.71062  0.03695  0.72173  Biso   1.000  C
  H3       1.0000 0.73090  0.09060  0.73590  Biso   1.000  H
  C7       1.0000 0.83818  0.03560  0.61566  Biso   1.000  C
  C8       1.0000 0.60771  0.79961  0.65169  Biso   1.000  C
  C9       1.0000 0.59061  0.03946  0.83615  Biso   1.000  C
  O1       1.0000 0.87360  0.09738  0.65006  Biso   1.000  O
  O2       1.0000 0.86694  0.00046  0.55263  Biso   1.000  O
  O3       1.0000 0.63326  0.76855  0.58595  Biso   1.000  O
  O4       1.0000 0.54746  0.76484  0.69616  Biso   1.000  O
  O5       1.0000 0.56128  0.99269  0.88931  Biso   1.000  O
  O6       1.0000 0.58225  0.11670  0.83378  Biso   1.000  O
  C10      1.0000 0.91843  0.80620  0.60873  Biso   1.000  C
  H4       1.0000 0.84870  0.80200  0.60990  Biso   1.000  H
  H5       1.0000 0.94640  0.75740  0.63360  Biso   1.000  H
  H6       1.0000 0.93850  0.85500  0.63860  Biso   1.000  H
  C11      1.0000 0.95185  0.81271  0.52286  Biso   1.000  C
  O7       1.0000 0.93247  0.75818  0.47240  Biso   1.000  O
  O8       1.0000 0.00420  0.87123  0.50144  Biso   1.000  O
  Ni2      1.0000 0.52632  0.82444  0.11066  Biso   1.000  Ni
  C12      1.0000 0.74740  0.00321  0.15727  Biso   1.000  C
  C13      1.0000 0.78095  0.07976  0.13312  Biso   1.000  C
  H7       1.0000 0.75450  0.10580  0.08710  Biso   1.000  H
  C14      1.0000 0.85338  0.11808  0.17670  Biso   1.000  C
  C15      1.0000 0.89053  0.07972  0.24457  Biso   1.000  C
  H8       1.0000 0.93630  0.10750  0.27670  Biso   1.000  H
  C16      1.0000 0.86158  0.00159  0.26579  Biso   1.000  C
  C17      1.0000 0.78938  0.96305  0.22173  Biso   1.000  C
  H9       1.0000 0.76910  0.90940  0.23590  Biso   1.000  H
  C18      1.0000 0.66182  0.96440  0.11566  Biso   1.000  C
  C19      1.0000 0.89229  0.20039  0.15169  Biso   1.000  C
  C20      1.0000 0.90939  0.96054  0.33615  Biso   1.000  C
  O9       1.0000 0.62640  0.90262  0.15006  Biso   1.000  O
  O10      1.0000 0.63306  0.99954  0.05263  Biso   1.000  O
  O11      1.0000 0.86674  0.23145  0.08595  Biso   1.000  O
  O12      1.0000 0.95254  0.23516  0.19616  Biso   1.000  O
  O13      1.0000 0.93872  0.00731  0.38931  Biso   1.000  O
  O14      1.0000 0.91775  0.88330  0.33378  Biso   1.000  O
  C21      1.0000 0.58157  0.19380  0.10873  Biso   1.000  C
  H10      1.0000 0.65130  0.19800  0.10990  Biso   1.000  H
  H11      1.0000 0.55360  0.24260  0.13360  Biso   1.000  H
  H12      1.0000 0.56150  0.14500  0.13860  Biso   1.000  H
  C22      1.0000 0.54815  0.18729  0.02286  Biso   1.000  C
  O15      1.0000 0.56753  0.24182  0.97240  Biso   1.000  O
  O16      1.0000 0.49580  0.12877  0.00144  Biso   1.000  O
  Ni3      1.0000 0.02632  0.67556  0.88934  Biso   1.000  Ni
  C23      1.0000 0.24740  0.49679  0.84273  Biso   1.000  C
  C24      1.0000 0.28095  0.42024  0.86688  Biso   1.000  C
  H13      1.0000 0.25450  0.39420  0.91290  Biso   1.000  H
  C25      1.0000 0.35338  0.38192  0.82330  Biso   1.000  C
  C26      1.0000 0.39053  0.42028  0.75543  Biso   1.000  C
  H14      1.0000 0.43630  0.39250  0.72330  Biso   1.000  H
  C27      1.0000 0.36158  0.49841  0.73421  Biso   1.000  C
  C28      1.0000 0.28938  0.53695  0.77827  Biso   1.000  C
  H15      1.0000 0.26910  0.59060  0.76410  Biso   1.000  H
  C29      1.0000 0.16182  0.53560  0.88434  Biso   1.000  C
  C30      1.0000 0.39229  0.29961  0.84831  Biso   1.000  C
  C31      1.0000 0.40939  0.53946  0.66385  Biso   1.000  C
  O17      1.0000 0.12640  0.59738  0.84994  Biso   1.000  O
  O18      1.0000 0.13306  0.50046  0.94737  Biso   1.000  O
  O19      1.0000 0.36674  0.26855  0.91405  Biso   1.000  O
  O20      1.0000 0.45254  0.26484  0.80384  Biso   1.000  O
  O21      1.0000 0.43872  0.49269  0.61069  Biso   1.000  O
  O22      1.0000 0.41775  0.61670  0.66622  Biso   1.000  O
  C32      1.0000 0.08157  0.30620  0.89127  Biso   1.000  C
  H16      1.0000 0.15130  0.30200  0.89010  Biso   1.000  H
  H17      1.0000 0.05360  0.25740  0.86640  Biso   1.000  H
  H18      1.0000 0.06150  0.35500  0.86140  Biso   1.000  H
  C33      1.0000 0.04815  0.31271  0.97714  Biso   1.000  C
  O23      1.0000 0.06753  0.25818  0.02760  Biso   1.000  O
  O24      1.0000 0.99580  0.37123  0.99856  Biso   1.000  O
  Ni4      1.0000 0.47368  0.32444  0.38934  Biso   1.000  Ni
  C34      1.0000 0.25260  0.50321  0.34273  Biso   1.000  C
  C35      1.0000 0.21905  0.57976  0.36688  Biso   1.000  C
  H19      1.0000 0.24550  0.60580  0.41290  Biso   1.000  H
  C36      1.0000 0.14662  0.61808  0.32330  Biso   1.000  C
  C37      1.0000 0.10947  0.57972  0.25543  Biso   1.000  C
  H20      1.0000 0.06370  0.60750  0.22330  Biso   1.000  H
  C38      1.0000 0.13842  0.50159  0.23421  Biso   1.000  C
  C39      1.0000 0.21062  0.46305  0.27827  Biso   1.000  C
  H21      1.0000 0.23090  0.40940  0.26410  Biso   1.000  H
  C40      1.0000 0.33818  0.46440  0.38434  Biso   1.000  C
  C41      1.0000 0.10771  0.70039  0.34831  Biso   1.000  C
  C42      1.0000 0.09061  0.46054  0.16385  Biso   1.000  C
  O25      1.0000 0.37360  0.40262  0.34994  Biso   1.000  O
  O26      1.0000 0.36694  0.49954  0.44737  Biso   1.000  O
  O27      1.0000 0.13326  0.73145  0.41405  Biso   1.000  O
  O28      1.0000 0.04746  0.73516  0.30384  Biso   1.000  O
  O29      1.0000 0.06128  0.50731  0.11069  Biso   1.000  O
  O30      1.0000 0.08225  0.38330  0.16622  Biso   1.000  O
  C43      1.0000 0.41843  0.69380  0.39127  Biso   1.000  C
  H22      1.0000 0.34870  0.69800  0.39010  Biso   1.000  H
  H23      1.0000 0.44640  0.74260  0.36640  Biso   1.000  H
  H24      1.0000 0.43850  0.64500  0.36140  Biso   1.000  H
  C44      1.0000 0.45185  0.68729  0.47714  Biso   1.000  C
  O31      1.0000 0.43247  0.74182  0.52760  Biso   1.000  O
  O32      1.0000 0.50420  0.62877  0.49856  Biso   1.000  O
  Ni5      1.0000 0.02632  0.82444  0.38934  Biso   1.000  Ni
  C45      1.0000 0.24740  0.00321  0.34273  Biso   1.000  C
  C46      1.0000 0.28095  0.07976  0.36688  Biso   1.000  C
  H25      1.0000 0.25450  0.10580  0.41290  Biso   1.000  H
  C47      1.0000 0.35338  0.11808  0.32330  Biso   1.000  C
  C48      1.0000 0.39053  0.07972  0.25543  Biso   1.000  C
  H26      1.0000 0.43630  0.10750  0.22330  Biso   1.000  H
  C49      1.0000 0.36158  0.00159  0.23421  Biso   1.000  C
  C50      1.0000 0.28938  0.96305  0.27827  Biso   1.000  C
  H27      1.0000 0.26910  0.90940  0.26410  Biso   1.000  H
  C51      1.0000 0.16182  0.96440  0.38434  Biso   1.000  C
  C52      1.0000 0.39229  0.20039  0.34831  Biso   1.000  C
  C53      1.0000 0.40939  0.96054  0.16385  Biso   1.000  C
  O33      1.0000 0.12640  0.90262  0.34994  Biso   1.000  O
  O34      1.0000 0.13306  0.99954  0.44737  Biso   1.000  O
  O35      1.0000 0.36674  0.23145  0.41405  Biso   1.000  O
  O36      1.0000 0.45254  0.23516  0.30384  Biso   1.000  O
  O37      1.0000 0.43872  0.00731  0.11069  Biso   1.000  O
  O38      1.0000 0.41775  0.88330  0.16622  Biso   1.000  O
  C54      1.0000 0.08157  0.19380  0.39127  Biso   1.000  C
  H28      1.0000 0.15130  0.19800  0.39010  Biso   1.000  H
  H29      1.0000 0.05360  0.24260  0.36640  Biso   1.000  H
  H30      1.0000 0.06150  0.14500  0.36140  Biso   1.000  H
  C55      1.0000 0.04815  0.18729  0.47714  Biso   1.000  C
  O39      1.0000 0.06753  0.24182  0.52760  Biso   1.000  O
  O40      1.0000 0.99580  0.12877  0.49856  Biso   1.000  O
  Ni6      1.0000 0.47368  0.17556  0.88934  Biso   1.000  Ni
  C56      1.0000 0.25260  0.99679  0.84273  Biso   1.000  C
  C57      1.0000 0.21905  0.92024  0.86688  Biso   1.000  C
  H31      1.0000 0.24550  0.89420  0.91290  Biso   1.000  H
  C58      1.0000 0.14662  0.88192  0.82330  Biso   1.000  C
  C59      1.0000 0.10947  0.92028  0.75543  Biso   1.000  C
  H32      1.0000 0.06370  0.89250  0.72330  Biso   1.000  H
  C60      1.0000 0.13842  0.99841  0.73421  Biso   1.000  C
  C61      1.0000 0.21062  0.03695  0.77827  Biso   1.000  C
  H33      1.0000 0.23090  0.09060  0.76410  Biso   1.000  H
  C62      1.0000 0.33818  0.03560  0.88434  Biso   1.000  C
  C63      1.0000 0.10771  0.79961  0.84831  Biso   1.000  C
  C64      1.0000 0.09061  0.03946  0.66385  Biso   1.000  C
  O41      1.0000 0.37360  0.09738  0.84994  Biso   1.000  O
  O42      1.0000 0.36694  0.00046  0.94737  Biso   1.000  O
  O43      1.0000 0.13326  0.76855  0.91405  Biso   1.000  O
  O44      1.0000 0.04746  0.76484  0.80384  Biso   1.000  O
  O45      1.0000 0.06128  0.99269  0.61069  Biso   1.000  O
  O46      1.0000 0.08225  0.11670  0.66622  Biso   1.000  O
  C65      1.0000 0.41843  0.80620  0.89127  Biso   1.000  C
  H34      1.0000 0.34870  0.80200  0.89010  Biso   1.000  H
  H35      1.0000 0.44640  0.75740  0.86640  Biso   1.000  H
  H36      1.0000 0.43850  0.85500  0.86140  Biso   1.000  H
  C66      1.0000 0.45185  0.81271  0.97714  Biso   1.000  C
  O47      1.0000 0.43247  0.75818  0.02760  Biso   1.000  O
  O48      1.0000 0.50420  0.87123  0.99856  Biso   1.000  O
  Ni7      1.0000 0.97368  0.32444  0.11066  Biso   1.000  Ni
  C67      1.0000 0.75260  0.50321  0.15727  Biso   1.000  C
  C68      1.0000 0.71905  0.57976  0.13312  Biso   1.000  C
  H37      1.0000 0.74550  0.60580  0.08710  Biso   1.000  H
  C69      1.0000 0.64662  0.61808  0.17670  Biso   1.000  C
  C70      1.0000 0.60947  0.57972  0.24457  Biso   1.000  C
  H38      1.0000 0.56370  0.60750  0.27670  Biso   1.000  H
  C71      1.0000 0.63842  0.50159  0.26579  Biso   1.000  C
  C72      1.0000 0.71062  0.46305  0.22173  Biso   1.000  C
  H39      1.0000 0.73090  0.40940  0.23590  Biso   1.000  H
  C73      1.0000 0.83818  0.46440  0.11566  Biso   1.000  C
  C74      1.0000 0.60771  0.70039  0.15169  Biso   1.000  C
  C75      1.0000 0.59061  0.46054  0.33615  Biso   1.000  C
  O49      1.0000 0.87360  0.40262  0.15006  Biso   1.000  O
  O50      1.0000 0.86694  0.49954  0.05263  Biso   1.000  O
  O51      1.0000 0.63326  0.73145  0.08595  Biso   1.000  O
  O52      1.0000 0.54746  0.73516  0.19616  Biso   1.000  O
  O53      1.0000 0.56128  0.50731  0.38931  Biso   1.000  O
  O54      1.0000 0.58225  0.38330  0.33378  Biso   1.000  O
  C76      1.0000 0.91843  0.69380  0.10873  Biso   1.000  C
  H40      1.0000 0.84870  0.69800  0.10990  Biso   1.000  H
  H41      1.0000 0.94640  0.74260  0.13360  Biso   1.000  H
  H42      1.0000 0.93850  0.64500  0.13860  Biso   1.000  H
  C77      1.0000 0.95185  0.68729  0.02286  Biso   1.000  C
  O55      1.0000 0.93247  0.74182  0.97240  Biso   1.000  O
  O56      1.0000 0.00420  0.62877  0.00144  Biso   1.000  O
  Ni8      1.0000 0.52632  0.67556  0.61066  Biso   1.000  Ni
  C78      1.0000 0.74740  0.49679  0.65727  Biso   1.000  C
  C79      1.0000 0.78095  0.42024  0.63312  Biso   1.000  C
  H43      1.0000 0.75450  0.39420  0.58710  Biso   1.000  H
  C80      1.0000 0.85338  0.38192  0.67670  Biso   1.000  C
  C81      1.0000 0.89053  0.42028  0.74457  Biso   1.000  C
  H44      1.0000 0.93630  0.39250  0.77670  Biso   1.000  H
  C82      1.0000 0.86158  0.49841  0.76579  Biso   1.000  C
  C83      1.0000 0.78938  0.53695  0.72173  Biso   1.000  C
  H45      1.0000 0.76910  0.59060  0.73590  Biso   1.000  H
  C84      1.0000 0.66182  0.53560  0.61566  Biso   1.000  C
  C85      1.0000 0.89229  0.29961  0.65169  Biso   1.000  C
  C86      1.0000 0.90939  0.53946  0.83615  Biso   1.000  C
  O57      1.0000 0.62640  0.59738  0.65006  Biso   1.000  O
  O58      1.0000 0.63306  0.50046  0.55263  Biso   1.000  O
  O59      1.0000 0.86674  0.26855  0.58595  Biso   1.000  O
  O60      1.0000 0.95254  0.26484  0.69616  Biso   1.000  O
  O61      1.0000 0.93872  0.49269  0.88931  Biso   1.000  O
  O62      1.0000 0.91775  0.61670  0.83378  Biso   1.000  O
  C87      1.0000 0.58157  0.30620  0.60873  Biso   1.000  C
  H46      1.0000 0.65130  0.30200  0.60990  Biso   1.000  H
  H47      1.0000 0.55360  0.25740  0.63360  Biso   1.000  H
  H48      1.0000 0.56150  0.35500  0.63860  Biso   1.000  H
  C88      1.0000 0.54815  0.31271  0.52286  Biso   1.000  C
  O63      1.0000 0.56753  0.25818  0.47240  Biso   1.000  O
  O64      1.0000 0.49580  0.37123  0.50144  Biso   1.000  O
  Ni9      1.0000 0.00000  0.00000  0.50000  Biso   1.000  Ni
  Ni10     1.0000 0.50000  0.00000  0.00000  Biso   1.000  Ni
  Ni11     1.0000 0.00000  0.50000  0.00000  Biso   1.000  Ni
  Ni12     1.0000 0.50000  0.50000  0.50000  Biso   1.000  Ni
