data_image0
_cell_length_a       10.781
_cell_length_b       13.903
_cell_length_c       18.74
_cell_angle_alpha    90
_cell_angle_beta     98.17
_cell_angle_gamma    90

_symmetry_space_group_name_H-M    "P 1"
_symmetry_int_tables_number       1

loop_
  _symmetry_equiv_pos_as_xyz
  'x, y, z'

loop_
  _atom_site_label
  _atom_site_occupancy
  _atom_site_fract_x
  _atom_site_fract_y
  _atom_site_fract_z
  _atom_site_thermal_displace_type
  _atom_site_B_iso_or_equiv
  _atom_site_type_symbol
  Ni1      1.0000 0.60570  0.73079  0.47625  Biso   1.000  Ni
  C1       1.0000 0.99905  0.75702  0.96611  Biso   1.000  C
  C2       1.0000 0.10848  0.81053  0.98160  Biso   1.000  C
  H1       1.0000 0.10410  0.87770  0.99040  Biso   1.000  H
  C3       1.0000 0.22437  0.76584  0.98423  Biso   1.000  C
  C4       1.0000 0.23083  0.66763  0.97138  Biso   1.000  C
  H2       1.0000 0.31000  0.63710  0.97320  Biso   1.000  H
  C5       1.0000 0.12141  0.61411  0.95588  Biso   1.000  C
  C6       1.0000 0.00552  0.65881  0.95325  Biso   1.000  C
  H3       1.0000 0.93070  0.62220  0.94270  Biso   1.000  H
  C7       1.0000 0.87461  0.80429  0.97253  Biso   1.000  C
  C8       1.0000 0.34700  0.81841  0.99522  Biso   1.000  C
  C9       1.0000 0.12800  0.50852  0.94220  Biso   1.000  C
  O1       1.0000 0.77689  0.75848  0.94362  Biso   1.000  O
  O2       1.0000 0.87222  0.88267  0.00441  Biso   1.000  O
  O3       1.0000 0.34780  0.90793  0.98495  Biso   1.000  O
  O4       1.0000 0.44118  0.76547  0.01307  Biso   1.000  O
  O5       1.0000 0.24047  0.47191  0.96774  Biso   1.000  O
  O6       1.0000 0.04346  0.46096  0.91150  Biso   1.000  O
  C10      1.0000 0.52629  0.98160  0.33146  Biso   1.000  C
  C11      1.0000 0.52825  0.99224  0.25787  Biso   1.000  C
  H4       1.0000 0.56720  0.94480  0.23210  Biso   1.000  H
  C12      1.0000 0.47347  0.07183  0.22234  Biso   1.000  C
  C13      1.0000 0.42044  0.14309  0.26037  Biso   1.000  C
  H5       1.0000 0.38550  0.19890  0.23600  Biso   1.000  H
  C14      1.0000 0.41856  0.13272  0.33398  Biso   1.000  C
  C15      1.0000 0.46971  0.05110  0.36957  Biso   1.000  C
  H6       1.0000 0.46610  0.04280  0.41960  Biso   1.000  H
  C16      1.0000 0.59172  0.89932  0.37234  Biso   1.000  C
  C17      1.0000 0.46920  0.08395  0.14100  Biso   1.000  C
  C18      1.0000 0.36551  0.21399  0.37393  Biso   1.000  C
  O7       1.0000 0.55485  0.86516  0.42596  Biso   1.000  O
  O8       1.0000 0.69276  0.86715  0.34666  Biso   1.000  O
  O9       1.0000 0.47995  0.00897  0.10542  Biso   1.000  O
  O10      1.0000 0.45855  0.16943  0.11916  Biso   1.000  O
  O11      1.0000 0.36570  0.29690  0.34911  Biso   1.000  O
  O12      1.0000 0.32520  0.19236  0.43304  Biso   1.000  O
  O13      1.0000 0.64038  0.89704  0.03208  Biso   1.000  O
  Ni2      1.0000 0.39430  0.23079  0.02375  Biso   1.000  Ni
  C19      1.0000 0.00095  0.25702  0.53389  Biso   1.000  C
  C20      1.0000 0.89152  0.31053  0.51840  Biso   1.000  C
  H7       1.0000 0.89590  0.37770  0.50960  Biso   1.000  H
  C21      1.0000 0.77563  0.26584  0.51577  Biso   1.000  C
  C22      1.0000 0.76917  0.16763  0.52862  Biso   1.000  C
  H8       1.0000 0.69000  0.13710  0.52680  Biso   1.000  H
  C23      1.0000 0.87859  0.11411  0.54412  Biso   1.000  C
  C24      1.0000 0.99448  0.15881  0.54675  Biso   1.000  C
  H9       1.0000 0.06930  0.12220  0.55730  Biso   1.000  H
  C25      1.0000 0.12539  0.30429  0.52747  Biso   1.000  C
  C26      1.0000 0.65300  0.31841  0.50478  Biso   1.000  C
  C27      1.0000 0.87200  0.00852  0.55780  Biso   1.000  C
  O14      1.0000 0.22311  0.25848  0.55638  Biso   1.000  O
  O15      1.0000 0.12778  0.38267  0.49559  Biso   1.000  O
  O16      1.0000 0.65220  0.40793  0.51505  Biso   1.000  O
  O17      1.0000 0.55882  0.26547  0.48693  Biso   1.000  O
  O18      1.0000 0.75953  0.97191  0.53226  Biso   1.000  O
  O19      1.0000 0.95654  0.96096  0.58850  Biso   1.000  O
  C28      1.0000 0.47371  0.48160  0.16854  Biso   1.000  C
  C29      1.0000 0.47175  0.49224  0.24213  Biso   1.000  C
  H10      1.0000 0.43280  0.44480  0.26790  Biso   1.000  H
  C30      1.0000 0.52653  0.57183  0.27766  Biso   1.000  C
  C31      1.0000 0.57956  0.64309  0.23963  Biso   1.000  C
  H11      1.0000 0.61450  0.69890  0.26400  Biso   1.000  H
  C32      1.0000 0.58144  0.63272  0.16602  Biso   1.000  C
  C33      1.0000 0.53029  0.55110  0.13043  Biso   1.000  C
  H12      1.0000 0.53390  0.54280  0.08040  Biso   1.000  H
  C34      1.0000 0.40828  0.39932  0.12766  Biso   1.000  C
  C35      1.0000 0.53080  0.58395  0.35900  Biso   1.000  C
  C36      1.0000 0.63449  0.71399  0.12607  Biso   1.000  C
  O20      1.0000 0.44515  0.36516  0.07404  Biso   1.000  O
  O21      1.0000 0.30724  0.36715  0.15334  Biso   1.000  O
  O22      1.0000 0.52005  0.50897  0.39458  Biso   1.000  O
  O23      1.0000 0.54145  0.66943  0.38084  Biso   1.000  O
  O24      1.0000 0.63430  0.79690  0.15089  Biso   1.000  O
  O25      1.0000 0.67480  0.69236  0.06696  Biso   1.000  O
  O26      1.0000 0.35962  0.39704  0.46792  Biso   1.000  O
  Ni3      1.0000 0.39430  0.26921  0.52375  Biso   1.000  Ni
  C37      1.0000 0.00095  0.24298  0.03389  Biso   1.000  C
  C38      1.0000 0.89152  0.18947  0.01840  Biso   1.000  C
  H13      1.0000 0.89590  0.12230  0.00960  Biso   1.000  H
  C39      1.0000 0.77563  0.23416  0.01577  Biso   1.000  C
  C40      1.0000 0.76917  0.33237  0.02862  Biso   1.000  C
  H14      1.0000 0.69000  0.36290  0.02680  Biso   1.000  H
  C41      1.0000 0.87859  0.38589  0.04412  Biso   1.000  C
  C42      1.0000 0.99448  0.34119  0.04675  Biso   1.000  C
  H15      1.0000 0.06930  0.37780  0.05730  Biso   1.000  H
  C43      1.0000 0.12539  0.19571  0.02747  Biso   1.000  C
  C44      1.0000 0.65300  0.18159  0.00478  Biso   1.000  C
  C45      1.0000 0.87200  0.49148  0.05780  Biso   1.000  C
  O27      1.0000 0.22311  0.24152  0.05638  Biso   1.000  O
  O28      1.0000 0.12778  0.11733  0.99559  Biso   1.000  O
  O29      1.0000 0.65220  0.09207  0.01505  Biso   1.000  O
  O30      1.0000 0.55882  0.23453  0.98693  Biso   1.000  O
  O31      1.0000 0.75953  0.52809  0.03226  Biso   1.000  O
  O32      1.0000 0.95654  0.53904  0.08850  Biso   1.000  O
  C46      1.0000 0.47371  0.01840  0.66854  Biso   1.000  C
  C47      1.0000 0.47175  0.00776  0.74213  Biso   1.000  C
  H16      1.0000 0.43280  0.05520  0.76790  Biso   1.000  H
  C48      1.0000 0.52653  0.92817  0.77766  Biso   1.000  C
  C49      1.0000 0.57956  0.85691  0.73963  Biso   1.000  C
  H17      1.0000 0.61450  0.80110  0.76400  Biso   1.000  H
  C50      1.0000 0.58144  0.86728  0.66602  Biso   1.000  C
  C51      1.0000 0.53029  0.94890  0.63043  Biso   1.000  C
  H18      1.0000 0.53390  0.95720  0.58040  Biso   1.000  H
  C52      1.0000 0.40828  0.10068  0.62766  Biso   1.000  C
  C53      1.0000 0.53080  0.91605  0.85900  Biso   1.000  C
  C54      1.0000 0.63449  0.78601  0.62607  Biso   1.000  C
  O33      1.0000 0.44515  0.13484  0.57404  Biso   1.000  O
  O34      1.0000 0.30724  0.13285  0.65334  Biso   1.000  O
  O35      1.0000 0.52005  0.99103  0.89458  Biso   1.000  O
  O36      1.0000 0.54145  0.83057  0.88084  Biso   1.000  O
  O37      1.0000 0.63430  0.70310  0.65089  Biso   1.000  O
  O38      1.0000 0.67480  0.80764  0.56696  Biso   1.000  O
  O39      1.0000 0.35962  0.10296  0.96792  Biso   1.000  O
  Ni4      1.0000 0.60570  0.76921  0.97625  Biso   1.000  Ni
  C55      1.0000 0.99905  0.74298  0.46611  Biso   1.000  C
  C56      1.0000 0.10848  0.68947  0.48160  Biso   1.000  C
  H19      1.0000 0.10410  0.62230  0.49040  Biso   1.000  H
  C57      1.0000 0.22437  0.73416  0.48423  Biso   1.000  C
  C58      1.0000 0.23083  0.83237  0.47138  Biso   1.000  C
  H20      1.0000 0.31000  0.86290  0.47320  Biso   1.000  H
  C59      1.0000 0.12141  0.88589  0.45588  Biso   1.000  C
  C60      1.0000 0.00552  0.84119  0.45325  Biso   1.000  C
  H21      1.0000 0.93070  0.87780  0.44270  Biso   1.000  H
  C61      1.0000 0.87461  0.69571  0.47253  Biso   1.000  C
  C62      1.0000 0.34700  0.68159  0.49522  Biso   1.000  C
  C63      1.0000 0.12800  0.99148  0.44220  Biso   1.000  C
  O40      1.0000 0.77689  0.74152  0.44362  Biso   1.000  O
  O41      1.0000 0.87222  0.61733  0.50441  Biso   1.000  O
  O42      1.0000 0.34780  0.59207  0.48495  Biso   1.000  O
  O43      1.0000 0.44118  0.73453  0.51307  Biso   1.000  O
  O44      1.0000 0.24047  0.02809  0.46774  Biso   1.000  O
  O45      1.0000 0.04346  0.03904  0.41150  Biso   1.000  O
  C64      1.0000 0.52629  0.51840  0.83146  Biso   1.000  C
  C65      1.0000 0.52825  0.50776  0.75787  Biso   1.000  C
  H22      1.0000 0.56720  0.55520  0.73210  Biso   1.000  H
  C66      1.0000 0.47347  0.42817  0.72234  Biso   1.000  C
  C67      1.0000 0.42044  0.35691  0.76037  Biso   1.000  C
  H23      1.0000 0.38550  0.30110  0.73600  Biso   1.000  H
  C68      1.0000 0.41856  0.36728  0.83398  Biso   1.000  C
  C69      1.0000 0.46971  0.44890  0.86957  Biso   1.000  C
  H24      1.0000 0.46610  0.45720  0.91960  Biso   1.000  H
  C70      1.0000 0.59172  0.60068  0.87234  Biso   1.000  C
  C71      1.0000 0.46920  0.41605  0.64100  Biso   1.000  C
  C72      1.0000 0.36551  0.28601  0.87393  Biso   1.000  C
  O46      1.0000 0.55485  0.63484  0.92596  Biso   1.000  O
  O47      1.0000 0.69276  0.63285  0.84666  Biso   1.000  O
  O48      1.0000 0.47995  0.49103  0.60542  Biso   1.000  O
  O49      1.0000 0.45855  0.33057  0.61916  Biso   1.000  O
  O50      1.0000 0.36570  0.20310  0.84911  Biso   1.000  O
  O51      1.0000 0.32520  0.30764  0.93304  Biso   1.000  O
  O52      1.0000 0.64038  0.60296  0.53208  Biso   1.000  O
  Ni5      1.0000 0.50000  0.00000  0.00000  Biso   1.000  Ni
  Ni6      1.0000 0.50000  0.50000  0.50000  Biso   1.000  Ni
