data_image0
_cell_length_a       10.711
_cell_length_b       13.7963
_cell_length_c       18.7511
_cell_angle_alpha    90
_cell_angle_beta     98.158
_cell_angle_gamma    90

_symmetry_space_group_name_H-M    "P 1"
_symmetry_int_tables_number       1

loop_
  _symmetry_equiv_pos_as_xyz
  'x, y, z'

loop_
  _atom_site_label
  _atom_site_occupancy
  _atom_site_fract_x
  _atom_site_fract_y
  _atom_site_fract_z
  _atom_site_thermal_displace_type
  _atom_site_B_iso_or_equiv
  _atom_site_type_symbol
  Ni1      1.0000 0.39800  0.26770  0.52411  Biso   1.000  Ni
  C1       1.0000 0.40950  0.13530  0.33316  Biso   1.000  C
  C2       1.0000 0.41630  0.14610  0.25982  Biso   1.000  C
  H1       1.0000 0.38540  0.20370  0.23580  Biso   1.000  H
  C3       1.0000 0.46760  0.07360  0.22147  Biso   1.000  C
  C4       1.0000 0.51850  0.99090  0.25747  Biso   1.000  C
  H2       1.0000 0.55410  0.94120  0.23170  Biso   1.000  H
  C5       1.0000 0.51700  0.98150  0.33119  Biso   1.000  C
  C6       1.0000 0.45760  0.05300  0.36822  Biso   1.000  C
  H3       1.0000 0.45080  0.04420  0.41780  Biso   1.000  H
  C7       1.0000 0.35580  0.21730  0.37298  Biso   1.000  C
  C8       1.0000 0.47060  0.08530  0.14124  Biso   1.000  C
  C9       1.0000 0.58370  0.89990  0.37268  Biso   1.000  C
  O1       1.0000 0.31788  0.19516  0.43240  Biso   1.000  O
  O2       1.0000 0.35450  0.30043  0.34731  Biso   1.000  O
  O3       1.0000 0.47010  0.17183  0.11897  Biso   1.000  O
  O4       1.0000 0.47321  0.00972  0.10483  Biso   1.000  O
  O5       1.0000 0.68100  0.86617  0.34414  Biso   1.000  O
  O6       1.0000 0.55058  0.86767  0.42758  Biso   1.000  O
  C10      1.0000 0.22090  0.76690  0.97319  Biso   1.000  C
  C11      1.0000 0.10550  0.81190  0.97071  Biso   1.000  C
  H4       1.0000 0.10220  0.87960  0.97940  Biso   1.000  H
  C12      1.0000 0.99230  0.75910  0.95544  Biso   1.000  C
  C13      1.0000 0.99770  0.65970  0.94158  Biso   1.000  C
  H5       1.0000 0.92210  0.62370  0.92960  Biso   1.000  H
  C14      1.0000 0.11370  0.61400  0.94532  Biso   1.000  C
  C15      1.0000 0.22450  0.66690  0.96119  Biso   1.000  C
  H6       1.0000 0.30360  0.63490  0.96390  Biso   1.000  H
  C16      1.0000 0.34470  0.81820  0.99093  Biso   1.000  C
  C17      1.0000 0.86910  0.80710  0.96075  Biso   1.000  C
  C18      1.0000 0.12090  0.50640  0.93342  Biso   1.000  C
  O7       1.0000 0.43681  0.76484  0.01428  Biso   1.000  O
  O8       1.0000 0.34687  0.90802  0.98147  Biso   1.000  O
  O9       1.0000 0.86810  0.89016  0.98774  Biso   1.000  O
  O10      1.0000 0.76999  0.75869  0.93853  Biso   1.000  O
  O11      1.0000 0.03820  0.45939  0.90137  Biso   1.000  O
  O12      1.0000 0.23160  0.47105  0.96491  Biso   1.000  O
  O13      1.0000 0.64169  0.89703  0.03023  Biso   1.000  O
  Ni2      1.0000 0.60200  0.76770  0.97589  Biso   1.000  Ni
  C19      1.0000 0.59050  0.63530  0.16684  Biso   1.000  C
  C20      1.0000 0.58370  0.64610  0.24018  Biso   1.000  C
  H7       1.0000 0.61460  0.70370  0.26420  Biso   1.000  H
  C21      1.0000 0.53240  0.57360  0.27853  Biso   1.000  C
  C22      1.0000 0.48150  0.49090  0.24253  Biso   1.000  C
  H8       1.0000 0.44590  0.44120  0.26830  Biso   1.000  H
  C23      1.0000 0.48300  0.48150  0.16881  Biso   1.000  C
  C24      1.0000 0.54240  0.55300  0.13178  Biso   1.000  C
  H9       1.0000 0.54920  0.54420  0.08220  Biso   1.000  H
  C25      1.0000 0.64420  0.71730  0.12702  Biso   1.000  C
  C26      1.0000 0.52940  0.58530  0.35876  Biso   1.000  C
  C27      1.0000 0.41630  0.39990  0.12732  Biso   1.000  C
  O14      1.0000 0.68212  0.69516  0.06760  Biso   1.000  O
  O15      1.0000 0.64550  0.80043  0.15269  Biso   1.000  O
  O16      1.0000 0.52990  0.67183  0.38103  Biso   1.000  O
  O17      1.0000 0.52679  0.50972  0.39517  Biso   1.000  O
  O18      1.0000 0.31900  0.36617  0.15586  Biso   1.000  O
  O19      1.0000 0.44942  0.36767  0.07242  Biso   1.000  O
  C28      1.0000 0.77910  0.26690  0.52681  Biso   1.000  C
  C29      1.0000 0.89450  0.31190  0.52929  Biso   1.000  C
  H10      1.0000 0.89780  0.37960  0.52060  Biso   1.000  H
  C30      1.0000 0.00770  0.25910  0.54456  Biso   1.000  C
  C31      1.0000 0.00230  0.15970  0.55842  Biso   1.000  C
  H11      1.0000 0.07790  0.12370  0.57040  Biso   1.000  H
  C32      1.0000 0.88630  0.11400  0.55468  Biso   1.000  C
  C33      1.0000 0.77550  0.16690  0.53881  Biso   1.000  C
  H12      1.0000 0.69640  0.13490  0.53610  Biso   1.000  H
  C34      1.0000 0.65530  0.31820  0.50907  Biso   1.000  C
  C35      1.0000 0.13090  0.30710  0.53925  Biso   1.000  C
  C36      1.0000 0.87910  0.00640  0.56658  Biso   1.000  C
  O20      1.0000 0.56319  0.26484  0.48572  Biso   1.000  O
  O21      1.0000 0.65313  0.40802  0.51853  Biso   1.000  O
  O22      1.0000 0.13190  0.39016  0.51226  Biso   1.000  O
  O23      1.0000 0.23001  0.25869  0.56147  Biso   1.000  O
  O24      1.0000 0.96180  0.95939  0.59863  Biso   1.000  O
  O25      1.0000 0.76840  0.97105  0.53509  Biso   1.000  O
  O26      1.0000 0.35831  0.39703  0.46977  Biso   1.000  O
  Ni3      1.0000 0.60200  0.73230  0.47589  Biso   1.000  Ni
  C37      1.0000 0.59050  0.86470  0.66684  Biso   1.000  C
  C38      1.0000 0.58370  0.85390  0.74018  Biso   1.000  C
  H13      1.0000 0.61460  0.79630  0.76420  Biso   1.000  H
  C39      1.0000 0.53240  0.92640  0.77853  Biso   1.000  C
  C40      1.0000 0.48150  0.00910  0.74253  Biso   1.000  C
  H14      1.0000 0.44590  0.05880  0.76830  Biso   1.000  H
  C41      1.0000 0.48300  0.01850  0.66881  Biso   1.000  C
  C42      1.0000 0.54240  0.94700  0.63178  Biso   1.000  C
  H15      1.0000 0.54920  0.95580  0.58220  Biso   1.000  H
  C43      1.0000 0.64420  0.78270  0.62702  Biso   1.000  C
  C44      1.0000 0.52940  0.91470  0.85876  Biso   1.000  C
  C45      1.0000 0.41630  0.10010  0.62732  Biso   1.000  C
  O27      1.0000 0.68212  0.80484  0.56760  Biso   1.000  O
  O28      1.0000 0.64550  0.69957  0.65269  Biso   1.000  O
  O29      1.0000 0.52990  0.82817  0.88103  Biso   1.000  O
  O30      1.0000 0.52679  0.99028  0.89517  Biso   1.000  O
  O31      1.0000 0.31900  0.13383  0.65586  Biso   1.000  O
  O32      1.0000 0.44942  0.13233  0.57242  Biso   1.000  O
  C46      1.0000 0.77910  0.23310  0.02681  Biso   1.000  C
  C47      1.0000 0.89450  0.18810  0.02929  Biso   1.000  C
  H16      1.0000 0.89780  0.12040  0.02060  Biso   1.000  H
  C48      1.0000 0.00770  0.24090  0.04456  Biso   1.000  C
  C49      1.0000 0.00230  0.34030  0.05842  Biso   1.000  C
  H17      1.0000 0.07790  0.37630  0.07040  Biso   1.000  H
  C50      1.0000 0.88630  0.38600  0.05468  Biso   1.000  C
  C51      1.0000 0.77550  0.33310  0.03881  Biso   1.000  C
  H18      1.0000 0.69640  0.36510  0.03610  Biso   1.000  H
  C52      1.0000 0.65530  0.18180  0.00907  Biso   1.000  C
  C53      1.0000 0.13090  0.19290  0.03925  Biso   1.000  C
  C54      1.0000 0.87910  0.49360  0.06658  Biso   1.000  C
  O33      1.0000 0.56319  0.23516  0.98572  Biso   1.000  O
  O34      1.0000 0.65313  0.09198  0.01853  Biso   1.000  O
  O35      1.0000 0.13190  0.10984  0.01226  Biso   1.000  O
  O36      1.0000 0.23001  0.24131  0.06147  Biso   1.000  O
  O37      1.0000 0.96180  0.54061  0.09863  Biso   1.000  O
  O38      1.0000 0.76840  0.52895  0.03509  Biso   1.000  O
  O39      1.0000 0.35831  0.10297  0.96977  Biso   1.000  O
  Ni4      1.0000 0.39800  0.23230  0.02411  Biso   1.000  Ni
  C55      1.0000 0.40950  0.36470  0.83316  Biso   1.000  C
  C56      1.0000 0.41630  0.35390  0.75982  Biso   1.000  C
  H19      1.0000 0.38540  0.29630  0.73580  Biso   1.000  H
  C57      1.0000 0.46760  0.42640  0.72147  Biso   1.000  C
  C58      1.0000 0.51850  0.50910  0.75747  Biso   1.000  C
  H20      1.0000 0.55410  0.55880  0.73170  Biso   1.000  H
  C59      1.0000 0.51700  0.51850  0.83119  Biso   1.000  C
  C60      1.0000 0.45760  0.44700  0.86822  Biso   1.000  C
  H21      1.0000 0.45080  0.45580  0.91780  Biso   1.000  H
  C61      1.0000 0.35580  0.28270  0.87298  Biso   1.000  C
  C62      1.0000 0.47060  0.41470  0.64124  Biso   1.000  C
  C63      1.0000 0.58370  0.60010  0.87268  Biso   1.000  C
  O40      1.0000 0.31788  0.30484  0.93240  Biso   1.000  O
  O41      1.0000 0.35450  0.19957  0.84731  Biso   1.000  O
  O42      1.0000 0.47010  0.32817  0.61897  Biso   1.000  O
  O43      1.0000 0.47321  0.49028  0.60483  Biso   1.000  O
  O44      1.0000 0.68100  0.63383  0.84414  Biso   1.000  O
  O45      1.0000 0.55058  0.63233  0.92758  Biso   1.000  O
  C64      1.0000 0.22090  0.73310  0.47319  Biso   1.000  C
  C65      1.0000 0.10550  0.68810  0.47071  Biso   1.000  C
  H22      1.0000 0.10220  0.62040  0.47940  Biso   1.000  H
  C66      1.0000 0.99230  0.74090  0.45544  Biso   1.000  C
  C67      1.0000 0.99770  0.84030  0.44158  Biso   1.000  C
  H23      1.0000 0.92210  0.87630  0.42960  Biso   1.000  H
  C68      1.0000 0.11370  0.88600  0.44532  Biso   1.000  C
  C69      1.0000 0.22450  0.83310  0.46119  Biso   1.000  C
  H24      1.0000 0.30360  0.86510  0.46390  Biso   1.000  H
  C70      1.0000 0.34470  0.68180  0.49093  Biso   1.000  C
  C71      1.0000 0.86910  0.69290  0.46075  Biso   1.000  C
  C72      1.0000 0.12090  0.99360  0.43342  Biso   1.000  C
  O46      1.0000 0.43681  0.73516  0.51428  Biso   1.000  O
  O47      1.0000 0.34687  0.59198  0.48147  Biso   1.000  O
  O48      1.0000 0.86810  0.60984  0.48774  Biso   1.000  O
  O49      1.0000 0.76999  0.74131  0.43853  Biso   1.000  O
  O50      1.0000 0.03820  0.04061  0.40137  Biso   1.000  O
  O51      1.0000 0.23160  0.02895  0.46491  Biso   1.000  O
  O52      1.0000 0.64169  0.60297  0.53023  Biso   1.000  O
  Ni5      1.0000 0.50000  0.00000  0.00000  Biso   1.000  Ni
  Ni6      1.0000 0.50000  0.50000  0.50000  Biso   1.000  Ni
