data_image0
_cell_length_a       14.1349
_cell_length_b       16.2961
_cell_length_c       16.524
_cell_angle_alpha    90
_cell_angle_beta     90
_cell_angle_gamma    90

_symmetry_space_group_name_H-M    "P 1"
_symmetry_int_tables_number       1

loop_
  _symmetry_equiv_pos_as_xyz
  'x, y, z'

loop_
  _atom_site_label
  _atom_site_occupancy
  _atom_site_fract_x
  _atom_site_fract_y
  _atom_site_fract_z
  _atom_site_thermal_displace_type
  _atom_site_B_iso_or_equiv
  _atom_site_type_symbol
  Ni1      1.0000 0.97272  0.67263  0.11398  Biso   1.000  Ni
  C1       1.0000 0.13894  0.49671  0.23520  Biso   1.000  C
  C2       1.0000 0.11333  0.41695  0.25374  Biso   1.000  C
  H1       1.0000 0.07000  0.38860  0.21980  Biso   1.000  H
  C3       1.0000 0.15028  0.37775  0.32145  Biso   1.000  C
  C4       1.0000 0.22011  0.41706  0.36651  Biso   1.000  C
  H2       1.0000 0.24580  0.39080  0.41290  Biso   1.000  H
  C5       1.0000 0.25244  0.49409  0.34428  Biso   1.000  C
  C6       1.0000 0.20818  0.53592  0.28068  Biso   1.000  C
  H3       1.0000 0.22540  0.59090  0.26870  Biso   1.000  H
  C7       1.0000 0.08987  0.53910  0.16545  Biso   1.000  C
  C8       1.0000 0.11163  0.29506  0.34502  Biso   1.000  C
  C9       1.0000 0.33821  0.53209  0.38431  Biso   1.000  C
  O1       1.0000 0.08198  0.61616  0.16901  Biso   1.000  O
  O2       1.0000 0.05962  0.49238  0.11133  Biso   1.000  O
  O3       1.0000 0.05129  0.26097  0.29906  Biso   1.000  O
  O4       1.0000 0.13573  0.26241  0.41087  Biso   1.000  O
  O5       1.0000 0.36667  0.49921  0.44907  Biso   1.000  O
  O6       1.0000 0.37515  0.59115  0.34715  Biso   1.000  O
  C10      1.0000 0.92299  0.30552  0.10718  Biso   1.000  C
  H4       1.0000 0.85390  0.30130  0.11000  Biso   1.000  H
  H5       1.0000 0.95150  0.25620  0.13070  Biso   1.000  H
  H6       1.0000 0.94390  0.35390  0.13750  Biso   1.000  H
  C11      1.0000 0.95300  0.31344  0.02050  Biso   1.000  C
  O7       1.0000 0.93346  0.25958  0.96925  Biso   1.000  O
  O8       1.0000 0.00589  0.37319  0.99895  Biso   1.000  O
  Ni2      1.0000 0.52728  0.32737  0.61398  Biso   1.000  Ni
  C12      1.0000 0.36106  0.50329  0.73520  Biso   1.000  C
  C13      1.0000 0.38667  0.58305  0.75374  Biso   1.000  C
  H7       1.0000 0.43000  0.61140  0.71980  Biso   1.000  H
  C14      1.0000 0.34972  0.62225  0.82145  Biso   1.000  C
  C15      1.0000 0.27989  0.58294  0.86651  Biso   1.000  C
  H8       1.0000 0.25420  0.60920  0.91290  Biso   1.000  H
  C16      1.0000 0.24756  0.50591  0.84428  Biso   1.000  C
  C17      1.0000 0.29182  0.46408  0.78068  Biso   1.000  C
  H9       1.0000 0.27460  0.40910  0.76870  Biso   1.000  H
  C18      1.0000 0.41013  0.46090  0.66545  Biso   1.000  C
  C19      1.0000 0.38837  0.70494  0.84502  Biso   1.000  C
  C20      1.0000 0.16179  0.46791  0.88431  Biso   1.000  C
  O9       1.0000 0.41802  0.38384  0.66901  Biso   1.000  O
  O10      1.0000 0.44038  0.50762  0.61133  Biso   1.000  O
  O11      1.0000 0.44871  0.73903  0.79906  Biso   1.000  O
  O12      1.0000 0.36427  0.73759  0.91087  Biso   1.000  O
  O13      1.0000 0.13333  0.50079  0.94907  Biso   1.000  O
  O14      1.0000 0.12485  0.40885  0.84715  Biso   1.000  O
  C21      1.0000 0.57701  0.69448  0.60718  Biso   1.000  C
  H10      1.0000 0.64610  0.69870  0.61000  Biso   1.000  H
  H11      1.0000 0.54850  0.74380  0.63070  Biso   1.000  H
  H12      1.0000 0.55610  0.64610  0.63750  Biso   1.000  H
  C22      1.0000 0.54700  0.68656  0.52050  Biso   1.000  C
  O15      1.0000 0.56654  0.74042  0.46925  Biso   1.000  O
  O16      1.0000 0.49411  0.62681  0.49895  Biso   1.000  O
  Ni3      1.0000 0.02728  0.17263  0.38602  Biso   1.000  Ni
  C23      1.0000 0.86106  0.99671  0.26480  Biso   1.000  C
  C24      1.0000 0.88667  0.91695  0.24626  Biso   1.000  C
  H13      1.0000 0.93000  0.88860  0.28020  Biso   1.000  H
  C25      1.0000 0.84972  0.87775  0.17855  Biso   1.000  C
  C26      1.0000 0.77989  0.91706  0.13349  Biso   1.000  C
  H14      1.0000 0.75420  0.89080  0.08710  Biso   1.000  H
  C27      1.0000 0.74756  0.99409  0.15572  Biso   1.000  C
  C28      1.0000 0.79182  0.03592  0.21932  Biso   1.000  C
  H15      1.0000 0.77460  0.09090  0.23130  Biso   1.000  H
  C29      1.0000 0.91013  0.03910  0.33455  Biso   1.000  C
  C30      1.0000 0.88837  0.79506  0.15498  Biso   1.000  C
  C31      1.0000 0.66179  0.03209  0.11569  Biso   1.000  C
  O17      1.0000 0.91802  0.11616  0.33099  Biso   1.000  O
  O18      1.0000 0.94038  0.99238  0.38867  Biso   1.000  O
  O19      1.0000 0.94871  0.76097  0.20094  Biso   1.000  O
  O20      1.0000 0.86427  0.76241  0.08913  Biso   1.000  O
  O21      1.0000 0.63333  0.99921  0.05093  Biso   1.000  O
  O22      1.0000 0.62485  0.09115  0.15285  Biso   1.000  O
  C32      1.0000 0.07701  0.80552  0.39282  Biso   1.000  C
  H16      1.0000 0.14610  0.80130  0.39000  Biso   1.000  H
  H17      1.0000 0.04850  0.75620  0.36930  Biso   1.000  H
  H18      1.0000 0.05610  0.85390  0.36250  Biso   1.000  H
  C33      1.0000 0.04700  0.81344  0.47950  Biso   1.000  C
  O23      1.0000 0.06654  0.75958  0.53075  Biso   1.000  O
  O24      1.0000 0.99411  0.87319  0.50105  Biso   1.000  O
  Ni4      1.0000 0.47272  0.82737  0.88602  Biso   1.000  Ni
  C34      1.0000 0.63894  0.00329  0.76480  Biso   1.000  C
  C35      1.0000 0.61333  0.08305  0.74626  Biso   1.000  C
  H19      1.0000 0.57000  0.11140  0.78020  Biso   1.000  H
  C36      1.0000 0.65028  0.12225  0.67855  Biso   1.000  C
  C37      1.0000 0.72011  0.08294  0.63349  Biso   1.000  C
  H20      1.0000 0.74580  0.10920  0.58710  Biso   1.000  H
  C38      1.0000 0.75244  0.00591  0.65572  Biso   1.000  C
  C39      1.0000 0.70818  0.96408  0.71932  Biso   1.000  C
  H21      1.0000 0.72540  0.90910  0.73130  Biso   1.000  H
  C40      1.0000 0.58987  0.96090  0.83455  Biso   1.000  C
  C41      1.0000 0.61163  0.20494  0.65498  Biso   1.000  C
  C42      1.0000 0.83821  0.96791  0.61569  Biso   1.000  C
  O25      1.0000 0.58198  0.88384  0.83099  Biso   1.000  O
  O26      1.0000 0.55962  0.00762  0.88867  Biso   1.000  O
  O27      1.0000 0.55129  0.23903  0.70094  Biso   1.000  O
  O28      1.0000 0.63573  0.23759  0.58913  Biso   1.000  O
  O29      1.0000 0.86667  0.00079  0.55093  Biso   1.000  O
  O30      1.0000 0.87515  0.90885  0.65285  Biso   1.000  O
  C43      1.0000 0.42299  0.19448  0.89282  Biso   1.000  C
  H22      1.0000 0.35390  0.19870  0.89000  Biso   1.000  H
  H23      1.0000 0.45150  0.24380  0.86930  Biso   1.000  H
  H24      1.0000 0.44390  0.14610  0.86250  Biso   1.000  H
  C44      1.0000 0.45300  0.18656  0.97950  Biso   1.000  C
  O31      1.0000 0.43346  0.24042  0.03075  Biso   1.000  O
  O32      1.0000 0.50589  0.12681  0.00105  Biso   1.000  O
  Ni5      1.0000 0.02728  0.32737  0.88602  Biso   1.000  Ni
  C45      1.0000 0.86106  0.50329  0.76480  Biso   1.000  C
  C46      1.0000 0.88667  0.58305  0.74626  Biso   1.000  C
  H25      1.0000 0.93000  0.61140  0.78020  Biso   1.000  H
  C47      1.0000 0.84972  0.62225  0.67855  Biso   1.000  C
  C48      1.0000 0.77989  0.58294  0.63349  Biso   1.000  C
  H26      1.0000 0.75420  0.60920  0.58710  Biso   1.000  H
  C49      1.0000 0.74756  0.50591  0.65572  Biso   1.000  C
  C50      1.0000 0.79182  0.46408  0.71932  Biso   1.000  C
  H27      1.0000 0.77460  0.40910  0.73130  Biso   1.000  H
  C51      1.0000 0.91013  0.46090  0.83455  Biso   1.000  C
  C52      1.0000 0.88837  0.70494  0.65498  Biso   1.000  C
  C53      1.0000 0.66179  0.46791  0.61569  Biso   1.000  C
  O33      1.0000 0.91802  0.38384  0.83099  Biso   1.000  O
  O34      1.0000 0.94038  0.50762  0.88867  Biso   1.000  O
  O35      1.0000 0.94871  0.73903  0.70094  Biso   1.000  O
  O36      1.0000 0.86427  0.73759  0.58913  Biso   1.000  O
  O37      1.0000 0.63333  0.50079  0.55093  Biso   1.000  O
  O38      1.0000 0.62485  0.40885  0.65285  Biso   1.000  O
  C54      1.0000 0.07701  0.69448  0.89282  Biso   1.000  C
  H28      1.0000 0.14610  0.69870  0.89000  Biso   1.000  H
  H29      1.0000 0.04850  0.74380  0.86930  Biso   1.000  H
  H30      1.0000 0.05610  0.64610  0.86250  Biso   1.000  H
  C55      1.0000 0.04700  0.68656  0.97950  Biso   1.000  C
  O39      1.0000 0.06654  0.74042  0.03075  Biso   1.000  O
  O40      1.0000 0.99411  0.62681  0.00105  Biso   1.000  O
  Ni6      1.0000 0.47272  0.67263  0.38602  Biso   1.000  Ni
  C56      1.0000 0.63894  0.49671  0.26480  Biso   1.000  C
  C57      1.0000 0.61333  0.41695  0.24626  Biso   1.000  C
  H31      1.0000 0.57000  0.38860  0.28020  Biso   1.000  H
  C58      1.0000 0.65028  0.37775  0.17855  Biso   1.000  C
  C59      1.0000 0.72011  0.41706  0.13349  Biso   1.000  C
  H32      1.0000 0.74580  0.39080  0.08710  Biso   1.000  H
  C60      1.0000 0.75244  0.49409  0.15572  Biso   1.000  C
  C61      1.0000 0.70818  0.53592  0.21932  Biso   1.000  C
  H33      1.0000 0.72540  0.59090  0.23130  Biso   1.000  H
  C62      1.0000 0.58987  0.53910  0.33455  Biso   1.000  C
  C63      1.0000 0.61163  0.29506  0.15498  Biso   1.000  C
  C64      1.0000 0.83821  0.53209  0.11569  Biso   1.000  C
  O41      1.0000 0.58198  0.61616  0.33099  Biso   1.000  O
  O42      1.0000 0.55962  0.49238  0.38867  Biso   1.000  O
  O43      1.0000 0.55129  0.26097  0.20094  Biso   1.000  O
  O44      1.0000 0.63573  0.26241  0.08913  Biso   1.000  O
  O45      1.0000 0.86667  0.49921  0.05093  Biso   1.000  O
  O46      1.0000 0.87515  0.59115  0.15285  Biso   1.000  O
  C65      1.0000 0.42299  0.30552  0.39282  Biso   1.000  C
  H34      1.0000 0.35390  0.30130  0.39000  Biso   1.000  H
  H35      1.0000 0.45150  0.25620  0.36930  Biso   1.000  H
  H36      1.0000 0.44390  0.35390  0.36250  Biso   1.000  H
  C66      1.0000 0.45300  0.31344  0.47950  Biso   1.000  C
  O47      1.0000 0.43346  0.25958  0.53075  Biso   1.000  O
  O48      1.0000 0.50589  0.37319  0.50105  Biso   1.000  O
  Ni7      1.0000 0.97272  0.82737  0.61398  Biso   1.000  Ni
  C67      1.0000 0.13894  0.00329  0.73520  Biso   1.000  C
  C68      1.0000 0.11333  0.08305  0.75374  Biso   1.000  C
  H37      1.0000 0.07000  0.11140  0.71980  Biso   1.000  H
  C69      1.0000 0.15028  0.12225  0.82145  Biso   1.000  C
  C70      1.0000 0.22011  0.08294  0.86651  Biso   1.000  C
  H38      1.0000 0.24580  0.10920  0.91290  Biso   1.000  H
  C71      1.0000 0.25244  0.00591  0.84428  Biso   1.000  C
  C72      1.0000 0.20818  0.96408  0.78068  Biso   1.000  C
  H39      1.0000 0.22540  0.90910  0.76870  Biso   1.000  H
  C73      1.0000 0.08987  0.96090  0.66545  Biso   1.000  C
  C74      1.0000 0.11163  0.20494  0.84502  Biso   1.000  C
  C75      1.0000 0.33821  0.96791  0.88431  Biso   1.000  C
  O49      1.0000 0.08198  0.88384  0.66901  Biso   1.000  O
  O50      1.0000 0.05962  0.00762  0.61133  Biso   1.000  O
  O51      1.0000 0.05129  0.23903  0.79906  Biso   1.000  O
  O52      1.0000 0.13573  0.23759  0.91087  Biso   1.000  O
  O53      1.0000 0.36667  0.00079  0.94907  Biso   1.000  O
  O54      1.0000 0.37515  0.90885  0.84715  Biso   1.000  O
  C76      1.0000 0.92299  0.19448  0.60718  Biso   1.000  C
  H40      1.0000 0.85390  0.19870  0.61000  Biso   1.000  H
  H41      1.0000 0.95150  0.24380  0.63070  Biso   1.000  H
  H42      1.0000 0.94390  0.14610  0.63750  Biso   1.000  H
  C77      1.0000 0.95300  0.18656  0.52050  Biso   1.000  C
  O55      1.0000 0.93346  0.24042  0.46925  Biso   1.000  O
  O56      1.0000 0.00589  0.12681  0.49895  Biso   1.000  O
  Ni8      1.0000 0.52728  0.17263  0.11398  Biso   1.000  Ni
  C78      1.0000 0.36106  0.99671  0.23520  Biso   1.000  C
  C79      1.0000 0.38667  0.91695  0.25374  Biso   1.000  C
  H43      1.0000 0.43000  0.88860  0.21980  Biso   1.000  H
  C80      1.0000 0.34972  0.87775  0.32145  Biso   1.000  C
  C81      1.0000 0.27989  0.91706  0.36651  Biso   1.000  C
  H44      1.0000 0.25420  0.89080  0.41290  Biso   1.000  H
  C82      1.0000 0.24756  0.99409  0.34428  Biso   1.000  C
  C83      1.0000 0.29182  0.03592  0.28068  Biso   1.000  C
  H45      1.0000 0.27460  0.09090  0.26870  Biso   1.000  H
  C84      1.0000 0.41013  0.03910  0.16545  Biso   1.000  C
  C85      1.0000 0.38837  0.79506  0.34502  Biso   1.000  C
  C86      1.0000 0.16179  0.03209  0.38431  Biso   1.000  C
  O57      1.0000 0.41802  0.11616  0.16901  Biso   1.000  O
  O58      1.0000 0.44038  0.99238  0.11133  Biso   1.000  O
  O59      1.0000 0.44871  0.76097  0.29906  Biso   1.000  O
  O60      1.0000 0.36427  0.76241  0.41087  Biso   1.000  O
  O61      1.0000 0.13333  0.99921  0.44907  Biso   1.000  O
  O62      1.0000 0.12485  0.09115  0.34715  Biso   1.000  O
  C87      1.0000 0.57701  0.80552  0.10718  Biso   1.000  C
  H46      1.0000 0.64610  0.80130  0.11000  Biso   1.000  H
  H47      1.0000 0.54850  0.75620  0.13070  Biso   1.000  H
  H48      1.0000 0.55610  0.85390  0.13750  Biso   1.000  H
  C88      1.0000 0.54700  0.81344  0.02050  Biso   1.000  C
  O63      1.0000 0.56654  0.75958  0.96925  Biso   1.000  O
  O64      1.0000 0.49411  0.87319  0.99895  Biso   1.000  O
  Ni9      1.0000 0.00000  0.50000  0.00000  Biso   1.000  Ni
  Ni10     1.0000 0.50000  0.50000  0.50000  Biso   1.000  Ni
  Ni11     1.0000 0.00000  0.00000  0.50000  Biso   1.000  Ni
  Ni12     1.0000 0.50000  0.00000  0.00000  Biso   1.000  Ni
