data_image0
_cell_length_a       15.283
_cell_length_b       24.9021
_cell_length_c       10.6168
_cell_angle_alpha    90
_cell_angle_beta     90
_cell_angle_gamma    90

_symmetry_space_group_name_H-M    "P 1"
_symmetry_int_tables_number       1

loop_
  _symmetry_equiv_pos_as_xyz
  'x, y, z'

loop_
  _atom_site_label
  _atom_site_occupancy
  _atom_site_fract_x
  _atom_site_fract_y
  _atom_site_fract_z
  _atom_site_thermal_displace_type
  _atom_site_B_iso_or_equiv
  _atom_site_type_symbol
  O1       1.0000 0.64453  0.72684  0.60347  Biso   1.000  O
  O2       1.0000 0.30426  0.84160  0.39620  Biso   1.000  O
  O3       1.0000 0.63612  0.61959  0.28668  Biso   1.000  O
  O4       1.0000 0.41379  0.62681  0.29060  Biso   1.000  O
  O5       1.0000 0.27598  0.50488  0.28880  Biso   1.000  O
  N1       1.0000 0.72873  0.62403  0.11510  Biso   1.000  N
  N2       1.0000 0.60933  0.67462  0.11550  Biso   1.000  N
  N3       1.0000 0.45101  0.67747  0.11520  Biso   1.000  N
  N4       1.0000 0.32584  0.63241  0.11450  Biso   1.000  N
  N5       1.0000 0.23320  0.55360  0.11510  Biso   1.000  N
  N6       1.0000 0.20930  0.46587  0.11560  Biso   1.000  N
  H1       1.0000 0.47070  0.77800  0.57570  Biso   1.000  H
  C1       1.0000 0.47240  0.88547  0.61850  Biso   1.000  C
  H2       1.0000 0.44300  0.92090  0.62040  Biso   1.000  H
  H3       1.0000 0.45490  0.86530  0.69480  Biso   1.000  H
  C2       1.0000 0.57203  0.89338  0.61800  Biso   1.000  C
  H4       1.0000 0.59000  0.91360  0.69510  Biso   1.000  H
  C3       1.0000 0.61630  0.83784  0.61750  Biso   1.000  C
  H5       1.0000 0.68070  0.84230  0.61880  Biso   1.000  H
  H6       1.0000 0.59900  0.81770  0.69390  Biso   1.000  H
  C4       1.0000 0.65653  0.63788  0.18160  Biso   1.000  C
  C5       1.0000 0.53120  0.70062  0.16340  Biso   1.000  C
  H7       1.0000 0.53100  0.69810  0.25640  Biso   1.000  H
  H8       1.0000 0.53300  0.73920  0.14060  Biso   1.000  H
  C6       1.0000 0.39838  0.64392  0.18440  Biso   1.000  C
  C7       1.0000 0.25009  0.60630  0.16740  Biso   1.000  C
  H9       1.0000 0.19820  0.62930  0.15300  Biso   1.000  H
  H10      1.0000 0.25830  0.60290  0.25950  Biso   1.000  H
  C8       1.0000 0.24360  0.50755  0.18370  Biso   1.000  C
  C9       1.0000 0.20348  0.41128  0.16250  Biso   1.000  C
  H11      1.0000 0.20680  0.41200  0.25560  Biso   1.000  H
  H12      1.0000 0.14570  0.39630  0.13910  Biso   1.000  H
  O6       1.0000 0.35547  0.27316  0.60347  Biso   1.000  O
  O7       1.0000 0.69574  0.15840  0.39620  Biso   1.000  O
  O8       1.0000 0.36388  0.38041  0.28668  Biso   1.000  O
  O9       1.0000 0.58621  0.37319  0.29060  Biso   1.000  O
  O10      1.0000 0.72402  0.49512  0.28880  Biso   1.000  O
  N7       1.0000 0.27127  0.37597  0.11510  Biso   1.000  N
  N8       1.0000 0.39067  0.32538  0.11550  Biso   1.000  N
  N9       1.0000 0.54899  0.32253  0.11520  Biso   1.000  N
  N10      1.0000 0.67416  0.36759  0.11450  Biso   1.000  N
  N11      1.0000 0.76680  0.44640  0.11510  Biso   1.000  N
  N12      1.0000 0.79070  0.53413  0.11560  Biso   1.000  N
  H13      1.0000 0.52930  0.22200  0.57570  Biso   1.000  H
  C10      1.0000 0.52760  0.11453  0.61850  Biso   1.000  C
  H14      1.0000 0.55700  0.07910  0.62040  Biso   1.000  H
  H15      1.0000 0.54510  0.13470  0.69480  Biso   1.000  H
  C11      1.0000 0.42797  0.10662  0.61800  Biso   1.000  C
  H16      1.0000 0.41000  0.08640  0.69510  Biso   1.000  H
  C12      1.0000 0.38370  0.16216  0.61750  Biso   1.000  C
  H17      1.0000 0.31930  0.15770  0.61880  Biso   1.000  H
  H18      1.0000 0.40100  0.18230  0.69390  Biso   1.000  H
  C13      1.0000 0.34347  0.36212  0.18160  Biso   1.000  C
  C14      1.0000 0.46880  0.29938  0.16340  Biso   1.000  C
  H19      1.0000 0.46900  0.30190  0.25640  Biso   1.000  H
  H20      1.0000 0.46700  0.26080  0.14060  Biso   1.000  H
  C15      1.0000 0.60162  0.35608  0.18440  Biso   1.000  C
  C16      1.0000 0.74991  0.39370  0.16740  Biso   1.000  C
  H21      1.0000 0.80180  0.37070  0.15300  Biso   1.000  H
  H22      1.0000 0.74170  0.39710  0.25950  Biso   1.000  H
  C17      1.0000 0.75640  0.49245  0.18370  Biso   1.000  C
  C18      1.0000 0.79652  0.58872  0.16250  Biso   1.000  C
  H23      1.0000 0.79320  0.58800  0.25560  Biso   1.000  H
  H24      1.0000 0.85430  0.60370  0.13910  Biso   1.000  H
  O11      1.0000 0.85547  0.22684  0.39653  Biso   1.000  O
  O12      1.0000 0.19574  0.34160  0.60380  Biso   1.000  O
  O13      1.0000 0.86388  0.11959  0.71332  Biso   1.000  O
  O14      1.0000 0.08621  0.12681  0.70940  Biso   1.000  O
  O15      1.0000 0.22402  0.00488  0.71120  Biso   1.000  O
  N13      1.0000 0.77127  0.12403  0.88490  Biso   1.000  N
  N14      1.0000 0.89067  0.17462  0.88450  Biso   1.000  N
  N15      1.0000 0.04899  0.17747  0.88480  Biso   1.000  N
  N16      1.0000 0.17416  0.13241  0.88550  Biso   1.000  N
  N17      1.0000 0.26680  0.05360  0.88490  Biso   1.000  N
  N18      1.0000 0.29070  0.96587  0.88440  Biso   1.000  N
  H25      1.0000 0.02930  0.27800  0.42430  Biso   1.000  H
  C19      1.0000 0.02760  0.38547  0.38150  Biso   1.000  C
  H26      1.0000 0.05700  0.42090  0.37960  Biso   1.000  H
  H27      1.0000 0.04510  0.36530  0.30520  Biso   1.000  H
  C20      1.0000 0.92797  0.39338  0.38200  Biso   1.000  C
  H28      1.0000 0.91000  0.41360  0.30490  Biso   1.000  H
  C21      1.0000 0.88370  0.33784  0.38250  Biso   1.000  C
  H29      1.0000 0.81930  0.34230  0.38120  Biso   1.000  H
  H30      1.0000 0.90100  0.31770  0.30610  Biso   1.000  H
  C22      1.0000 0.84347  0.13788  0.81840  Biso   1.000  C
  C23      1.0000 0.96880  0.20062  0.83660  Biso   1.000  C
  H31      1.0000 0.96900  0.19810  0.74360  Biso   1.000  H
  H32      1.0000 0.96700  0.23920  0.85940  Biso   1.000  H
  C24      1.0000 0.10162  0.14392  0.81560  Biso   1.000  C
  C25      1.0000 0.24991  0.10630  0.83260  Biso   1.000  C
  H33      1.0000 0.30180  0.12930  0.84700  Biso   1.000  H
  H34      1.0000 0.24170  0.10290  0.74050  Biso   1.000  H
  C26      1.0000 0.25640  0.00755  0.81630  Biso   1.000  C
  C27      1.0000 0.29652  0.91128  0.83750  Biso   1.000  C
  H35      1.0000 0.29320  0.91200  0.74440  Biso   1.000  H
  H36      1.0000 0.35430  0.89630  0.86090  Biso   1.000  H
  O16      1.0000 0.14453  0.77316  0.39653  Biso   1.000  O
  O17      1.0000 0.80426  0.65840  0.60380  Biso   1.000  O
  O18      1.0000 0.13612  0.88041  0.71332  Biso   1.000  O
  O19      1.0000 0.91379  0.87319  0.70940  Biso   1.000  O
  O20      1.0000 0.77598  0.99512  0.71120  Biso   1.000  O
  N19      1.0000 0.22873  0.87597  0.88490  Biso   1.000  N
  N20      1.0000 0.10933  0.82538  0.88450  Biso   1.000  N
  N21      1.0000 0.95101  0.82253  0.88480  Biso   1.000  N
  N22      1.0000 0.82584  0.86759  0.88550  Biso   1.000  N
  N23      1.0000 0.73320  0.94640  0.88490  Biso   1.000  N
  N24      1.0000 0.70930  0.03413  0.88440  Biso   1.000  N
  H37      1.0000 0.97070  0.72200  0.42430  Biso   1.000  H
  C28      1.0000 0.97240  0.61453  0.38150  Biso   1.000  C
  H38      1.0000 0.94300  0.57910  0.37960  Biso   1.000  H
  H39      1.0000 0.95490  0.63470  0.30520  Biso   1.000  H
  C29      1.0000 0.07203  0.60662  0.38200  Biso   1.000  C
  H40      1.0000 0.09000  0.58640  0.30490  Biso   1.000  H
  C30      1.0000 0.11630  0.66216  0.38250  Biso   1.000  C
  H41      1.0000 0.18070  0.65770  0.38120  Biso   1.000  H
  H42      1.0000 0.09900  0.68230  0.30610  Biso   1.000  H
  C31      1.0000 0.15653  0.86212  0.81840  Biso   1.000  C
  C32      1.0000 0.03120  0.79938  0.83660  Biso   1.000  C
  H43      1.0000 0.03100  0.80190  0.74360  Biso   1.000  H
  H44      1.0000 0.03300  0.76080  0.85940  Biso   1.000  H
  C33      1.0000 0.89838  0.85608  0.81560  Biso   1.000  C
  C34      1.0000 0.75009  0.89370  0.83260  Biso   1.000  C
  H45      1.0000 0.69820  0.87070  0.84700  Biso   1.000  H
  H46      1.0000 0.75830  0.89710  0.74050  Biso   1.000  H
  C35      1.0000 0.74360  0.99245  0.81630  Biso   1.000  C
  C36      1.0000 0.70348  0.08872  0.83750  Biso   1.000  C
  H47      1.0000 0.70680  0.08800  0.74440  Biso   1.000  H
  H48      1.0000 0.64570  0.10370  0.86090  Biso   1.000  H
  O21      1.0000 0.35547  0.27316  0.39653  Biso   1.000  O
  O22      1.0000 0.69574  0.15840  0.60380  Biso   1.000  O
  O23      1.0000 0.36388  0.38041  0.71332  Biso   1.000  O
  O24      1.0000 0.58621  0.37319  0.70940  Biso   1.000  O
  O25      1.0000 0.72402  0.49512  0.71120  Biso   1.000  O
  N25      1.0000 0.27127  0.37597  0.88490  Biso   1.000  N
  N26      1.0000 0.39067  0.32538  0.88450  Biso   1.000  N
  N27      1.0000 0.54899  0.32253  0.88480  Biso   1.000  N
  N28      1.0000 0.67416  0.36759  0.88550  Biso   1.000  N
  N29      1.0000 0.76680  0.44640  0.88490  Biso   1.000  N
  N30      1.0000 0.79070  0.53413  0.88440  Biso   1.000  N
  H49      1.0000 0.52930  0.22200  0.42430  Biso   1.000  H
  C37      1.0000 0.52760  0.11453  0.38150  Biso   1.000  C
  H50      1.0000 0.55700  0.07910  0.37960  Biso   1.000  H
  H51      1.0000 0.54510  0.13470  0.30520  Biso   1.000  H
  C38      1.0000 0.42797  0.10662  0.38200  Biso   1.000  C
  H52      1.0000 0.41000  0.08640  0.30490  Biso   1.000  H
  C39      1.0000 0.38370  0.16216  0.38250  Biso   1.000  C
  H53      1.0000 0.31930  0.15770  0.38120  Biso   1.000  H
  H54      1.0000 0.40100  0.18230  0.30610  Biso   1.000  H
  C40      1.0000 0.34347  0.36212  0.81840  Biso   1.000  C
  C41      1.0000 0.46880  0.29938  0.83660  Biso   1.000  C
  H55      1.0000 0.46900  0.30190  0.74360  Biso   1.000  H
  H56      1.0000 0.46700  0.26080  0.85940  Biso   1.000  H
  C42      1.0000 0.60162  0.35608  0.81560  Biso   1.000  C
  C43      1.0000 0.74991  0.39370  0.83260  Biso   1.000  C
  H57      1.0000 0.80180  0.37070  0.84700  Biso   1.000  H
  H58      1.0000 0.74170  0.39710  0.74050  Biso   1.000  H
  C44      1.0000 0.75640  0.49245  0.81630  Biso   1.000  C
  C45      1.0000 0.79652  0.58872  0.83750  Biso   1.000  C
  H59      1.0000 0.79320  0.58800  0.74440  Biso   1.000  H
  H60      1.0000 0.85430  0.60370  0.86090  Biso   1.000  H
  O26      1.0000 0.64453  0.72684  0.39653  Biso   1.000  O
  O27      1.0000 0.30426  0.84160  0.60380  Biso   1.000  O
  O28      1.0000 0.63612  0.61959  0.71332  Biso   1.000  O
  O29      1.0000 0.41379  0.62681  0.70940  Biso   1.000  O
  O30      1.0000 0.27598  0.50488  0.71120  Biso   1.000  O
  N31      1.0000 0.72873  0.62403  0.88490  Biso   1.000  N
  N32      1.0000 0.60933  0.67462  0.88450  Biso   1.000  N
  N33      1.0000 0.45101  0.67747  0.88480  Biso   1.000  N
  N34      1.0000 0.32584  0.63241  0.88550  Biso   1.000  N
  N35      1.0000 0.23320  0.55360  0.88490  Biso   1.000  N
  N36      1.0000 0.20930  0.46587  0.88440  Biso   1.000  N
  H61      1.0000 0.47070  0.77800  0.42430  Biso   1.000  H
  C46      1.0000 0.47240  0.88547  0.38150  Biso   1.000  C
  H62      1.0000 0.44300  0.92090  0.37960  Biso   1.000  H
  H63      1.0000 0.45490  0.86530  0.30520  Biso   1.000  H
  C47      1.0000 0.57203  0.89338  0.38200  Biso   1.000  C
  H64      1.0000 0.59000  0.91360  0.30490  Biso   1.000  H
  C48      1.0000 0.61630  0.83784  0.38250  Biso   1.000  C
  H65      1.0000 0.68070  0.84230  0.38120  Biso   1.000  H
  H66      1.0000 0.59900  0.81770  0.30610  Biso   1.000  H
  C49      1.0000 0.65653  0.63788  0.81840  Biso   1.000  C
  C50      1.0000 0.53120  0.70062  0.83660  Biso   1.000  C
  H67      1.0000 0.53100  0.69810  0.74360  Biso   1.000  H
  H68      1.0000 0.53300  0.73920  0.85940  Biso   1.000  H
  C51      1.0000 0.39838  0.64392  0.81560  Biso   1.000  C
  C52      1.0000 0.25009  0.60630  0.83260  Biso   1.000  C
  H69      1.0000 0.19820  0.62930  0.84700  Biso   1.000  H
  H70      1.0000 0.25830  0.60290  0.74050  Biso   1.000  H
  C53      1.0000 0.24360  0.50755  0.81630  Biso   1.000  C
  C54      1.0000 0.20348  0.41128  0.83750  Biso   1.000  C
  H71      1.0000 0.20680  0.41200  0.74440  Biso   1.000  H
  H72      1.0000 0.14570  0.39630  0.86090  Biso   1.000  H
  O31      1.0000 0.14453  0.77316  0.60347  Biso   1.000  O
  O32      1.0000 0.80426  0.65840  0.39620  Biso   1.000  O
  O33      1.0000 0.13612  0.88041  0.28668  Biso   1.000  O
  O34      1.0000 0.91379  0.87319  0.29060  Biso   1.000  O
  O35      1.0000 0.77598  0.99512  0.28880  Biso   1.000  O
  N37      1.0000 0.22873  0.87597  0.11510  Biso   1.000  N
  N38      1.0000 0.10933  0.82538  0.11550  Biso   1.000  N
  N39      1.0000 0.95101  0.82253  0.11520  Biso   1.000  N
  N40      1.0000 0.82584  0.86759  0.11450  Biso   1.000  N
  N41      1.0000 0.73320  0.94640  0.11510  Biso   1.000  N
  N42      1.0000 0.70930  0.03413  0.11560  Biso   1.000  N
  H73      1.0000 0.97070  0.72200  0.57570  Biso   1.000  H
  C55      1.0000 0.97240  0.61453  0.61850  Biso   1.000  C
  H74      1.0000 0.94300  0.57910  0.62040  Biso   1.000  H
  H75      1.0000 0.95490  0.63470  0.69480  Biso   1.000  H
  C56      1.0000 0.07203  0.60662  0.61800  Biso   1.000  C
  H76      1.0000 0.09000  0.58640  0.69510  Biso   1.000  H
  C57      1.0000 0.11630  0.66216  0.61750  Biso   1.000  C
  H77      1.0000 0.18070  0.65770  0.61880  Biso   1.000  H
  H78      1.0000 0.09900  0.68230  0.69390  Biso   1.000  H
  C58      1.0000 0.15653  0.86212  0.18160  Biso   1.000  C
  C59      1.0000 0.03120  0.79938  0.16340  Biso   1.000  C
  H79      1.0000 0.03100  0.80190  0.25640  Biso   1.000  H
  H80      1.0000 0.03300  0.76080  0.14060  Biso   1.000  H
  C60      1.0000 0.89838  0.85608  0.18440  Biso   1.000  C
  C61      1.0000 0.75009  0.89370  0.16740  Biso   1.000  C
  H81      1.0000 0.69820  0.87070  0.15300  Biso   1.000  H
  H82      1.0000 0.75830  0.89710  0.25950  Biso   1.000  H
  C62      1.0000 0.74360  0.99245  0.18370  Biso   1.000  C
  C63      1.0000 0.70348  0.08872  0.16250  Biso   1.000  C
  H83      1.0000 0.70680  0.08800  0.25560  Biso   1.000  H
  H84      1.0000 0.64570  0.10370  0.13910  Biso   1.000  H
  O36      1.0000 0.85547  0.22684  0.60347  Biso   1.000  O
  O37      1.0000 0.19574  0.34160  0.39620  Biso   1.000  O
  O38      1.0000 0.86388  0.11959  0.28668  Biso   1.000  O
  O39      1.0000 0.08621  0.12681  0.29060  Biso   1.000  O
  O40      1.0000 0.22402  0.00488  0.28880  Biso   1.000  O
  N43      1.0000 0.77127  0.12403  0.11510  Biso   1.000  N
  N44      1.0000 0.89067  0.17462  0.11550  Biso   1.000  N
  N45      1.0000 0.04899  0.17747  0.11520  Biso   1.000  N
  N46      1.0000 0.17416  0.13241  0.11450  Biso   1.000  N
  N47      1.0000 0.26680  0.05360  0.11510  Biso   1.000  N
  N48      1.0000 0.29070  0.96587  0.11560  Biso   1.000  N
  H85      1.0000 0.02930  0.27800  0.57570  Biso   1.000  H
  C64      1.0000 0.02760  0.38547  0.61850  Biso   1.000  C
  H86      1.0000 0.05700  0.42090  0.62040  Biso   1.000  H
  H87      1.0000 0.04510  0.36530  0.69480  Biso   1.000  H
  C65      1.0000 0.92797  0.39338  0.61800  Biso   1.000  C
  H88      1.0000 0.91000  0.41360  0.69510  Biso   1.000  H
  C66      1.0000 0.88370  0.33784  0.61750  Biso   1.000  C
  H89      1.0000 0.81930  0.34230  0.61880  Biso   1.000  H
  H90      1.0000 0.90100  0.31770  0.69390  Biso   1.000  H
  C67      1.0000 0.84347  0.13788  0.18160  Biso   1.000  C
  C68      1.0000 0.96880  0.20062  0.16340  Biso   1.000  C
  H91      1.0000 0.96900  0.19810  0.25640  Biso   1.000  H
  H92      1.0000 0.96700  0.23920  0.14060  Biso   1.000  H
  C69      1.0000 0.10162  0.14392  0.18440  Biso   1.000  C
  C70      1.0000 0.24991  0.10630  0.16740  Biso   1.000  C
  H93      1.0000 0.30180  0.12930  0.15300  Biso   1.000  H
  H94      1.0000 0.24170  0.10290  0.25950  Biso   1.000  H
  C71      1.0000 0.25640  0.00755  0.18370  Biso   1.000  C
  C72      1.0000 0.29652  0.91128  0.16250  Biso   1.000  C
  H95      1.0000 0.29320  0.91200  0.25560  Biso   1.000  H
  H96      1.0000 0.35430  0.89630  0.13910  Biso   1.000  H
  Tb1      1.0000 0.66358  0.63971  0.50000  Biso   1.000  Tb
  C73      1.0000 0.58950  0.80626  0.50000  Biso   1.000  C
  C74      1.0000 0.48860  0.79854  0.50000  Biso   1.000  C
  C75      1.0000 0.44390  0.85435  0.50000  Biso   1.000  C
  C76      1.0000 0.60030  0.92451  0.50000  Biso   1.000  C
  H97      1.0000 0.57300  0.96060  0.50000  Biso   1.000  H
  H98      1.0000 0.66470  0.92920  0.50000  Biso   1.000  H
  C77      1.0000 0.62980  0.75041  0.50000  Biso   1.000  C
  C78      1.0000 0.34530  0.84526  0.50000  Biso   1.000  C
  Tb2      1.0000 0.33642  0.36029  0.50000  Biso   1.000  Tb
  C79      1.0000 0.41050  0.19374  0.50000  Biso   1.000  C
  C80      1.0000 0.51140  0.20146  0.50000  Biso   1.000  C
  C81      1.0000 0.55610  0.14565  0.50000  Biso   1.000  C
  C82      1.0000 0.39970  0.07549  0.50000  Biso   1.000  C
  H99      1.0000 0.42700  0.03940  0.50000  Biso   1.000  H
  H100     1.0000 0.33530  0.07080  0.50000  Biso   1.000  H
  C83      1.0000 0.37020  0.24959  0.50000  Biso   1.000  C
  C84      1.0000 0.65470  0.15474  0.50000  Biso   1.000  C
  Tb3      1.0000 0.83642  0.13971  0.50000  Biso   1.000  Tb
  C85      1.0000 0.91050  0.30626  0.50000  Biso   1.000  C
  C86      1.0000 0.01140  0.29854  0.50000  Biso   1.000  C
  C87      1.0000 0.05610  0.35435  0.50000  Biso   1.000  C
  C88      1.0000 0.89970  0.42451  0.50000  Biso   1.000  C
  H101     1.0000 0.92700  0.46060  0.50000  Biso   1.000  H
  H102     1.0000 0.83530  0.42920  0.50000  Biso   1.000  H
  C89      1.0000 0.87020  0.25041  0.50000  Biso   1.000  C
  C90      1.0000 0.15470  0.34526  0.50000  Biso   1.000  C
  Tb4      1.0000 0.16358  0.86029  0.50000  Biso   1.000  Tb
  C91      1.0000 0.08950  0.69374  0.50000  Biso   1.000  C
  C92      1.0000 0.98860  0.70146  0.50000  Biso   1.000  C
  C93      1.0000 0.94390  0.64565  0.50000  Biso   1.000  C
  C94      1.0000 0.10030  0.57549  0.50000  Biso   1.000  C
  H103     1.0000 0.07300  0.53940  0.50000  Biso   1.000  H
  H104     1.0000 0.16470  0.57080  0.50000  Biso   1.000  H
  C95      1.0000 0.12980  0.74959  0.50000  Biso   1.000  C
  C96      1.0000 0.84530  0.65474  0.50000  Biso   1.000  C
  C97      1.0000 0.73680  0.65512  0.00000  Biso   1.000  C
  H105     1.0000 0.79120  0.67750  0.00000  Biso   1.000  H
  C98      1.0000 0.65350  0.69037  0.00000  Biso   1.000  C
  H106     1.0000 0.66830  0.72950  0.00000  Biso   1.000  H
  C99      1.0000 0.40900  0.69517  0.00000  Biso   1.000  C
  H107     1.0000 0.39910  0.73490  0.00000  Biso   1.000  H
  C100     1.0000 0.32170  0.66380  0.00000  Biso   1.000  C
  H108     1.0000 0.27020  0.68860  0.00000  Biso   1.000  H
  C101     1.0000 0.18420  0.54523  0.00000  Biso   1.000  C
  H109     1.0000 0.12820  0.56600  0.00000  Biso   1.000  H
  C102     1.0000 0.16710  0.48362  0.00000  Biso   1.000  C
  H110     1.0000 0.10310  0.47520  0.00000  Biso   1.000  H
  C103     1.0000 0.26320  0.34488  0.00000  Biso   1.000  C
  H111     1.0000 0.20880  0.32250  0.00000  Biso   1.000  H
  C104     1.0000 0.34650  0.30963  0.00000  Biso   1.000  C
  H112     1.0000 0.33170  0.27050  0.00000  Biso   1.000  H
  C105     1.0000 0.59100  0.30483  0.00000  Biso   1.000  C
  H113     1.0000 0.60090  0.26510  0.00000  Biso   1.000  H
  C106     1.0000 0.67830  0.33620  0.00000  Biso   1.000  C
  H114     1.0000 0.72980  0.31140  0.00000  Biso   1.000  H
  C107     1.0000 0.81580  0.45477  0.00000  Biso   1.000  C
  H115     1.0000 0.87180  0.43400  0.00000  Biso   1.000  H
  C108     1.0000 0.83290  0.51638  0.00000  Biso   1.000  C
  H116     1.0000 0.89690  0.52480  0.00000  Biso   1.000  H
  C109     1.0000 0.76320  0.15512  0.00000  Biso   1.000  C
  H117     1.0000 0.70880  0.17750  0.00000  Biso   1.000  H
  C110     1.0000 0.84650  0.19037  0.00000  Biso   1.000  C
  H118     1.0000 0.83170  0.22950  0.00000  Biso   1.000  H
  C111     1.0000 0.09100  0.19517  0.00000  Biso   1.000  C
  H119     1.0000 0.10090  0.23490  0.00000  Biso   1.000  H
  C112     1.0000 0.17830  0.16380  0.00000  Biso   1.000  C
  H120     1.0000 0.22980  0.18860  0.00000  Biso   1.000  H
  C113     1.0000 0.31580  0.04523  0.00000  Biso   1.000  C
  H121     1.0000 0.37180  0.06600  0.00000  Biso   1.000  H
  C114     1.0000 0.33290  0.98362  0.00000  Biso   1.000  C
  H122     1.0000 0.39690  0.97520  0.00000  Biso   1.000  H
  C115     1.0000 0.23680  0.84488  0.00000  Biso   1.000  C
  H123     1.0000 0.29120  0.82250  0.00000  Biso   1.000  H
  C116     1.0000 0.15350  0.80963  0.00000  Biso   1.000  C
  H124     1.0000 0.16830  0.77050  0.00000  Biso   1.000  H
  C117     1.0000 0.90900  0.80483  0.00000  Biso   1.000  C
  H125     1.0000 0.89910  0.76510  0.00000  Biso   1.000  H
  C118     1.0000 0.82170  0.83620  0.00000  Biso   1.000  C
  H126     1.0000 0.77020  0.81140  0.00000  Biso   1.000  H
  C119     1.0000 0.68420  0.95477  0.00000  Biso   1.000  C
  H127     1.0000 0.62820  0.93400  0.00000  Biso   1.000  H
  C120     1.0000 0.66710  0.01638  0.00000  Biso   1.000  C
  H128     1.0000 0.60310  0.02480  0.00000  Biso   1.000  H
