data_image0
_cell_length_a       21.751
_cell_length_b       9.389
_cell_length_c       17.03
_cell_angle_alpha    90
_cell_angle_beta     109.965
_cell_angle_gamma    90

_symmetry_space_group_name_H-M    "P 1"
_symmetry_int_tables_number       1

loop_
  _symmetry_equiv_pos_as_xyz
  'x, y, z'

loop_
  _atom_site_label
  _atom_site_occupancy
  _atom_site_fract_x
  _atom_site_fract_y
  _atom_site_fract_z
  _atom_site_thermal_displace_type
  _atom_site_B_iso_or_equiv
  _atom_site_type_symbol
  C1       1.0000 0.41209  0.86860  0.26501  Biso   1.000  C
  C2       1.0000 0.36919  0.97173  0.28918  Biso   1.000  C
  C3       1.0000 0.38994  0.02610  0.36985  Biso   1.000  C
  H1       1.0000 0.42880  0.99480  0.40930  Biso   1.000  H
  C4       1.0000 0.35158  0.12820  0.39087  Biso   1.000  C
  C5       1.0000 0.29297  0.17090  0.33289  Biso   1.000  C
  H2       1.0000 0.26750  0.23780  0.34810  Biso   1.000  H
  C6       1.0000 0.27081  0.11550  0.25120  Biso   1.000  C
  C7       1.0000 0.31041  0.01660  0.22969  Biso   1.000  C
  H3       1.0000 0.29760  0.98050  0.17560  Biso   1.000  H
  C8       1.0000 0.18688  0.11820  0.10846  Biso   1.000  C
  H4       1.0000 0.14080  0.14250  0.08580  Biso   1.000  H
  H5       1.0000 0.19020  0.01550  0.10510  Biso   1.000  H
  C9       1.0000 0.22102  0.18530  0.05366  Biso   1.000  C
  C10      1.0000 0.23769  0.10560  0.99535  Biso   1.000  C
  H6       1.0000 0.22970  0.00810  0.99160  Biso   1.000  H
  C11      1.0000 0.23389  0.33120  0.05744  Biso   1.000  C
  H7       1.0000 0.22320  0.38700  0.09600  Biso   1.000  H
  C12      1.0000 0.37481  0.19330  0.47691  Biso   1.000  C
  N1       1.0000 0.21148  0.15900  0.19580  Biso   1.000  N
  H8       1.0000 0.18760  0.21360  0.21400  Biso   1.000  H
  O1       1.0000 0.39527  0.83706  0.18933  Biso   1.000  O
  O2       1.0000 0.45952  0.81790  0.32008  Biso   1.000  O
  O3       1.0000 0.42954  0.14760  0.52605  Biso   1.000  O
  O4       1.0000 0.34285  0.28520  0.49675  Biso   1.000  O
  Zn1      1.0000 0.44856  0.75236  0.13075  Biso   1.000  Zn
  C13      1.0000 0.91209  0.36860  0.26501  Biso   1.000  C
  C14      1.0000 0.86919  0.47173  0.28918  Biso   1.000  C
  C15      1.0000 0.88994  0.52610  0.36985  Biso   1.000  C
  H9       1.0000 0.92880  0.49480  0.40930  Biso   1.000  H
  C16      1.0000 0.85158  0.62820  0.39087  Biso   1.000  C
  C17      1.0000 0.79297  0.67090  0.33289  Biso   1.000  C
  H10      1.0000 0.76750  0.73780  0.34810  Biso   1.000  H
  C18      1.0000 0.77081  0.61550  0.25120  Biso   1.000  C
  C19      1.0000 0.81041  0.51660  0.22969  Biso   1.000  C
  H11      1.0000 0.79760  0.48050  0.17560  Biso   1.000  H
  C20      1.0000 0.68688  0.61820  0.10846  Biso   1.000  C
  H12      1.0000 0.64080  0.64250  0.08580  Biso   1.000  H
  H13      1.0000 0.69020  0.51550  0.10510  Biso   1.000  H
  C21      1.0000 0.72102  0.68530  0.05366  Biso   1.000  C
  C22      1.0000 0.73769  0.60560  0.99535  Biso   1.000  C
  H14      1.0000 0.72970  0.50810  0.99160  Biso   1.000  H
  C23      1.0000 0.73389  0.83120  0.05744  Biso   1.000  C
  H15      1.0000 0.72320  0.88700  0.09600  Biso   1.000  H
  C24      1.0000 0.87481  0.69330  0.47691  Biso   1.000  C
  N2       1.0000 0.71148  0.65900  0.19580  Biso   1.000  N
  H16      1.0000 0.68760  0.71360  0.21400  Biso   1.000  H
  O5       1.0000 0.89527  0.33706  0.18933  Biso   1.000  O
  O6       1.0000 0.95952  0.31790  0.32008  Biso   1.000  O
  O7       1.0000 0.92954  0.64760  0.52605  Biso   1.000  O
  O8       1.0000 0.84285  0.78520  0.49675  Biso   1.000  O
  Zn2      1.0000 0.94856  0.25236  0.13075  Biso   1.000  Zn
  C25      1.0000 0.58791  0.86860  0.23499  Biso   1.000  C
  C26      1.0000 0.63081  0.97173  0.21082  Biso   1.000  C
  C27      1.0000 0.61006  0.02610  0.13015  Biso   1.000  C
  H17      1.0000 0.57120  0.99480  0.09070  Biso   1.000  H
  C28      1.0000 0.64842  0.12820  0.10913  Biso   1.000  C
  C29      1.0000 0.70703  0.17090  0.16711  Biso   1.000  C
  H18      1.0000 0.73250  0.23780  0.15190  Biso   1.000  H
  C30      1.0000 0.72919  0.11550  0.24880  Biso   1.000  C
  C31      1.0000 0.68959  0.01660  0.27031  Biso   1.000  C
  H19      1.0000 0.70240  0.98050  0.32440  Biso   1.000  H
  C32      1.0000 0.81312  0.11820  0.39154  Biso   1.000  C
  H20      1.0000 0.85920  0.14250  0.41420  Biso   1.000  H
  H21      1.0000 0.80980  0.01550  0.39490  Biso   1.000  H
  C33      1.0000 0.77898  0.18530  0.44634  Biso   1.000  C
  C34      1.0000 0.76231  0.10560  0.50465  Biso   1.000  C
  H22      1.0000 0.77030  0.00810  0.50840  Biso   1.000  H
  C35      1.0000 0.76611  0.33120  0.44256  Biso   1.000  C
  H23      1.0000 0.77680  0.38700  0.40400  Biso   1.000  H
  C36      1.0000 0.62519  0.19330  0.02309  Biso   1.000  C
  N3       1.0000 0.78852  0.15900  0.30420  Biso   1.000  N
  H24      1.0000 0.81240  0.21360  0.28600  Biso   1.000  H
  O9       1.0000 0.60473  0.83706  0.31067  Biso   1.000  O
  O10      1.0000 0.54048  0.81790  0.17992  Biso   1.000  O
  O11      1.0000 0.57046  0.14760  0.97395  Biso   1.000  O
  O12      1.0000 0.65715  0.28520  0.00325  Biso   1.000  O
  Zn3      1.0000 0.55144  0.75236  0.36925  Biso   1.000  Zn
  C37      1.0000 0.08791  0.36860  0.23499  Biso   1.000  C
  C38      1.0000 0.13081  0.47173  0.21082  Biso   1.000  C
  C39      1.0000 0.11006  0.52610  0.13015  Biso   1.000  C
  H25      1.0000 0.07120  0.49480  0.09070  Biso   1.000  H
  C40      1.0000 0.14842  0.62820  0.10913  Biso   1.000  C
  C41      1.0000 0.20703  0.67090  0.16711  Biso   1.000  C
  H26      1.0000 0.23250  0.73780  0.15190  Biso   1.000  H
  C42      1.0000 0.22919  0.61550  0.24880  Biso   1.000  C
  C43      1.0000 0.18959  0.51660  0.27031  Biso   1.000  C
  H27      1.0000 0.20240  0.48050  0.32440  Biso   1.000  H
  C44      1.0000 0.31312  0.61820  0.39154  Biso   1.000  C
  H28      1.0000 0.35920  0.64250  0.41420  Biso   1.000  H
  H29      1.0000 0.30980  0.51550  0.39490  Biso   1.000  H
  C45      1.0000 0.27898  0.68530  0.44634  Biso   1.000  C
  C46      1.0000 0.26231  0.60560  0.50465  Biso   1.000  C
  H30      1.0000 0.27030  0.50810  0.50840  Biso   1.000  H
  C47      1.0000 0.26611  0.83120  0.44256  Biso   1.000  C
  H31      1.0000 0.27680  0.88700  0.40400  Biso   1.000  H
  C48      1.0000 0.12519  0.69330  0.02309  Biso   1.000  C
  N4       1.0000 0.28852  0.65900  0.30420  Biso   1.000  N
  H32      1.0000 0.31240  0.71360  0.28600  Biso   1.000  H
  O13      1.0000 0.10473  0.33706  0.31067  Biso   1.000  O
  O14      1.0000 0.04048  0.31790  0.17992  Biso   1.000  O
  O15      1.0000 0.07046  0.64760  0.97395  Biso   1.000  O
  O16      1.0000 0.15715  0.78520  0.00325  Biso   1.000  O
  Zn4      1.0000 0.05144  0.25236  0.36925  Biso   1.000  Zn
  C49      1.0000 0.58791  0.13140  0.73499  Biso   1.000  C
  C50      1.0000 0.63081  0.02827  0.71082  Biso   1.000  C
  C51      1.0000 0.61006  0.97390  0.63015  Biso   1.000  C
  H33      1.0000 0.57120  0.00520  0.59070  Biso   1.000  H
  C52      1.0000 0.64842  0.87180  0.60913  Biso   1.000  C
  C53      1.0000 0.70703  0.82910  0.66711  Biso   1.000  C
  H34      1.0000 0.73250  0.76220  0.65190  Biso   1.000  H
  C54      1.0000 0.72919  0.88450  0.74880  Biso   1.000  C
  C55      1.0000 0.68959  0.98340  0.77031  Biso   1.000  C
  H35      1.0000 0.70240  0.01950  0.82440  Biso   1.000  H
  C56      1.0000 0.81312  0.88180  0.89154  Biso   1.000  C
  H36      1.0000 0.85920  0.85750  0.91420  Biso   1.000  H
  H37      1.0000 0.80980  0.98450  0.89490  Biso   1.000  H
  C57      1.0000 0.77898  0.81470  0.94634  Biso   1.000  C
  C58      1.0000 0.76231  0.89440  0.00465  Biso   1.000  C
  H38      1.0000 0.77030  0.99190  0.00840  Biso   1.000  H
  C59      1.0000 0.76611  0.66880  0.94256  Biso   1.000  C
  H39      1.0000 0.77680  0.61300  0.90400  Biso   1.000  H
  C60      1.0000 0.62519  0.80670  0.52309  Biso   1.000  C
  N5       1.0000 0.78852  0.84100  0.80420  Biso   1.000  N
  H40      1.0000 0.81240  0.78640  0.78600  Biso   1.000  H
  O17      1.0000 0.60473  0.16294  0.81067  Biso   1.000  O
  O18      1.0000 0.54048  0.18210  0.67992  Biso   1.000  O
  O19      1.0000 0.57046  0.85240  0.47395  Biso   1.000  O
  O20      1.0000 0.65715  0.71480  0.50325  Biso   1.000  O
  Zn5      1.0000 0.55144  0.24764  0.86925  Biso   1.000  Zn
  C61      1.0000 0.08791  0.63140  0.73499  Biso   1.000  C
  C62      1.0000 0.13081  0.52827  0.71082  Biso   1.000  C
  C63      1.0000 0.11006  0.47390  0.63015  Biso   1.000  C
  H41      1.0000 0.07120  0.50520  0.59070  Biso   1.000  H
  C64      1.0000 0.14842  0.37180  0.60913  Biso   1.000  C
  C65      1.0000 0.20703  0.32910  0.66711  Biso   1.000  C
  H42      1.0000 0.23250  0.26220  0.65190  Biso   1.000  H
  C66      1.0000 0.22919  0.38450  0.74880  Biso   1.000  C
  C67      1.0000 0.18959  0.48340  0.77031  Biso   1.000  C
  H43      1.0000 0.20240  0.51950  0.82440  Biso   1.000  H
  C68      1.0000 0.31312  0.38180  0.89154  Biso   1.000  C
  H44      1.0000 0.35920  0.35750  0.91420  Biso   1.000  H
  H45      1.0000 0.30980  0.48450  0.89490  Biso   1.000  H
  C69      1.0000 0.27898  0.31470  0.94634  Biso   1.000  C
  C70      1.0000 0.26231  0.39440  0.00465  Biso   1.000  C
  H46      1.0000 0.27030  0.49190  0.00840  Biso   1.000  H
  C71      1.0000 0.26611  0.16880  0.94256  Biso   1.000  C
  H47      1.0000 0.27680  0.11300  0.90400  Biso   1.000  H
  C72      1.0000 0.12519  0.30670  0.52309  Biso   1.000  C
  N6       1.0000 0.28852  0.34100  0.80420  Biso   1.000  N
  H48      1.0000 0.31240  0.28640  0.78600  Biso   1.000  H
  O21      1.0000 0.10473  0.66294  0.81067  Biso   1.000  O
  O22      1.0000 0.04048  0.68210  0.67992  Biso   1.000  O
  O23      1.0000 0.07046  0.35240  0.47395  Biso   1.000  O
  O24      1.0000 0.15715  0.21480  0.50325  Biso   1.000  O
  Zn6      1.0000 0.05144  0.74764  0.86925  Biso   1.000  Zn
  C73      1.0000 0.41209  0.13140  0.76501  Biso   1.000  C
  C74      1.0000 0.36919  0.02827  0.78918  Biso   1.000  C
  C75      1.0000 0.38994  0.97390  0.86985  Biso   1.000  C
  H49      1.0000 0.42880  0.00520  0.90930  Biso   1.000  H
  C76      1.0000 0.35158  0.87180  0.89087  Biso   1.000  C
  C77      1.0000 0.29297  0.82910  0.83289  Biso   1.000  C
  H50      1.0000 0.26750  0.76220  0.84810  Biso   1.000  H
  C78      1.0000 0.27081  0.88450  0.75120  Biso   1.000  C
  C79      1.0000 0.31041  0.98340  0.72969  Biso   1.000  C
  H51      1.0000 0.29760  0.01950  0.67560  Biso   1.000  H
  C80      1.0000 0.18688  0.88180  0.60846  Biso   1.000  C
  H52      1.0000 0.14080  0.85750  0.58580  Biso   1.000  H
  H53      1.0000 0.19020  0.98450  0.60510  Biso   1.000  H
  C81      1.0000 0.22102  0.81470  0.55366  Biso   1.000  C
  C82      1.0000 0.23769  0.89440  0.49535  Biso   1.000  C
  H54      1.0000 0.22970  0.99190  0.49160  Biso   1.000  H
  C83      1.0000 0.23389  0.66880  0.55744  Biso   1.000  C
  H55      1.0000 0.22320  0.61300  0.59600  Biso   1.000  H
  C84      1.0000 0.37481  0.80670  0.97691  Biso   1.000  C
  N7       1.0000 0.21148  0.84100  0.69580  Biso   1.000  N
  H56      1.0000 0.18760  0.78640  0.71400  Biso   1.000  H
  O25      1.0000 0.39527  0.16294  0.68933  Biso   1.000  O
  O26      1.0000 0.45952  0.18210  0.82008  Biso   1.000  O
  O27      1.0000 0.42954  0.85240  0.02605  Biso   1.000  O
  O28      1.0000 0.34285  0.71480  0.99675  Biso   1.000  O
  Zn7      1.0000 0.44856  0.24764  0.63075  Biso   1.000  Zn
  C85      1.0000 0.91209  0.63140  0.76501  Biso   1.000  C
  C86      1.0000 0.86919  0.52827  0.78918  Biso   1.000  C
  C87      1.0000 0.88994  0.47390  0.86985  Biso   1.000  C
  H57      1.0000 0.92880  0.50520  0.90930  Biso   1.000  H
  C88      1.0000 0.85158  0.37180  0.89087  Biso   1.000  C
  C89      1.0000 0.79297  0.32910  0.83289  Biso   1.000  C
  H58      1.0000 0.76750  0.26220  0.84810  Biso   1.000  H
  C90      1.0000 0.77081  0.38450  0.75120  Biso   1.000  C
  C91      1.0000 0.81041  0.48340  0.72969  Biso   1.000  C
  H59      1.0000 0.79760  0.51950  0.67560  Biso   1.000  H
  C92      1.0000 0.68688  0.38180  0.60846  Biso   1.000  C
  H60      1.0000 0.64080  0.35750  0.58580  Biso   1.000  H
  H61      1.0000 0.69020  0.48450  0.60510  Biso   1.000  H
  C93      1.0000 0.72102  0.31470  0.55366  Biso   1.000  C
  C94      1.0000 0.73769  0.39440  0.49535  Biso   1.000  C
  H62      1.0000 0.72970  0.49190  0.49160  Biso   1.000  H
  C95      1.0000 0.73389  0.16880  0.55744  Biso   1.000  C
  H63      1.0000 0.72320  0.11300  0.59600  Biso   1.000  H
  C96      1.0000 0.87481  0.30670  0.97691  Biso   1.000  C
  N8       1.0000 0.71148  0.34100  0.69580  Biso   1.000  N
  H64      1.0000 0.68760  0.28640  0.71400  Biso   1.000  H
  O29      1.0000 0.89527  0.66294  0.68933  Biso   1.000  O
  O30      1.0000 0.95952  0.68210  0.82008  Biso   1.000  O
  O31      1.0000 0.92954  0.35240  0.02605  Biso   1.000  O
  O32      1.0000 0.84285  0.21480  0.99675  Biso   1.000  O
  Zn8      1.0000 0.94856  0.74764  0.63075  Biso   1.000  Zn
