data_image0
_cell_length_a       7.3284
_cell_length_b       16.1379
_cell_length_c       16.3532
_cell_angle_alpha    111.241
_cell_angle_beta     92.752
_cell_angle_gamma    98.743

_symmetry_space_group_name_H-M    "P 1"
_symmetry_int_tables_number       1

loop_
  _symmetry_equiv_pos_as_xyz
  'x, y, z'

loop_
  _atom_site_label
  _atom_site_occupancy
  _atom_site_fract_x
  _atom_site_fract_y
  _atom_site_fract_z
  _atom_site_thermal_displace_type
  _atom_site_B_iso_or_equiv
  _atom_site_type_symbol
  Zn1      1.0000 0.86526  0.45031  0.27160  Biso   1.000  Zn
  O1       1.0000 0.70850  0.33190  0.31971  Biso   1.000  O
  O2       1.0000 0.59050  0.41047  0.25439  Biso   1.000  O
  O3       1.0000 0.91460  0.35170  0.15726  Biso   1.000  O
  O4       1.0000 0.93950  0.55225  0.23108  Biso   1.000  O
  O5       1.0000 0.84220  0.61347  0.36043  Biso   1.000  O
  O6       1.0000 0.81130  0.20510  0.09298  Biso   1.000  O
  O7       1.0000 0.30220  0.86640  0.12570  Biso   1.000  O
  O8       1.0000 0.19430  0.72300  0.06920  Biso   1.000  O
  C1       1.0000 0.57410  0.34840  0.28460  Biso   1.000  C
  C2       1.0000 0.38210  0.29400  0.27410  Biso   1.000  C
  C3       1.0000 0.24330  0.30390  0.21990  Biso   1.000  C
  H1       1.0000 0.27030  0.34530  0.19270  Biso   1.000  H
  C4       1.0000 0.06530  0.25410  0.20490  Biso   1.000  C
  C5       1.0000 0.03190  0.19150  0.24600  Biso   1.000  C
  C6       1.0000 0.84730  0.13020  0.23340  Biso   1.000  C
  H2       1.0000 0.85520  0.09240  0.26680  Biso   1.000  H
  H3       1.0000 0.81580  0.09300  0.17190  Biso   1.000  H
  H4       1.0000 0.75330  0.16600  0.25330  Biso   1.000  H
  C7       1.0000 0.33350  0.23380  0.31680  Biso   1.000  C
  C8       1.0000 0.46000  0.22090  0.38490  Biso   1.000  C
  H5       1.0000 0.39590  0.17620  0.40440  Biso   1.000  H
  H6       1.0000 0.49630  0.27710  0.43430  Biso   1.000  H
  H7       1.0000 0.56860  0.20120  0.35930  Biso   1.000  H
  C9       1.0000 0.09470  0.42820  0.41740  Biso   1.000  C
  H8       1.0000 0.98780  0.39000  0.41940  Biso   1.000  H
  C10      1.0000 0.25010  0.43860  0.47290  Biso   1.000  C
  H9       1.0000 0.24650  0.40830  0.51180  Biso   1.000  H
  C11      1.0000 0.41490  0.49496  0.47116  Biso   1.000  C
  C12      1.0000 0.40700  0.53820  0.41260  Biso   1.000  C
  H10      1.0000 0.51180  0.57680  0.40910  Biso   1.000  H
  C13      1.0000 0.24650  0.52490  0.35940  Biso   1.000  C
  H11      1.0000 0.24600  0.55500  0.32050  Biso   1.000  H
  C14      1.0000 0.92280  0.62080  0.29850  Biso   1.000  C
  C15      1.0000 0.01280  0.71180  0.30000  Biso   1.000  C
  C16      1.0000 0.05350  0.78990  0.37630  Biso   1.000  C
  C17      1.0000 0.03040  0.79280  0.46840  Biso   1.000  C
  H12      1.0000 0.06590  0.85390  0.50990  Biso   1.000  H
  H13      1.0000 0.10780  0.75560  0.48230  Biso   1.000  H
  H14      1.0000 0.90290  0.77060  0.47170  Biso   1.000  H
  C18      1.0000 0.17130  0.87550  0.29590  Biso   1.000  C
  C19      1.0000 0.24370  0.97060  0.30090  Biso   1.000  C
  H15      1.0000 0.24600  0.01260  0.36030  Biso   1.000  H
  H16      1.0000 0.16380  0.98540  0.26190  Biso   1.000  H
  H17      1.0000 0.36710  0.97400  0.28360  Biso   1.000  H
  C20      1.0000 0.15010  0.79840  0.21720  Biso   1.000  C
  C21      1.0000 0.06660  0.71750  0.22200  Biso   1.000  C
  H18      1.0000 0.04610  0.66540  0.17110  Biso   1.000  H
  C22      1.0000 0.22010  0.79790  0.13310  Biso   1.000  C
  C23      1.0000 0.92090  0.27140  0.14860  Biso   1.000  C
  N1       1.0000 0.08930  0.47003  0.36066  Biso   1.000  N
  N2       1.0000 0.16230  0.18389  0.30134  Biso   1.000  N
  N3       1.0000 0.12940  0.86980  0.37230  Biso   1.000  N
  Zn2      1.0000 0.64992  0.24052  0.01440  Biso   1.000  Zn
  C24      1.0000 0.40450  0.09740  0.05570  Biso   1.000  C
  H19      1.0000 0.51160  0.09930  0.08970  Biso   1.000  H
  C25      1.0000 0.24790  0.03710  0.05310  Biso   1.000  C
  H20      1.0000 0.25070  0.99950  0.08460  Biso   1.000  H
  C26      1.0000 0.08560  0.03260  0.00310  Biso   1.000  C
  C27      1.0000 0.09290  0.09170  0.95950  Biso   1.000  C
  H21      1.0000 0.98710  0.09240  0.92610  Biso   1.000  H
  C28      1.0000 0.25480  0.14940  0.96510  Biso   1.000  C
  H22      1.0000 0.25550  0.18800  0.93440  Biso   1.000  H
  N4       1.0000 0.41100  0.15311  0.01210  Biso   1.000  N
  Zn3      1.0000 0.13474  0.54969  0.72840  Biso   1.000  Zn
  O9       1.0000 0.29150  0.66810  0.68029  Biso   1.000  O
  O10      1.0000 0.40950  0.58953  0.74561  Biso   1.000  O
  O11      1.0000 0.08540  0.64830  0.84274  Biso   1.000  O
  O12      1.0000 0.06050  0.44775  0.76892  Biso   1.000  O
  O13      1.0000 0.15780  0.38653  0.63957  Biso   1.000  O
  O14      1.0000 0.18870  0.79490  0.90702  Biso   1.000  O
  O15      1.0000 0.69780  0.13360  0.87430  Biso   1.000  O
  O16      1.0000 0.80570  0.27700  0.93080  Biso   1.000  O
  C29      1.0000 0.42590  0.65160  0.71540  Biso   1.000  C
  C30      1.0000 0.61790  0.70600  0.72590  Biso   1.000  C
  C31      1.0000 0.75670  0.69610  0.78010  Biso   1.000  C
  H23      1.0000 0.72970  0.65470  0.80730  Biso   1.000  H
  C32      1.0000 0.93470  0.74590  0.79510  Biso   1.000  C
  C33      1.0000 0.96810  0.80850  0.75400  Biso   1.000  C
  C34      1.0000 0.15270  0.86980  0.76660  Biso   1.000  C
  H24      1.0000 0.14480  0.90760  0.73320  Biso   1.000  H
  H25      1.0000 0.18420  0.90700  0.82810  Biso   1.000  H
  H26      1.0000 0.24670  0.83400  0.74670  Biso   1.000  H
  C35      1.0000 0.66650  0.76620  0.68320  Biso   1.000  C
  C36      1.0000 0.54000  0.77910  0.61510  Biso   1.000  C
  H27      1.0000 0.60410  0.82380  0.59560  Biso   1.000  H
  H28      1.0000 0.50370  0.72290  0.56570  Biso   1.000  H
  H29      1.0000 0.43140  0.79880  0.64070  Biso   1.000  H
  C37      1.0000 0.90530  0.57180  0.58260  Biso   1.000  C
  H30      1.0000 0.01220  0.61000  0.58060  Biso   1.000  H
  C38      1.0000 0.74990  0.56140  0.52710  Biso   1.000  C
  H31      1.0000 0.75350  0.59170  0.48820  Biso   1.000  H
  C39      1.0000 0.58510  0.50504  0.52884  Biso   1.000  C
  C40      1.0000 0.59300  0.46180  0.58740  Biso   1.000  C
  H32      1.0000 0.48820  0.42320  0.59090  Biso   1.000  H
  C41      1.0000 0.75350  0.47510  0.64060  Biso   1.000  C
  H33      1.0000 0.75400  0.44500  0.67950  Biso   1.000  H
  C42      1.0000 0.07720  0.37920  0.70150  Biso   1.000  C
  C43      1.0000 0.98720  0.28820  0.70000  Biso   1.000  C
  C44      1.0000 0.94650  0.21010  0.62370  Biso   1.000  C
  C45      1.0000 0.96960  0.20720  0.53160  Biso   1.000  C
  H34      1.0000 0.93410  0.14610  0.49010  Biso   1.000  H
  H35      1.0000 0.89220  0.24440  0.51770  Biso   1.000  H
  H36      1.0000 0.09710  0.22940  0.52830  Biso   1.000  H
  C46      1.0000 0.82870  0.12450  0.70410  Biso   1.000  C
  C47      1.0000 0.75630  0.02940  0.69910  Biso   1.000  C
  H37      1.0000 0.75400  0.98740  0.63970  Biso   1.000  H
  H38      1.0000 0.83620  0.01460  0.73810  Biso   1.000  H
  H39      1.0000 0.63290  0.02600  0.71640  Biso   1.000  H
  C48      1.0000 0.84990  0.20160  0.78280  Biso   1.000  C
  C49      1.0000 0.93340  0.28250  0.77800  Biso   1.000  C
  H40      1.0000 0.95390  0.33460  0.82890  Biso   1.000  H
  C50      1.0000 0.77990  0.20210  0.86690  Biso   1.000  C
  C51      1.0000 0.07910  0.72860  0.85140  Biso   1.000  C
  N5       1.0000 0.91070  0.52997  0.63934  Biso   1.000  N
  N6       1.0000 0.83770  0.81611  0.69866  Biso   1.000  N
  N7       1.0000 0.87060  0.13020  0.62770  Biso   1.000  N
  Zn4      1.0000 0.35008  0.75948  0.98560  Biso   1.000  Zn
  C52      1.0000 0.59550  0.90260  0.94430  Biso   1.000  C
  H41      1.0000 0.48840  0.90070  0.91030  Biso   1.000  H
  C53      1.0000 0.75210  0.96290  0.94690  Biso   1.000  C
  H42      1.0000 0.74930  0.00050  0.91540  Biso   1.000  H
  C54      1.0000 0.91440  0.96740  0.99690  Biso   1.000  C
  C55      1.0000 0.90710  0.90830  0.04050  Biso   1.000  C
  H43      1.0000 0.01290  0.90760  0.07390  Biso   1.000  H
  C56      1.0000 0.74520  0.85060  0.03490  Biso   1.000  C
  H44      1.0000 0.74450  0.81200  0.06560  Biso   1.000  H
  N8       1.0000 0.58900  0.84689  0.98790  Biso   1.000  N
