data_image0
_cell_length_a       21.169
_cell_length_b       11.2196
_cell_length_c       23.5169
_cell_angle_alpha    90
_cell_angle_beta     90
_cell_angle_gamma    90

_symmetry_space_group_name_H-M    "P 1"
_symmetry_int_tables_number       1

loop_
  _symmetry_equiv_pos_as_xyz
  'x, y, z'

loop_
  _atom_site_label
  _atom_site_occupancy
  _atom_site_fract_x
  _atom_site_fract_y
  _atom_site_fract_z
  _atom_site_thermal_displace_type
  _atom_site_B_iso_or_equiv
  _atom_site_type_symbol
  Zn1      1.0000 0.40171  0.72937  0.85858  Biso   1.000  Zn
  Zn2      1.0000 0.39919  0.00592  0.85717  Biso   1.000  Zn
  Zn3      1.0000 0.33959  0.87569  0.96216  Biso   1.000  Zn
  Zn4      1.0000 0.48685  0.83146  0.94945  Biso   1.000  Zn
  O1       1.0000 0.41160  0.86670  0.90700  Biso   1.000  O
  O2       1.0000 0.48440  0.67290  0.83290  Biso   1.000  O
  O3       1.0000 0.54530  0.74060  0.90410  Biso   1.000  O
  O4       1.0000 0.76940  0.62010  0.90190  Biso   1.000  O
  O5       1.0000 0.80510  0.49130  0.83830  Biso   1.000  O
  O6       1.0000 0.39960  0.91530  0.77370  Biso   1.000  O
  O7       1.0000 0.35060  0.74430  0.79100  Biso   1.000  O
  O8       1.0000 0.17470  0.18840  0.46800  Biso   1.000  O
  O9       1.0000 0.12640  0.08820  0.39950  Biso   1.000  O
  O10      1.0000 0.10830  0.65050  0.40810  Biso   1.000  O
  O11      1.0000 0.16130  0.55440  0.47710  Biso   1.000  O
  O12      1.0000 0.60400  0.14510  0.53520  Biso   1.000  O
  O13      1.0000 0.53160  0.28100  0.51510  Biso   1.000  O
  C1       1.0000 0.53480  0.67950  0.85720  Biso   1.000  C
  C2       1.0000 0.59260  0.62210  0.82890  Biso   1.000  C
  C3       1.0000 0.65170  0.62150  0.85470  Biso   1.000  C
  H1       1.0000 0.65870  0.66490  0.88780  Biso   1.000  H
  C4       1.0000 0.70150  0.55380  0.82990  Biso   1.000  C
  C5       1.0000 0.68920  0.50640  0.77610  Biso   1.000  C
  H2       1.0000 0.72240  0.47180  0.75610  Biso   1.000  H
  C6       1.0000 0.63020  0.50800  0.75110  Biso   1.000  C
  C7       1.0000 0.58360  0.56880  0.77620  Biso   1.000  C
  H3       1.0000 0.54470  0.57540  0.75820  Biso   1.000  H
  C8       1.0000 0.76100  0.55330  0.85950  Biso   1.000  C
  C9       1.0000 0.61890  0.44430  0.69650  Biso   1.000  C
  C10      1.0000 0.65220  0.33460  0.68590  Biso   1.000  C
  H4       1.0000 0.68100  0.30490  0.71220  Biso   1.000  H
  C11      1.0000 0.63990  0.27090  0.63290  Biso   1.000  C
  H5       1.0000 0.66370  0.20410  0.62360  Biso   1.000  H
  C12      1.0000 0.59130  0.31080  0.59530  Biso   1.000  C
  C13      1.0000 0.57430  0.48260  0.65770  Biso   1.000  C
  H6       1.0000 0.55380  0.55480  0.66380  Biso   1.000  H
  C14      1.0000 0.36200  0.83990  0.76050  Biso   1.000  C
  C15      1.0000 0.32660  0.85040  0.70810  Biso   1.000  C
  C16      1.0000 0.33350  0.94190  0.67150  Biso   1.000  C
  H7       1.0000 0.36400  0.99940  0.67910  Biso   1.000  H
  C17      1.0000 0.25240  0.86920  0.60820  Biso   1.000  C
  C18      1.0000 0.24530  0.78290  0.64690  Biso   1.000  C
  H8       1.0000 0.21470  0.72600  0.63850  Biso   1.000  H
  C19      1.0000 0.27580  0.76730  0.69550  Biso   1.000  C
  H9       1.0000 0.26530  0.70610  0.72030  Biso   1.000  H
  C20      1.0000 0.21860  0.86960  0.55220  Biso   1.000  C
  C21      1.0000 0.20560  0.97410  0.52590  Biso   1.000  C
  H10      1.0000 0.22180  0.04480  0.54050  Biso   1.000  H
  C22      1.0000 0.16620  0.97700  0.47440  Biso   1.000  C
  C23      1.0000 0.15170  0.86740  0.45360  Biso   1.000  C
  H11      1.0000 0.13200  0.86640  0.41820  Biso   1.000  H
  C24      1.0000 0.19260  0.76260  0.52760  Biso   1.000  C
  H12      1.0000 0.19690  0.69130  0.54730  Biso   1.000  H
  C25      1.0000 0.16210  0.76170  0.47710  Biso   1.000  C
  C26      1.0000 0.15600  0.09650  0.45030  Biso   1.000  C
  C27      1.0000 0.14730  0.64690  0.45480  Biso   1.000  C
  C28      1.0000 0.29650  0.95380  0.62220  Biso   1.000  C
  H13      1.0000 0.30200  0.01990  0.59880  Biso   1.000  H
  C29      1.0000 0.55910  0.41560  0.60940  Biso   1.000  C
  H14      1.0000 0.52660  0.44160  0.58600  Biso   1.000  H
  C30      1.0000 0.57370  0.24050  0.54510  Biso   1.000  C
  Zn5      1.0000 0.59829  0.27063  0.35858  Biso   1.000  Zn
  Zn6      1.0000 0.60081  0.99408  0.35717  Biso   1.000  Zn
  Zn7      1.0000 0.66041  0.12431  0.46216  Biso   1.000  Zn
  Zn8      1.0000 0.51315  0.16854  0.44945  Biso   1.000  Zn
  O14      1.0000 0.58840  0.13330  0.40700  Biso   1.000  O
  O15      1.0000 0.51560  0.32710  0.33290  Biso   1.000  O
  O16      1.0000 0.45470  0.25940  0.40410  Biso   1.000  O
  O17      1.0000 0.23060  0.37990  0.40190  Biso   1.000  O
  O18      1.0000 0.19490  0.50870  0.33830  Biso   1.000  O
  O19      1.0000 0.60040  0.08470  0.27370  Biso   1.000  O
  O20      1.0000 0.64940  0.25570  0.29100  Biso   1.000  O
  O21      1.0000 0.82530  0.81160  0.96800  Biso   1.000  O
  O22      1.0000 0.87360  0.91180  0.89950  Biso   1.000  O
  O23      1.0000 0.89170  0.34950  0.90810  Biso   1.000  O
  O24      1.0000 0.83870  0.44560  0.97710  Biso   1.000  O
  O25      1.0000 0.39600  0.85490  0.03520  Biso   1.000  O
  O26      1.0000 0.46840  0.71900  0.01510  Biso   1.000  O
  C31      1.0000 0.46520  0.32050  0.35720  Biso   1.000  C
  C32      1.0000 0.40740  0.37790  0.32890  Biso   1.000  C
  C33      1.0000 0.34830  0.37850  0.35470  Biso   1.000  C
  H15      1.0000 0.34130  0.33510  0.38780  Biso   1.000  H
  C34      1.0000 0.29850  0.44620  0.32990  Biso   1.000  C
  C35      1.0000 0.31080  0.49360  0.27610  Biso   1.000  C
  H16      1.0000 0.27760  0.52820  0.25610  Biso   1.000  H
  C36      1.0000 0.36980  0.49200  0.25110  Biso   1.000  C
  C37      1.0000 0.41640  0.43120  0.27620  Biso   1.000  C
  H17      1.0000 0.45530  0.42460  0.25820  Biso   1.000  H
  C38      1.0000 0.23900  0.44670  0.35950  Biso   1.000  C
  C39      1.0000 0.38110  0.55570  0.19650  Biso   1.000  C
  C40      1.0000 0.34780  0.66540  0.18590  Biso   1.000  C
  H18      1.0000 0.31900  0.69510  0.21220  Biso   1.000  H
  C41      1.0000 0.36010  0.72910  0.13290  Biso   1.000  C
  H19      1.0000 0.33630  0.79590  0.12360  Biso   1.000  H
  C42      1.0000 0.40870  0.68920  0.09530  Biso   1.000  C
  C43      1.0000 0.42570  0.51740  0.15770  Biso   1.000  C
  H20      1.0000 0.44620  0.44520  0.16380  Biso   1.000  H
  C44      1.0000 0.63800  0.16010  0.26050  Biso   1.000  C
  C45      1.0000 0.67340  0.14960  0.20810  Biso   1.000  C
  C46      1.0000 0.66650  0.05810  0.17150  Biso   1.000  C
  H21      1.0000 0.63600  0.00060  0.17910  Biso   1.000  H
  C47      1.0000 0.74760  0.13080  0.10820  Biso   1.000  C
  C48      1.0000 0.75470  0.21710  0.14690  Biso   1.000  C
  H22      1.0000 0.78530  0.27400  0.13850  Biso   1.000  H
  C49      1.0000 0.72420  0.23270  0.19550  Biso   1.000  C
  H23      1.0000 0.73470  0.29390  0.22030  Biso   1.000  H
  C50      1.0000 0.78140  0.13040  0.05220  Biso   1.000  C
  C51      1.0000 0.79440  0.02590  0.02590  Biso   1.000  C
  H24      1.0000 0.77820  0.95520  0.04050  Biso   1.000  H
  C52      1.0000 0.83380  0.02300  0.97440  Biso   1.000  C
  C53      1.0000 0.84830  0.13260  0.95360  Biso   1.000  C
  H25      1.0000 0.86800  0.13360  0.91820  Biso   1.000  H
  C54      1.0000 0.80740  0.23740  0.02760  Biso   1.000  C
  H26      1.0000 0.80310  0.30870  0.04730  Biso   1.000  H
  C55      1.0000 0.83790  0.23830  0.97710  Biso   1.000  C
  C56      1.0000 0.84400  0.90350  0.95030  Biso   1.000  C
  C57      1.0000 0.85270  0.35310  0.95480  Biso   1.000  C
  C58      1.0000 0.70350  0.04620  0.12220  Biso   1.000  C
  H27      1.0000 0.69800  0.98010  0.09880  Biso   1.000  H
  C59      1.0000 0.44090  0.58440  0.10940  Biso   1.000  C
  H28      1.0000 0.47340  0.55840  0.08600  Biso   1.000  H
  C60      1.0000 0.42630  0.75950  0.04510  Biso   1.000  C
  Zn9      1.0000 0.90171  0.77063  0.85858  Biso   1.000  Zn
  Zn10     1.0000 0.89919  0.49408  0.85717  Biso   1.000  Zn
  Zn11     1.0000 0.83959  0.62431  0.96216  Biso   1.000  Zn
  Zn12     1.0000 0.98685  0.66854  0.94945  Biso   1.000  Zn
  O27      1.0000 0.91160  0.63330  0.90700  Biso   1.000  O
  O28      1.0000 0.98440  0.82710  0.83290  Biso   1.000  O
  O29      1.0000 0.04530  0.75940  0.90410  Biso   1.000  O
  O30      1.0000 0.26940  0.87990  0.90190  Biso   1.000  O
  O31      1.0000 0.30510  0.00870  0.83830  Biso   1.000  O
  O32      1.0000 0.89960  0.58470  0.77370  Biso   1.000  O
  O33      1.0000 0.85060  0.75570  0.79100  Biso   1.000  O
  O34      1.0000 0.67470  0.31160  0.46800  Biso   1.000  O
  O35      1.0000 0.62640  0.41180  0.39950  Biso   1.000  O
  O36      1.0000 0.60830  0.84950  0.40810  Biso   1.000  O
  O37      1.0000 0.66130  0.94560  0.47710  Biso   1.000  O
  O38      1.0000 0.10400  0.35490  0.53520  Biso   1.000  O
  O39      1.0000 0.03160  0.21900  0.51510  Biso   1.000  O
  C61      1.0000 0.03480  0.82050  0.85720  Biso   1.000  C
  C62      1.0000 0.09260  0.87790  0.82890  Biso   1.000  C
  C63      1.0000 0.15170  0.87850  0.85470  Biso   1.000  C
  H29      1.0000 0.15870  0.83510  0.88780  Biso   1.000  H
  C64      1.0000 0.20150  0.94620  0.82990  Biso   1.000  C
  C65      1.0000 0.18920  0.99360  0.77610  Biso   1.000  C
  H30      1.0000 0.22240  0.02820  0.75610  Biso   1.000  H
  C66      1.0000 0.13020  0.99200  0.75110  Biso   1.000  C
  C67      1.0000 0.08360  0.93120  0.77620  Biso   1.000  C
  H31      1.0000 0.04470  0.92460  0.75820  Biso   1.000  H
  C68      1.0000 0.26100  0.94670  0.85950  Biso   1.000  C
  C69      1.0000 0.11890  0.05570  0.69650  Biso   1.000  C
  C70      1.0000 0.15220  0.16540  0.68590  Biso   1.000  C
  H32      1.0000 0.18100  0.19510  0.71220  Biso   1.000  H
  C71      1.0000 0.13990  0.22910  0.63290  Biso   1.000  C
  H33      1.0000 0.16370  0.29590  0.62360  Biso   1.000  H
  C72      1.0000 0.09130  0.18920  0.59530  Biso   1.000  C
  C73      1.0000 0.07430  0.01740  0.65770  Biso   1.000  C
  H34      1.0000 0.05380  0.94520  0.66380  Biso   1.000  H
  C74      1.0000 0.86200  0.66010  0.76050  Biso   1.000  C
  C75      1.0000 0.82660  0.64960  0.70810  Biso   1.000  C
  C76      1.0000 0.83350  0.55810  0.67150  Biso   1.000  C
  H35      1.0000 0.86400  0.50060  0.67910  Biso   1.000  H
  C77      1.0000 0.75240  0.63080  0.60820  Biso   1.000  C
  C78      1.0000 0.74530  0.71710  0.64690  Biso   1.000  C
  H36      1.0000 0.71470  0.77400  0.63850  Biso   1.000  H
  C79      1.0000 0.77580  0.73270  0.69550  Biso   1.000  C
  H37      1.0000 0.76530  0.79390  0.72030  Biso   1.000  H
  C80      1.0000 0.71860  0.63040  0.55220  Biso   1.000  C
  C81      1.0000 0.70560  0.52590  0.52590  Biso   1.000  C
  H38      1.0000 0.72180  0.45520  0.54050  Biso   1.000  H
  C82      1.0000 0.66620  0.52300  0.47440  Biso   1.000  C
  C83      1.0000 0.65170  0.63260  0.45360  Biso   1.000  C
  H39      1.0000 0.63200  0.63360  0.41820  Biso   1.000  H
  C84      1.0000 0.69260  0.73740  0.52760  Biso   1.000  C
  H40      1.0000 0.69690  0.80870  0.54730  Biso   1.000  H
  C85      1.0000 0.66210  0.73830  0.47710  Biso   1.000  C
  C86      1.0000 0.65600  0.40350  0.45030  Biso   1.000  C
  C87      1.0000 0.64730  0.85310  0.45480  Biso   1.000  C
  C88      1.0000 0.79650  0.54620  0.62220  Biso   1.000  C
  H41      1.0000 0.80200  0.48010  0.59880  Biso   1.000  H
  C89      1.0000 0.05910  0.08440  0.60940  Biso   1.000  C
  H42      1.0000 0.02660  0.05840  0.58600  Biso   1.000  H
  C90      1.0000 0.07370  0.25950  0.54510  Biso   1.000  C
  Zn13     1.0000 0.09829  0.22937  0.35858  Biso   1.000  Zn
  Zn14     1.0000 0.10081  0.50592  0.35717  Biso   1.000  Zn
  Zn15     1.0000 0.16041  0.37569  0.46216  Biso   1.000  Zn
  Zn16     1.0000 0.01315  0.33146  0.44945  Biso   1.000  Zn
  O40      1.0000 0.08840  0.36670  0.40700  Biso   1.000  O
  O41      1.0000 0.01560  0.17290  0.33290  Biso   1.000  O
  O42      1.0000 0.95470  0.24060  0.40410  Biso   1.000  O
  O43      1.0000 0.73060  0.12010  0.40190  Biso   1.000  O
  O44      1.0000 0.69490  0.99130  0.33830  Biso   1.000  O
  O45      1.0000 0.10040  0.41530  0.27370  Biso   1.000  O
  O46      1.0000 0.14940  0.24430  0.29100  Biso   1.000  O
  O47      1.0000 0.32530  0.68840  0.96800  Biso   1.000  O
  O48      1.0000 0.37360  0.58820  0.89950  Biso   1.000  O
  O49      1.0000 0.39170  0.15050  0.90810  Biso   1.000  O
  O50      1.0000 0.33870  0.05440  0.97710  Biso   1.000  O
  O51      1.0000 0.89600  0.64510  0.03520  Biso   1.000  O
  O52      1.0000 0.96840  0.78100  0.01510  Biso   1.000  O
  C91      1.0000 0.96520  0.17950  0.35720  Biso   1.000  C
  C92      1.0000 0.90740  0.12210  0.32890  Biso   1.000  C
  C93      1.0000 0.84830  0.12150  0.35470  Biso   1.000  C
  H43      1.0000 0.84130  0.16490  0.38780  Biso   1.000  H
  C94      1.0000 0.79850  0.05380  0.32990  Biso   1.000  C
  C95      1.0000 0.81080  0.00640  0.27610  Biso   1.000  C
  H44      1.0000 0.77760  0.97180  0.25610  Biso   1.000  H
  C96      1.0000 0.86980  0.00800  0.25110  Biso   1.000  C
  C97      1.0000 0.91640  0.06880  0.27620  Biso   1.000  C
  H45      1.0000 0.95530  0.07540  0.25820  Biso   1.000  H
  C98      1.0000 0.73900  0.05330  0.35950  Biso   1.000  C
  C99      1.0000 0.88110  0.94430  0.19650  Biso   1.000  C
  C100     1.0000 0.84780  0.83460  0.18590  Biso   1.000  C
  H46      1.0000 0.81900  0.80490  0.21220  Biso   1.000  H
  C101     1.0000 0.86010  0.77090  0.13290  Biso   1.000  C
  H47      1.0000 0.83630  0.70410  0.12360  Biso   1.000  H
  C102     1.0000 0.90870  0.81080  0.09530  Biso   1.000  C
  C103     1.0000 0.92570  0.98260  0.15770  Biso   1.000  C
  H48      1.0000 0.94620  0.05480  0.16380  Biso   1.000  H
  C104     1.0000 0.13800  0.33990  0.26050  Biso   1.000  C
  C105     1.0000 0.17340  0.35040  0.20810  Biso   1.000  C
  C106     1.0000 0.16650  0.44190  0.17150  Biso   1.000  C
  H49      1.0000 0.13600  0.49940  0.17910  Biso   1.000  H
  C107     1.0000 0.24760  0.36920  0.10820  Biso   1.000  C
  C108     1.0000 0.25470  0.28290  0.14690  Biso   1.000  C
  H50      1.0000 0.28530  0.22600  0.13850  Biso   1.000  H
  C109     1.0000 0.22420  0.26730  0.19550  Biso   1.000  C
  H51      1.0000 0.23470  0.20610  0.22030  Biso   1.000  H
  C110     1.0000 0.28140  0.36960  0.05220  Biso   1.000  C
  C111     1.0000 0.29440  0.47410  0.02590  Biso   1.000  C
  H52      1.0000 0.27820  0.54480  0.04050  Biso   1.000  H
  C112     1.0000 0.33380  0.47700  0.97440  Biso   1.000  C
  C113     1.0000 0.34830  0.36740  0.95360  Biso   1.000  C
  H53      1.0000 0.36800  0.36640  0.91820  Biso   1.000  H
  C114     1.0000 0.30740  0.26260  0.02760  Biso   1.000  C
  H54      1.0000 0.30310  0.19130  0.04730  Biso   1.000  H
  C115     1.0000 0.33790  0.26170  0.97710  Biso   1.000  C
  C116     1.0000 0.34400  0.59650  0.95030  Biso   1.000  C
  C117     1.0000 0.35270  0.14690  0.95480  Biso   1.000  C
  C118     1.0000 0.20350  0.45380  0.12220  Biso   1.000  C
  H55      1.0000 0.19800  0.51990  0.09880  Biso   1.000  H
  C119     1.0000 0.94090  0.91560  0.10940  Biso   1.000  C
  H56      1.0000 0.97340  0.94160  0.08600  Biso   1.000  H
  C120     1.0000 0.92630  0.74050  0.04510  Biso   1.000  C
