data_XUKYEI_neutral
_audit_creation_date              2014-07-02
_audit_creation_method            'Materials Studio'
_symmetry_space_group_name_H-M    'P1'
_symmetry_Int_Tables_number       1
_symmetry_cell_setting            triclinic
loop_
_symmetry_equiv_pos_as_xyz
  x,y,z
_cell_length_a                    17.3335
_cell_length_b                    17.3335
_cell_length_c                    23.8297
_cell_angle_alpha                 68.6727
_cell_angle_beta                  68.6727
_cell_angle_gamma                 89.9999
loop_
_atom_site_label
_atom_site_type_symbol
_atom_site_fract_x
_atom_site_fract_y
_atom_site_fract_z
_atom_site_U_iso_or_equiv
_atom_site_adp_type
_atom_site_occupancy
Cu1    Cu    0.77857   0.02857   0.94286   0.01267  Uiso   1.00
Cu2    Cu    0.02857   0.77857   0.44286   0.01267  Uiso   1.00
H1     H     0.75780   0.20820   0.91080   0.01267  Uiso   1.00
H2     H     0.72690   0.31820   0.83800   0.01267  Uiso   1.00
H3     H     0.71110   0.16890   0.74540   0.01267  Uiso   1.00
H4     H     0.74190   0.06200   0.82180   0.01267  Uiso   1.00
H5     H     0.64370   0.34650   0.75400   0.01267  Uiso   1.00
H6     H     0.68590   0.30690   0.70120   0.01267  Uiso   1.00
H7     H     0.81470   0.38630   0.66680   0.01267  Uiso   1.00
H8     H     0.77630   0.42280   0.72240   0.01267  Uiso   1.00
H9     H     0.71740   0.45200   0.61920   0.01267  Uiso   1.00
H10    H     0.68860   0.49420   0.67160   0.01267  Uiso   1.00
H11    H     0.76120   0.63480   0.63760   0.01267  Uiso   1.00
H12    H     0.87000   0.74170   0.56480   0.01267  Uiso   1.00
H13    H     0.98110   0.59610   0.47560   0.01267  Uiso   1.00
H14    H     0.87540   0.48690   0.54620   0.01267  Uiso   1.00
H15    H     0.83140   0.88100   0.91080   0.01267  Uiso   1.00
H16    H     0.93510   0.84380   0.83800   0.01267  Uiso   1.00
H17    H     0.04350   0.08570   0.74540   0.01267  Uiso   1.00
H18    H     0.93630   0.11620   0.82180   0.01267  Uiso   1.00
H19    H     0.10230   0.89950   0.75400   0.01267  Uiso   1.00
H20    H     0.11290   0.99190   0.70120   0.01267  Uiso   1.00
H21    H     0.01850   0.94690   0.66680   0.01267  Uiso   1.00
H22    H     0.00130   0.85480   0.72240   0.01267  Uiso   1.00
H23    H     0.16340   0.92880   0.61920   0.01267  Uiso   1.00
H24    H     0.13980   0.83420   0.67160   0.01267  Uiso   1.00
H25    H     0.10120   0.72760   0.63760   0.01267  Uiso   1.00
H26    H     0.06520   0.69350   0.56480   0.01267  Uiso   1.00
H27    H     0.04330   0.92830   0.47560   0.01267  Uiso   1.00
H28    H     0.07840   0.96690   0.54620   0.01267  Uiso   1.00
H29    H     0.20820   0.83140   0.41080   0.01267  Uiso   1.00
H30    H     0.31820   0.93510   0.33800   0.01267  Uiso   1.00
H31    H     0.16890   0.04350   0.24540   0.01267  Uiso   1.00
H32    H     0.06200   0.93630   0.32180   0.01267  Uiso   1.00
H33    H     0.34650   0.10230   0.25400   0.01267  Uiso   1.00
H34    H     0.30690   0.11290   0.20120   0.01267  Uiso   1.00
H35    H     0.38630   0.01850   0.16680   0.01267  Uiso   1.00
H36    H     0.42280   0.00130   0.22240   0.01267  Uiso   1.00
H37    H     0.45200   0.16340   0.11920   0.01267  Uiso   1.00
H38    H     0.49420   0.13980   0.17160   0.01267  Uiso   1.00
H39    H     0.63480   0.10120   0.13760   0.01267  Uiso   1.00
H40    H     0.74170   0.06520   0.06480   0.01267  Uiso   1.00
H41    H     0.59610   0.04330   0.97560   0.01267  Uiso   1.00
H42    H     0.48690   0.07840   0.04620   0.01267  Uiso   1.00
H43    H     0.88100   0.75780   0.41080   0.01267  Uiso   1.00
H44    H     0.84380   0.72690   0.33800   0.01267  Uiso   1.00
H45    H     0.08570   0.71110   0.24540   0.01267  Uiso   1.00
H46    H     0.11620   0.74190   0.32180   0.01267  Uiso   1.00
H47    H     0.89950   0.64370   0.25400   0.01267  Uiso   1.00
H48    H     0.99190   0.68590   0.20120   0.01267  Uiso   1.00
H49    H     0.94690   0.81470   0.16680   0.01267  Uiso   1.00
H50    H     0.85480   0.77630   0.22240   0.01267  Uiso   1.00
H51    H     0.92880   0.71740   0.11920   0.01267  Uiso   1.00
H52    H     0.83420   0.68860   0.17160   0.01267  Uiso   1.00
H53    H     0.72760   0.76120   0.13760   0.01267  Uiso   1.00
H54    H     0.69350   0.87000   0.06480   0.01267  Uiso   1.00
H55    H     0.92830   0.98110   0.97560   0.01267  Uiso   1.00
H56    H     0.96690   0.87540   0.04620   0.01267  Uiso   1.00
C1     C     0.74850   0.20040   0.87620   0.01267  Uiso   1.00
C2     C     0.72960   0.26620   0.83300   0.01267  Uiso   1.00
C3     C     0.71410   0.25790   0.78180   0.01267  Uiso   1.00
C4     C     0.72030   0.17890   0.77940   0.01267  Uiso   1.00
C5     C     0.73940   0.11540   0.82440   0.01267  Uiso   1.00
C6     C     0.69610   0.32820   0.73160   0.01267  Uiso   1.00
C7     C     0.76330   0.40280   0.69240   0.01267  Uiso   1.00
C8     C     0.73670   0.47440   0.64540   0.01267  Uiso   1.00
C9     C     0.80459   0.54709   0.60002   0.01267  Uiso   1.00
C10    C     0.80590   0.62560   0.60420   0.01267  Uiso   1.00
C11    C     0.87110   0.68920   0.56060   0.01267  Uiso   1.00
C12    C     0.93550   0.60430   0.50900   0.01267  Uiso   1.00
C13    C     0.87240   0.53900   0.55100   0.01267  Uiso   1.00
C14    C     0.87530   0.92340   0.87620   0.01267  Uiso   1.00
C15    C     0.93740   0.90080   0.83300   0.01267  Uiso   1.00
C16    C     0.00410   0.96030   0.78180   0.01267  Uiso   1.00
C17    C     0.00030   0.04170   0.77940   0.01267  Uiso   1.00
C18    C     0.93620   0.06020   0.82440   0.01267  Uiso   1.00
C19    C     0.07230   0.94020   0.73160   0.01267  Uiso   1.00
C20    C     0.04430   0.90480   0.69240   0.01267  Uiso   1.00
C21    C     0.11790   0.88020   0.64540   0.01267  Uiso   1.00
C22    C     0.09539   0.85289   0.60002   0.01267  Uiso   1.00
C23    C     0.08990   0.77020   0.60420   0.01267  Uiso   1.00
C24    C     0.06830   0.75020   0.56060   0.01267  Uiso   1.00
C25    C     0.05550   0.88670   0.50900   0.01267  Uiso   1.00
C26    C     0.07660   0.91000   0.55100   0.01267  Uiso   1.00
C27    C     0.20040   0.87530   0.37620   0.01267  Uiso   1.00
C28    C     0.26620   0.93740   0.33300   0.01267  Uiso   1.00
C29    C     0.25790   0.00410   0.28180   0.01267  Uiso   1.00
C30    C     0.17890   0.00030   0.27940   0.01267  Uiso   1.00
C31    C     0.11540   0.93620   0.32440   0.01267  Uiso   1.00
C32    C     0.32820   0.07230   0.23160   0.01267  Uiso   1.00
C33    C     0.40280   0.04430   0.19240   0.01267  Uiso   1.00
C34    C     0.47440   0.11790   0.14540   0.01267  Uiso   1.00
C35    C     0.54709   0.09539   0.10002   0.01267  Uiso   1.00
C36    C     0.62560   0.08990   0.10420   0.01267  Uiso   1.00
C37    C     0.68920   0.06830   0.06060   0.01267  Uiso   1.00
C38    C     0.60430   0.05550   0.00900   0.01267  Uiso   1.00
C39    C     0.53900   0.07660   0.05100   0.01267  Uiso   1.00
C40    C     0.92340   0.74850   0.37620   0.01267  Uiso   1.00
C41    C     0.90080   0.72960   0.33300   0.01267  Uiso   1.00
C42    C     0.96030   0.71410   0.28180   0.01267  Uiso   1.00
C43    C     0.04170   0.72030   0.27940   0.01267  Uiso   1.00
C44    C     0.06020   0.73940   0.32440   0.01267  Uiso   1.00
C45    C     0.94020   0.69610   0.23160   0.01267  Uiso   1.00
C46    C     0.90480   0.76330   0.19240   0.01267  Uiso   1.00
C47    C     0.88020   0.73670   0.14540   0.01267  Uiso   1.00
C48    C     0.85289   0.80459   0.10002   0.01267  Uiso   1.00
C49    C     0.77020   0.80590   0.10420   0.01267  Uiso   1.00
C50    C     0.75020   0.87110   0.06060   0.01267  Uiso   1.00
C51    C     0.88670   0.93550   0.00900   0.01267  Uiso   1.00
C52    C     0.91000   0.87240   0.05100   0.01267  Uiso   1.00
N1     N     0.75440   0.12670   0.87260   0.01267  Uiso   1.00
N2     N     0.93599   0.68069   0.51262   0.01267  Uiso   1.00
N3     N     0.87300   0.00070   0.87260   0.01267  Uiso   1.00
N4     N     0.05139   0.80669   0.51262   0.01267  Uiso   1.00
N5     N     0.12670   0.87300   0.37260   0.01267  Uiso   1.00
N6     N     0.68069   0.05139   0.01262   0.01267  Uiso   1.00
N7     N     0.00070   0.75440   0.37260   0.01267  Uiso   1.00
N8     N     0.80669   0.93599   0.01262   0.01267  Uiso   1.00
Cl1    Cl    0.67004   0.91714   0.94326   0.01267  Uiso   1.00
Cl2    Cl    0.88670   0.13960   0.94326   0.01267  Uiso   1.00
Cl3    Cl    0.91714   0.88670   0.44326   0.01267  Uiso   1.00
Cl4    Cl    0.13960   0.67004   0.44326   0.01267  Uiso   1.00
