data_image0
_cell_length_a       9.149
_cell_length_b       11.202
_cell_length_c       14.628
_cell_angle_alpha    73.526
_cell_angle_beta     88.045
_cell_angle_gamma    71.284

_symmetry_space_group_name_H-M    "P 1"
_symmetry_int_tables_number       1

loop_
  _symmetry_equiv_pos_as_xyz
  'x, y, z'

loop_
  _atom_site_label
  _atom_site_occupancy
  _atom_site_fract_x
  _atom_site_fract_y
  _atom_site_fract_z
  _atom_site_thermal_displace_type
  _atom_site_B_iso_or_equiv
  _atom_site_type_symbol
  Zn1      1.0000 0.84960  0.18320  0.98636  Biso   1.000  Zn
  Zn2      1.0000 0.29060  0.23640  0.73990  Biso   1.000  Zn
  Zn3      1.0000 0.50550  0.48730  0.15234  Biso   1.000  Zn
  P1       1.0000 0.75010  0.47920  0.99700  Biso   1.000  P
  P2       1.0000 0.06580  0.07960  0.83640  Biso   1.000  P
  H1       1.0000 0.97370  0.12280  0.76130  Biso   1.000  H
  P3       1.0000 0.58880  0.22750  0.83570  Biso   1.000  P
  H2       1.0000 0.64780  0.15460  0.76660  Biso   1.000  H
  O1       1.0000 0.65930  0.54090  0.90560  Biso   1.000  O
  O2       1.0000 0.66900  0.52500  0.07690  Biso   1.000  O
  O3       1.0000 0.79300  0.33000  0.03600  Biso   1.000  O
  O4       1.0000 0.01430  0.16780  0.90050  Biso   1.000  O
  O5       1.0000 0.10220  0.93330  0.88880  Biso   1.000  O
  O6       1.0000 0.19260  0.10620  0.77460  Biso   1.000  O
  O7       1.0000 0.67460  0.15990  0.93110  Biso   1.000  O
  O8       1.0000 0.43100  0.20750  0.84830  Biso   1.000  O
  O9       1.0000 0.57760  0.36910  0.79290  Biso   1.000  O
  N1       1.0000 0.63840  0.83610  0.96350  Biso   1.000  N
  H3       1.0000 0.62230  0.81780  0.02950  Biso   1.000  H
  N2       1.0000 0.14640  0.42650  0.70310  Biso   1.000  N
  N3       1.0000 0.58200  0.32860  0.27110  Biso   1.000  N
  N4       1.0000 0.65660  0.01280  0.60990  Biso   1.000  N
  N5       1.0000 0.83330  0.89770  0.53210  Biso   1.000  N
  C1       1.0000 0.78700  0.80260  0.93960  Biso   1.000  C
  H4       1.0000 0.86650  0.76680  0.98720  Biso   1.000  H
  C2       1.0000 0.82100  0.82070  0.84700  Biso   1.000  C
  H5       1.0000 0.92360  0.79760  0.83130  Biso   1.000  H
  C3       1.0000 0.52100  0.89030  0.89700  Biso   1.000  C
  H6       1.0000 0.41950  0.91670  0.91510  Biso   1.000  H
  C4       1.0000 0.54950  0.90740  0.79950  Biso   1.000  C
  H7       1.0000 0.46900  0.94020  0.75270  Biso   1.000  H
  C5       1.0000 0.70420  0.87310  0.77590  Biso   1.000  C
  C6       1.0000 0.16700  0.51700  0.62620  Biso   1.000  C
  H8       1.0000 0.24700  0.49100  0.58780  Biso   1.000  H
  C7       1.0000 0.07500  0.64700  0.60110  Biso   1.000  C
  H9       1.0000 0.09770  0.70820  0.54960  Biso   1.000  H
  C8       1.0000 0.03000  0.46600  0.75570  Biso   1.000  C
  H10      1.0000 0.01890  0.40550  0.81180  Biso   1.000  H
  C9       1.0000 0.92500  0.58990  0.73270  Biso   1.000  C
  H11      1.0000 0.83960  0.60980  0.76880  Biso   1.000  H
  C10      1.0000 0.94700  0.68760  0.65320  Biso   1.000  C
  C11      1.0000 0.69700  0.22290  0.27360  Biso   1.000  C
  H12      1.0000 0.74940  0.21780  0.21850  Biso   1.000  H
  C12      1.0000 0.74400  0.11990  0.35390  Biso   1.000  C
  H13      1.0000 0.82860  0.04770  0.35200  Biso   1.000  H
  C13      1.0000 0.50400  0.33100  0.35280  Biso   1.000  C
  H14      1.0000 0.41990  0.40510  0.35260  Biso   1.000  H
  C14      1.0000 0.54500  0.23300  0.43080  Biso   1.000  C
  H15      1.0000 0.48760  0.23930  0.48410  Biso   1.000  H
  C15      1.0000 0.67200  0.11790  0.43770  Biso   1.000  C
  C16      1.0000 0.73710  0.89760  0.67340  Biso   1.000  C
  C17      1.0000 0.84400  0.82670  0.62440  Biso   1.000  C
  C18      1.0000 0.71900  0.00870  0.52510  Biso   1.000  C
  O10      1.0000 0.85300  0.34800  0.99600  Biso   1.000  O
  Zn4      1.0000 0.15040  0.81680  0.01364  Biso   1.000  Zn
  Zn5      1.0000 0.70940  0.76360  0.26010  Biso   1.000  Zn
  Zn6      1.0000 0.49450  0.51270  0.84766  Biso   1.000  Zn
  P4       1.0000 0.24990  0.52080  0.00300  Biso   1.000  P
  P5       1.0000 0.93420  0.92040  0.16360  Biso   1.000  P
  H16      1.0000 0.02630  0.87720  0.23870  Biso   1.000  H
  P6       1.0000 0.41120  0.77250  0.16430  Biso   1.000  P
  H17      1.0000 0.35220  0.84540  0.23340  Biso   1.000  H
  O11      1.0000 0.34070  0.45910  0.09440  Biso   1.000  O
  O12      1.0000 0.33100  0.47500  0.92310  Biso   1.000  O
  O13      1.0000 0.20700  0.67000  0.96400  Biso   1.000  O
  O14      1.0000 0.98570  0.83220  0.09950  Biso   1.000  O
  O15      1.0000 0.89780  0.06670  0.11120  Biso   1.000  O
  O16      1.0000 0.80740  0.89380  0.22540  Biso   1.000  O
  O17      1.0000 0.32540  0.84010  0.06890  Biso   1.000  O
  O18      1.0000 0.56900  0.79250  0.15170  Biso   1.000  O
  O19      1.0000 0.42240  0.63090  0.20710  Biso   1.000  O
  N6       1.0000 0.36160  0.16390  0.03650  Biso   1.000  N
  H18      1.0000 0.37770  0.18220  0.97050  Biso   1.000  H
  N7       1.0000 0.85360  0.57350  0.29690  Biso   1.000  N
  N8       1.0000 0.41800  0.67140  0.72890  Biso   1.000  N
  N9       1.0000 0.34340  0.98720  0.39010  Biso   1.000  N
  N10      1.0000 0.16670  0.10230  0.46790  Biso   1.000  N
  C19      1.0000 0.21300  0.19740  0.06040  Biso   1.000  C
  H19      1.0000 0.13350  0.23320  0.01280  Biso   1.000  H
  C20      1.0000 0.17900  0.17930  0.15300  Biso   1.000  C
  H20      1.0000 0.07640  0.20240  0.16870  Biso   1.000  H
  C21      1.0000 0.47900  0.10970  0.10300  Biso   1.000  C
  H21      1.0000 0.58050  0.08330  0.08490  Biso   1.000  H
  C22      1.0000 0.45050  0.09260  0.20050  Biso   1.000  C
  H22      1.0000 0.53100  0.05980  0.24730  Biso   1.000  H
  C23      1.0000 0.29580  0.12690  0.22410  Biso   1.000  C
  C24      1.0000 0.83300  0.48300  0.37380  Biso   1.000  C
  H23      1.0000 0.75300  0.50900  0.41220  Biso   1.000  H
  C25      1.0000 0.92500  0.35300  0.39890  Biso   1.000  C
  H24      1.0000 0.90230  0.29180  0.45040  Biso   1.000  H
  C26      1.0000 0.97000  0.53400  0.24430  Biso   1.000  C
  H25      1.0000 0.98110  0.59450  0.18820  Biso   1.000  H
  C27      1.0000 0.07500  0.41010  0.26730  Biso   1.000  C
  H26      1.0000 0.16040  0.39020  0.23120  Biso   1.000  H
  C28      1.0000 0.05300  0.31240  0.34680  Biso   1.000  C
  C29      1.0000 0.30300  0.77710  0.72640  Biso   1.000  C
  H27      1.0000 0.25060  0.78220  0.78150  Biso   1.000  H
  C30      1.0000 0.25600  0.88010  0.64610  Biso   1.000  C
  H28      1.0000 0.17140  0.95230  0.64800  Biso   1.000  H
  C31      1.0000 0.49600  0.66900  0.64720  Biso   1.000  C
  H29      1.0000 0.58010  0.59490  0.64740  Biso   1.000  H
  C32      1.0000 0.45500  0.76700  0.56920  Biso   1.000  C
  H30      1.0000 0.51240  0.76070  0.51590  Biso   1.000  H
  C33      1.0000 0.32800  0.88210  0.56230  Biso   1.000  C
  C34      1.0000 0.26290  0.10240  0.32660  Biso   1.000  C
  C35      1.0000 0.15600  0.17330  0.37560  Biso   1.000  C
  C36      1.0000 0.28100  0.99130  0.47490  Biso   1.000  C
  O20      1.0000 0.14700  0.65200  0.00400  Biso   1.000  O
