data_image0
_cell_length_a       8.9036
_cell_length_b       11.1229
_cell_length_c       13.851
_cell_angle_alpha    106.103
_cell_angle_beta     90.944
_cell_angle_gamma    109.83

_symmetry_space_group_name_H-M    "P 1"
_symmetry_int_tables_number       1

loop_
  _symmetry_equiv_pos_as_xyz
  'x, y, z'

loop_
  _atom_site_label
  _atom_site_occupancy
  _atom_site_fract_x
  _atom_site_fract_y
  _atom_site_fract_z
  _atom_site_thermal_displace_type
  _atom_site_B_iso_or_equiv
  _atom_site_type_symbol
  Gd1      1.0000 0.77723  0.24736  0.23730  Biso   1.000  Gd
  Mn1      1.0000 0.71086  0.59056  0.02670  Biso   1.000  Mn
  C1       1.0000 0.46290  0.70340  0.94420  Biso   1.000  C
  C2       1.0000 0.60240  0.83830  0.96590  Biso   1.000  C
  C3       1.0000 0.82060  0.97370  0.91250  Biso   1.000  C
  H1       1.0000 0.88920  0.98890  0.86370  Biso   1.000  H
  C4       1.0000 0.70030  0.28590  0.48940  Biso   1.000  C
  C5       1.0000 0.76790  0.43550  0.53720  Biso   1.000  C
  C6       1.0000 0.84520  0.07420  0.00430  Biso   1.000  C
  C7       1.0000 0.98430  0.20780  0.03490  Biso   1.000  C
  C8       1.0000 0.62230  0.94150  0.05440  Biso   1.000  C
  C9       1.0000 0.51140  0.93550  0.13590  Biso   1.000  C
  C10      1.0000 0.74220  0.63820  0.55100  Biso   1.000  C
  H2       1.0000 0.68990  0.68890  0.53170  Biso   1.000  H
  C11      1.0000 0.87550  0.70260  0.62440  Biso   1.000  C
  C12      1.0000 0.95020  0.85280  0.67440  Biso   1.000  C
  C13      1.0000 0.90440  0.50080  0.60880  Biso   1.000  C
  C14      1.0000 0.01110  0.43490  0.64160  Biso   1.000  C
  N1       1.0000 0.69850  0.85450  0.89350  Biso   1.000  N
  N2       1.0000 0.74510  0.05930  0.07370  Biso   1.000  N
  N3       1.0000 0.68650  0.50420  0.50690  Biso   1.000  N
  N4       1.0000 0.95460  0.63230  0.65190  Biso   1.000  N
  O1       1.0000 0.48490  0.61280  0.97380  Biso   1.000  O
  O2       1.0000 0.33950  0.69250  0.89380  Biso   1.000  O
  O3       1.0000 0.08820  0.22780  0.97570  Biso   1.000  O
  O4       1.0000 0.98160  0.28820  0.11930  Biso   1.000  O
  O5       1.0000 0.54830  0.04350  0.21010  Biso   1.000  O
  O6       1.0000 0.39260  0.83510  0.12220  Biso   1.000  O
  O7       1.0000 0.73880  0.23780  0.40440  Biso   1.000  O
  O8       1.0000 0.60810  0.22110  0.53900  Biso   1.000  O
  O9       1.0000 0.88310  0.92570  0.65480  Biso   1.000  O
  O10      1.0000 0.08100  0.89240  0.73160  Biso   1.000  O
  O11      1.0000 0.12840  0.51300  0.70750  Biso   1.000  O
  O12      1.0000 0.97670  0.31370  0.59830  Biso   1.000  O
  Gd2      1.0000 0.22277  0.75264  0.76270  Biso   1.000  Gd
  Mn2      1.0000 0.28914  0.40944  0.97330  Biso   1.000  Mn
  C15      1.0000 0.53710  0.29660  0.05580  Biso   1.000  C
  C16      1.0000 0.39760  0.16170  0.03410  Biso   1.000  C
  C17      1.0000 0.17940  0.02630  0.08750  Biso   1.000  C
  H3       1.0000 0.11080  0.01110  0.13630  Biso   1.000  H
  C18      1.0000 0.29970  0.71410  0.51060  Biso   1.000  C
  C19      1.0000 0.23210  0.56450  0.46280  Biso   1.000  C
  C20      1.0000 0.15480  0.92580  0.99570  Biso   1.000  C
  C21      1.0000 0.01570  0.79220  0.96510  Biso   1.000  C
  C22      1.0000 0.37770  0.05850  0.94560  Biso   1.000  C
  C23      1.0000 0.48860  0.06450  0.86410  Biso   1.000  C
  C24      1.0000 0.25780  0.36180  0.44900  Biso   1.000  C
  H4       1.0000 0.31010  0.31110  0.46830  Biso   1.000  H
  C25      1.0000 0.12450  0.29740  0.37560  Biso   1.000  C
  C26      1.0000 0.04980  0.14720  0.32560  Biso   1.000  C
  C27      1.0000 0.09560  0.49920  0.39120  Biso   1.000  C
  C28      1.0000 0.98890  0.56510  0.35840  Biso   1.000  C
  N5       1.0000 0.30150  0.14550  0.10650  Biso   1.000  N
  N6       1.0000 0.25490  0.94070  0.92630  Biso   1.000  N
  N7       1.0000 0.31350  0.49580  0.49310  Biso   1.000  N
  N8       1.0000 0.04540  0.36770  0.34810  Biso   1.000  N
  O13      1.0000 0.51510  0.38720  0.02620  Biso   1.000  O
  O14      1.0000 0.66050  0.30750  0.10620  Biso   1.000  O
  O15      1.0000 0.91180  0.77220  0.02430  Biso   1.000  O
  O16      1.0000 0.01840  0.71180  0.88070  Biso   1.000  O
  O17      1.0000 0.45170  0.95650  0.78990  Biso   1.000  O
  O18      1.0000 0.60740  0.16490  0.87780  Biso   1.000  O
  O19      1.0000 0.26120  0.76220  0.59560  Biso   1.000  O
  O20      1.0000 0.39190  0.77890  0.46100  Biso   1.000  O
  O21      1.0000 0.11690  0.07430  0.34520  Biso   1.000  O
  O22      1.0000 0.91900  0.10760  0.26840  Biso   1.000  O
  O23      1.0000 0.87160  0.48700  0.29250  Biso   1.000  O
  O24      1.0000 0.02330  0.68630  0.40170  Biso   1.000  O
  Mn3      1.0000 0.50000  0.00000  0.50000  Biso   1.000  Mn
