data_image0
_cell_length_a       27.246
_cell_length_b       10.443
_cell_length_c       9.361
_cell_angle_alpha    90
_cell_angle_beta     101.743
_cell_angle_gamma    90

_symmetry_space_group_name_H-M    "P 1"
_symmetry_int_tables_number       1

loop_
  _symmetry_equiv_pos_as_xyz
  'x, y, z'

loop_
  _atom_site_label
  _atom_site_occupancy
  _atom_site_fract_x
  _atom_site_fract_y
  _atom_site_fract_z
  _atom_site_thermal_displace_type
  _atom_site_B_iso_or_equiv
  _atom_site_type_symbol
  N1       1.0000 0.14628  0.27240  0.57310  Biso   1.000  N
  C1       1.0000 0.14984  0.16510  0.57860  Biso   1.000  C
  N2       1.0000 0.64628  0.77240  0.57310  Biso   1.000  N
  C2       1.0000 0.64984  0.66510  0.57860  Biso   1.000  C
  N3       1.0000 0.85372  0.27240  0.42690  Biso   1.000  N
  C3       1.0000 0.85016  0.16510  0.42140  Biso   1.000  C
  N4       1.0000 0.35372  0.77240  0.42690  Biso   1.000  N
  C4       1.0000 0.35016  0.66510  0.42140  Biso   1.000  C
  N5       1.0000 0.85372  0.72760  0.42690  Biso   1.000  N
  C5       1.0000 0.85016  0.83490  0.42140  Biso   1.000  C
  N6       1.0000 0.35372  0.22760  0.42690  Biso   1.000  N
  C6       1.0000 0.35016  0.33490  0.42140  Biso   1.000  C
  N7       1.0000 0.14628  0.72760  0.57310  Biso   1.000  N
  C7       1.0000 0.14984  0.83490  0.57860  Biso   1.000  C
  N8       1.0000 0.64628  0.22760  0.57310  Biso   1.000  N
  C8       1.0000 0.64984  0.33490  0.57860  Biso   1.000  C
  Cd1      1.0000 0.00000  0.00000  0.00000  Biso   1.000  Cd
  Cd2      1.0000 0.50000  0.50000  0.00000  Biso   1.000  Cd
  Cd3      1.0000 0.14004  0.50000  0.55635  Biso   1.000  Cd
  Cu1      1.0000 0.04689  0.50000  0.00484  Biso   1.000  Cu
  N9       1.0000 0.09930  0.50000  0.32990  Biso   1.000  N
  N10      1.0000 0.10180  0.50000  0.74580  Biso   1.000  N
  C9       1.0000 0.08290  0.50000  0.20980  Biso   1.000  C
  C10      1.0000 0.08080  0.50000  0.83910  Biso   1.000  C
  Cd4      1.0000 0.64004  0.00000  0.55635  Biso   1.000  Cd
  Cu2      1.0000 0.54689  0.00000  0.00484  Biso   1.000  Cu
  N11      1.0000 0.59930  0.00000  0.32990  Biso   1.000  N
  N12      1.0000 0.60180  0.00000  0.74580  Biso   1.000  N
  C11      1.0000 0.58290  0.00000  0.20980  Biso   1.000  C
  C12      1.0000 0.58080  0.00000  0.83910  Biso   1.000  C
  Cd5      1.0000 0.85996  0.50000  0.44365  Biso   1.000  Cd
  Cu3      1.0000 0.95311  0.50000  0.99516  Biso   1.000  Cu
  N13      1.0000 0.90070  0.50000  0.67010  Biso   1.000  N
  N14      1.0000 0.89820  0.50000  0.25420  Biso   1.000  N
  C13      1.0000 0.91710  0.50000  0.79020  Biso   1.000  C
  C14      1.0000 0.91920  0.50000  0.16090  Biso   1.000  C
  Cd6      1.0000 0.35996  0.00000  0.44365  Biso   1.000  Cd
  Cu4      1.0000 0.45311  0.00000  0.99516  Biso   1.000  Cu
  N15      1.0000 0.40070  0.00000  0.67010  Biso   1.000  N
  N16      1.0000 0.39820  0.00000  0.25420  Biso   1.000  N
  C15      1.0000 0.41710  0.00000  0.79020  Biso   1.000  C
  C16      1.0000 0.41920  0.00000  0.16090  Biso   1.000  C
  Cu5      1.0000 0.16489  0.00000  0.44574  Biso   1.000  Cu
  Cu6      1.0000 0.14867  0.00000  0.70516  Biso   1.000  Cu
  N17      1.0000 0.27780  0.00000  0.43750  Biso   1.000  N
  N18      1.0000 0.24110  0.00000  0.96440  Biso   1.000  N
  N19      1.0000 0.07650  0.00000  0.17900  Biso   1.000  N
  N20      1.0000 0.05040  0.00000  0.82450  Biso   1.000  N
  C17      1.0000 0.23580  0.00000  0.44480  Biso   1.000  C
  C18      1.0000 0.20830  0.00000  0.86670  Biso   1.000  C
  C19      1.0000 0.11140  0.00000  0.27240  Biso   1.000  C
  C20      1.0000 0.08500  0.00000  0.77430  Biso   1.000  C
  Cu7      1.0000 0.66489  0.50000  0.44574  Biso   1.000  Cu
  Cu8      1.0000 0.64867  0.50000  0.70516  Biso   1.000  Cu
  N21      1.0000 0.77780  0.50000  0.43750  Biso   1.000  N
  N22      1.0000 0.74110  0.50000  0.96440  Biso   1.000  N
  N23      1.0000 0.57650  0.50000  0.17900  Biso   1.000  N
  N24      1.0000 0.55040  0.50000  0.82450  Biso   1.000  N
  C21      1.0000 0.73580  0.50000  0.44480  Biso   1.000  C
  C22      1.0000 0.70830  0.50000  0.86670  Biso   1.000  C
  C23      1.0000 0.61140  0.50000  0.27240  Biso   1.000  C
  C24      1.0000 0.58500  0.50000  0.77430  Biso   1.000  C
  Cu9      1.0000 0.83511  0.00000  0.55426  Biso   1.000  Cu
  Cu10     1.0000 0.85133  0.00000  0.29484  Biso   1.000  Cu
  N25      1.0000 0.72220  0.00000  0.56250  Biso   1.000  N
  N26      1.0000 0.75890  0.00000  0.03560  Biso   1.000  N
  N27      1.0000 0.92350  0.00000  0.82100  Biso   1.000  N
  N28      1.0000 0.94960  0.00000  0.17550  Biso   1.000  N
  C25      1.0000 0.76420  0.00000  0.55520  Biso   1.000  C
  C26      1.0000 0.79170  0.00000  0.13330  Biso   1.000  C
  C27      1.0000 0.88860  0.00000  0.72760  Biso   1.000  C
  C28      1.0000 0.91500  0.00000  0.22570  Biso   1.000  C
  Cu11     1.0000 0.33511  0.50000  0.55426  Biso   1.000  Cu
  Cu12     1.0000 0.35133  0.50000  0.29484  Biso   1.000  Cu
  N29      1.0000 0.22220  0.50000  0.56250  Biso   1.000  N
  N30      1.0000 0.25890  0.50000  0.03560  Biso   1.000  N
  N31      1.0000 0.42350  0.50000  0.82100  Biso   1.000  N
  N32      1.0000 0.44960  0.50000  0.17550  Biso   1.000  N
  C29      1.0000 0.26420  0.50000  0.55520  Biso   1.000  C
  C30      1.0000 0.29170  0.50000  0.13330  Biso   1.000  C
  C31      1.0000 0.38860  0.50000  0.72760  Biso   1.000  C
  C32      1.0000 0.41500  0.50000  0.22570  Biso   1.000  C
  N33      1.0000 0.00000  0.22320  0.00000  Biso   1.000  N
  C33      1.0000 0.00000  0.33250  0.00000  Biso   1.000  C
  N34      1.0000 0.50000  0.72320  0.00000  Biso   1.000  N
  C34      1.0000 0.50000  0.83250  0.00000  Biso   1.000  C
  N35      1.0000 0.00000  0.77680  0.00000  Biso   1.000  N
  C35      1.0000 0.00000  0.66750  0.00000  Biso   1.000  C
  N36      1.0000 0.50000  0.27680  0.00000  Biso   1.000  N
  C36      1.0000 0.50000  0.16750  0.00000  Biso   1.000  C
