data_image0
_cell_length_a       20.658
_cell_length_b       20.658
_cell_length_c       5.6117
_cell_angle_alpha    90
_cell_angle_beta     90
_cell_angle_gamma    90

_symmetry_space_group_name_H-M    "P 1"
_symmetry_int_tables_number       1

loop_
  _symmetry_equiv_pos_as_xyz
  'x, y, z'

loop_
  _atom_site_label
  _atom_site_occupancy
  _atom_site_fract_x
  _atom_site_fract_y
  _atom_site_fract_z
  _atom_site_thermal_displace_type
  _atom_site_B_iso_or_equiv
  _atom_site_type_symbol
  N1       1.0000 0.15360  0.22580  0.20430  Biso   1.000  N
  C1       1.0000 0.11390  0.25070  0.04780  Biso   1.000  C
  H1       1.0000 0.13000  0.28040  0.93830  Biso   1.000  H
  C2       1.0000 0.05060  0.23520  0.03900  Biso   1.000  C
  H2       1.0000 0.02400  0.25380  0.92390  Biso   1.000  H
  C3       1.0000 0.02490  0.19100  0.20300  Biso   1.000  C
  H3       1.0000 0.98150  0.17940  0.19860  Biso   1.000  H
  C4       1.0000 0.06620  0.16540  0.36900  Biso   1.000  C
  C5       1.0000 0.13070  0.18320  0.36380  Biso   1.000  C
  H4       1.0000 0.15900  0.16510  0.47400  Biso   1.000  H
  N2       1.0000 0.04010  0.12410  0.54650  Biso   1.000  N
  H5       1.0000 0.99900  0.12620  0.56980  Biso   1.000  H
  C6       1.0000 0.07360  0.08150  0.68320  Biso   1.000  C
  O1       1.0000 0.13250  0.07520  0.67710  Biso   1.000  O
  C7       1.0000 0.03500  0.03990  0.84680  Biso   1.000  C
  C8       1.0000 0.06250  0.01820  0.04700  Biso   1.000  C
  H6       1.0000 0.10480  0.03020  0.08250  Biso   1.000  H
  C9       1.0000 0.97080  0.02190  0.79700  Biso   1.000  C
  H7       1.0000 0.95060  0.03680  0.65950  Biso   1.000  H
  N3       1.0000 0.34640  0.27420  0.20430  Biso   1.000  N
  C10      1.0000 0.38610  0.24930  0.04780  Biso   1.000  C
  H8       1.0000 0.37000  0.21960  0.93830  Biso   1.000  H
  C11      1.0000 0.44940  0.26480  0.03900  Biso   1.000  C
  H9       1.0000 0.47600  0.24620  0.92390  Biso   1.000  H
  C12      1.0000 0.47510  0.30900  0.20300  Biso   1.000  C
  H10      1.0000 0.51850  0.32060  0.19860  Biso   1.000  H
  C13      1.0000 0.43380  0.33460  0.36900  Biso   1.000  C
  C14      1.0000 0.36930  0.31680  0.36380  Biso   1.000  C
  H11      1.0000 0.34100  0.33490  0.47400  Biso   1.000  H
  N4       1.0000 0.45990  0.37590  0.54650  Biso   1.000  N
  H12      1.0000 0.50100  0.37380  0.56980  Biso   1.000  H
  C15      1.0000 0.42640  0.41850  0.68320  Biso   1.000  C
  O2       1.0000 0.36750  0.42480  0.67710  Biso   1.000  O
  C16      1.0000 0.46500  0.46010  0.84680  Biso   1.000  C
  C17      1.0000 0.43750  0.48180  0.04700  Biso   1.000  C
  H13      1.0000 0.39520  0.46980  0.08250  Biso   1.000  H
  C18      1.0000 0.52920  0.47810  0.79700  Biso   1.000  C
  H14      1.0000 0.54940  0.46320  0.65950  Biso   1.000  H
  N5       1.0000 0.27420  0.15360  0.20430  Biso   1.000  N
  C19      1.0000 0.24930  0.11390  0.04780  Biso   1.000  C
  H15      1.0000 0.21960  0.13000  0.93830  Biso   1.000  H
  C20      1.0000 0.26480  0.05060  0.03900  Biso   1.000  C
  H16      1.0000 0.24620  0.02400  0.92390  Biso   1.000  H
  C21      1.0000 0.30900  0.02490  0.20300  Biso   1.000  C
  H17      1.0000 0.32060  0.98150  0.19860  Biso   1.000  H
  C22      1.0000 0.33460  0.06620  0.36900  Biso   1.000  C
  C23      1.0000 0.31680  0.13070  0.36380  Biso   1.000  C
  H18      1.0000 0.33490  0.15900  0.47400  Biso   1.000  H
  N6       1.0000 0.37590  0.04010  0.54650  Biso   1.000  N
  H19      1.0000 0.37380  0.99900  0.56980  Biso   1.000  H
  C24      1.0000 0.41850  0.07360  0.68320  Biso   1.000  C
  O3       1.0000 0.42480  0.13250  0.67710  Biso   1.000  O
  C25      1.0000 0.46010  0.03500  0.84680  Biso   1.000  C
  C26      1.0000 0.48180  0.06250  0.04700  Biso   1.000  C
  H20      1.0000 0.46980  0.10480  0.08250  Biso   1.000  H
  C27      1.0000 0.47810  0.97080  0.79700  Biso   1.000  C
  H21      1.0000 0.46320  0.95060  0.65950  Biso   1.000  H
  N7       1.0000 0.22580  0.34640  0.20430  Biso   1.000  N
  C28      1.0000 0.25070  0.38610  0.04780  Biso   1.000  C
  H22      1.0000 0.28040  0.37000  0.93830  Biso   1.000  H
  C29      1.0000 0.23520  0.44940  0.03900  Biso   1.000  C
  H23      1.0000 0.25380  0.47600  0.92390  Biso   1.000  H
  C30      1.0000 0.19100  0.47510  0.20300  Biso   1.000  C
  H24      1.0000 0.17940  0.51850  0.19860  Biso   1.000  H
  C31      1.0000 0.16540  0.43380  0.36900  Biso   1.000  C
  C32      1.0000 0.18320  0.36930  0.36380  Biso   1.000  C
  H25      1.0000 0.16510  0.34100  0.47400  Biso   1.000  H
  N8       1.0000 0.12410  0.45990  0.54650  Biso   1.000  N
  H26      1.0000 0.12620  0.50100  0.56980  Biso   1.000  H
  C33      1.0000 0.08150  0.42640  0.68320  Biso   1.000  C
  O4       1.0000 0.07520  0.36750  0.67710  Biso   1.000  O
  C34      1.0000 0.03990  0.46500  0.84680  Biso   1.000  C
  C35      1.0000 0.01820  0.43750  0.04700  Biso   1.000  C
  H27      1.0000 0.03020  0.39520  0.08250  Biso   1.000  H
  C36      1.0000 0.02190  0.52920  0.79700  Biso   1.000  C
  H28      1.0000 0.03680  0.54940  0.65950  Biso   1.000  H
  N9       1.0000 0.84640  0.77420  0.79570  Biso   1.000  N
  C37      1.0000 0.88610  0.74930  0.95220  Biso   1.000  C
  H29      1.0000 0.87000  0.71960  0.06170  Biso   1.000  H
  C38      1.0000 0.94940  0.76480  0.96100  Biso   1.000  C
  H30      1.0000 0.97600  0.74620  0.07610  Biso   1.000  H
  C39      1.0000 0.97510  0.80900  0.79700  Biso   1.000  C
  H31      1.0000 0.01850  0.82060  0.80140  Biso   1.000  H
  C40      1.0000 0.93380  0.83460  0.63100  Biso   1.000  C
  C41      1.0000 0.86930  0.81680  0.63620  Biso   1.000  C
  H32      1.0000 0.84100  0.83490  0.52600  Biso   1.000  H
  N10      1.0000 0.95990  0.87590  0.45350  Biso   1.000  N
  H33      1.0000 0.00100  0.87380  0.43020  Biso   1.000  H
  C42      1.0000 0.92640  0.91850  0.31680  Biso   1.000  C
  O5       1.0000 0.86750  0.92480  0.32290  Biso   1.000  O
  C43      1.0000 0.96500  0.96010  0.15320  Biso   1.000  C
  C44      1.0000 0.93750  0.98180  0.95300  Biso   1.000  C
  H34      1.0000 0.89520  0.96980  0.91750  Biso   1.000  H
  C45      1.0000 0.02920  0.97810  0.20300  Biso   1.000  C
  H35      1.0000 0.04940  0.96320  0.34050  Biso   1.000  H
  N11      1.0000 0.65360  0.72580  0.79570  Biso   1.000  N
  C46      1.0000 0.61390  0.75070  0.95220  Biso   1.000  C
  H36      1.0000 0.63000  0.78040  0.06170  Biso   1.000  H
  C47      1.0000 0.55060  0.73520  0.96100  Biso   1.000  C
  H37      1.0000 0.52400  0.75380  0.07610  Biso   1.000  H
  C48      1.0000 0.52490  0.69100  0.79700  Biso   1.000  C
  H38      1.0000 0.48150  0.67940  0.80140  Biso   1.000  H
  C49      1.0000 0.56620  0.66540  0.63100  Biso   1.000  C
  C50      1.0000 0.63070  0.68320  0.63620  Biso   1.000  C
  H39      1.0000 0.65900  0.66510  0.52600  Biso   1.000  H
  N12      1.0000 0.54010  0.62410  0.45350  Biso   1.000  N
  H40      1.0000 0.49900  0.62620  0.43020  Biso   1.000  H
  C51      1.0000 0.57360  0.58150  0.31680  Biso   1.000  C
  O6       1.0000 0.63250  0.57520  0.32290  Biso   1.000  O
  C52      1.0000 0.53500  0.53990  0.15320  Biso   1.000  C
  C53      1.0000 0.56250  0.51820  0.95300  Biso   1.000  C
  H41      1.0000 0.60480  0.53020  0.91750  Biso   1.000  H
  C54      1.0000 0.47080  0.52190  0.20300  Biso   1.000  C
  H42      1.0000 0.45060  0.53680  0.34050  Biso   1.000  H
  N13      1.0000 0.72580  0.84640  0.79570  Biso   1.000  N
  C55      1.0000 0.75070  0.88610  0.95220  Biso   1.000  C
  H43      1.0000 0.78040  0.87000  0.06170  Biso   1.000  H
  C56      1.0000 0.73520  0.94940  0.96100  Biso   1.000  C
  H44      1.0000 0.75380  0.97600  0.07610  Biso   1.000  H
  C57      1.0000 0.69100  0.97510  0.79700  Biso   1.000  C
  H45      1.0000 0.67940  0.01850  0.80140  Biso   1.000  H
  C58      1.0000 0.66540  0.93380  0.63100  Biso   1.000  C
  C59      1.0000 0.68320  0.86930  0.63620  Biso   1.000  C
  H46      1.0000 0.66510  0.84100  0.52600  Biso   1.000  H
  N14      1.0000 0.62410  0.95990  0.45350  Biso   1.000  N
  H47      1.0000 0.62620  0.00100  0.43020  Biso   1.000  H
  C60      1.0000 0.58150  0.92640  0.31680  Biso   1.000  C
  O7       1.0000 0.57520  0.86750  0.32290  Biso   1.000  O
  C61      1.0000 0.53990  0.96500  0.15320  Biso   1.000  C
  C62      1.0000 0.51820  0.93750  0.95300  Biso   1.000  C
  H48      1.0000 0.53020  0.89520  0.91750  Biso   1.000  H
  C63      1.0000 0.52190  0.02920  0.20300  Biso   1.000  C
  H49      1.0000 0.53680  0.04940  0.34050  Biso   1.000  H
  N15      1.0000 0.77420  0.65360  0.79570  Biso   1.000  N
  C64      1.0000 0.74930  0.61390  0.95220  Biso   1.000  C
  H50      1.0000 0.71960  0.63000  0.06170  Biso   1.000  H
  C65      1.0000 0.76480  0.55060  0.96100  Biso   1.000  C
  H51      1.0000 0.74620  0.52400  0.07610  Biso   1.000  H
  C66      1.0000 0.80900  0.52490  0.79700  Biso   1.000  C
  H52      1.0000 0.82060  0.48150  0.80140  Biso   1.000  H
  C67      1.0000 0.83460  0.56620  0.63100  Biso   1.000  C
  C68      1.0000 0.81680  0.63070  0.63620  Biso   1.000  C
  H53      1.0000 0.83490  0.65900  0.52600  Biso   1.000  H
  N16      1.0000 0.87590  0.54010  0.45350  Biso   1.000  N
  H54      1.0000 0.87380  0.49900  0.43020  Biso   1.000  H
  C69      1.0000 0.91850  0.57360  0.31680  Biso   1.000  C
  O8       1.0000 0.92480  0.63250  0.32290  Biso   1.000  O
  C70      1.0000 0.96010  0.53500  0.15320  Biso   1.000  C
  C71      1.0000 0.98180  0.56250  0.95300  Biso   1.000  C
  H55      1.0000 0.96980  0.60480  0.91750  Biso   1.000  H
  C72      1.0000 0.97810  0.47080  0.20300  Biso   1.000  C
  H56      1.0000 0.96320  0.45060  0.34050  Biso   1.000  H
  Cu1      1.0000 0.25000  0.25000  0.21020  Biso   1.000  Cu
  Br1      1.0000 0.25000  0.25000  0.70760  Biso   1.000  Br
  Cu2      1.0000 0.75000  0.75000  0.78980  Biso   1.000  Cu
  Br2      1.0000 0.75000  0.75000  0.29240  Biso   1.000  Br
