data_image0
_cell_length_a       21.6145
_cell_length_b       21.6145
_cell_length_c       5.1678
_cell_angle_alpha    90
_cell_angle_beta     90
_cell_angle_gamma    90

_symmetry_space_group_name_H-M    "P 1"
_symmetry_int_tables_number       1

loop_
  _symmetry_equiv_pos_as_xyz
  'x, y, z'

loop_
  _atom_site_label
  _atom_site_occupancy
  _atom_site_fract_x
  _atom_site_fract_y
  _atom_site_fract_z
  _atom_site_thermal_displace_type
  _atom_site_B_iso_or_equiv
  _atom_site_type_symbol
  N1       1.0000 0.91190  0.96346  0.70030  Biso   1.000  N
  C1       1.0000 0.87016  0.98429  0.53380  Biso   1.000  C
  H1       1.0000 0.88120  0.01590  0.42090  Biso   1.000  H
  C2       1.0000 0.81005  0.96025  0.52200  Biso   1.000  C
  H2       1.0000 0.78160  0.97530  0.40260  Biso   1.000  H
  C3       1.0000 0.79407  0.91333  0.69350  Biso   1.000  C
  H3       1.0000 0.75450  0.89650  0.69050  Biso   1.000  H
  C4       1.0000 0.83762  0.89176  0.86910  Biso   1.000  C
  C5       1.0000 0.89613  0.91916  0.86880  Biso   1.000  C
  H4       1.0000 0.92520  0.90620  0.98990  Biso   1.000  H
  N2       1.0000 0.81999  0.84374  0.03800  Biso   1.000  N
  H5       1.0000 0.78100  0.83860  0.06370  Biso   1.000  H
  C6       1.0000 0.85903  0.80482  0.16390  Biso   1.000  C
  O1       1.0000 0.91541  0.81079  0.17080  Biso   1.000  O
  C7       1.0000 0.82785  0.75142  0.29410  Biso   1.000  C
  C8       1.0000 0.85479  0.72410  0.50920  Biso   1.000  C
  H6       1.0000 0.89060  0.74090  0.58010  Biso   1.000  H
  N3       1.0000 0.08810  0.03654  0.70030  Biso   1.000  N
  C9       1.0000 0.12984  0.01571  0.53380  Biso   1.000  C
  H7       1.0000 0.11880  0.98410  0.42090  Biso   1.000  H
  C10      1.0000 0.18995  0.03975  0.52200  Biso   1.000  C
  H8       1.0000 0.21840  0.02470  0.40260  Biso   1.000  H
  C11      1.0000 0.20593  0.08667  0.69350  Biso   1.000  C
  H9       1.0000 0.24550  0.10350  0.69050  Biso   1.000  H
  C12      1.0000 0.16238  0.10824  0.86910  Biso   1.000  C
  C13      1.0000 0.10387  0.08084  0.86880  Biso   1.000  C
  H10      1.0000 0.07480  0.09380  0.98990  Biso   1.000  H
  N4       1.0000 0.18001  0.15626  0.03800  Biso   1.000  N
  H11      1.0000 0.21900  0.16140  0.06370  Biso   1.000  H
  C14      1.0000 0.14097  0.19518  0.16390  Biso   1.000  C
  O2       1.0000 0.08459  0.18921  0.17080  Biso   1.000  O
  C15      1.0000 0.17215  0.24858  0.29410  Biso   1.000  C
  C16      1.0000 0.14521  0.27590  0.50920  Biso   1.000  C
  H12      1.0000 0.10940  0.25910  0.58010  Biso   1.000  H
  N5       1.0000 0.03654  0.91190  0.70030  Biso   1.000  N
  C17      1.0000 0.01571  0.87016  0.53380  Biso   1.000  C
  H13      1.0000 0.98410  0.88120  0.42090  Biso   1.000  H
  C18      1.0000 0.03975  0.81005  0.52200  Biso   1.000  C
  H14      1.0000 0.02470  0.78160  0.40260  Biso   1.000  H
  C19      1.0000 0.08667  0.79407  0.69350  Biso   1.000  C
  H15      1.0000 0.10350  0.75450  0.69050  Biso   1.000  H
  C20      1.0000 0.10824  0.83762  0.86910  Biso   1.000  C
  C21      1.0000 0.08084  0.89613  0.86880  Biso   1.000  C
  H16      1.0000 0.09380  0.92520  0.98990  Biso   1.000  H
  N6       1.0000 0.15626  0.81999  0.03800  Biso   1.000  N
  H17      1.0000 0.16140  0.78100  0.06370  Biso   1.000  H
  C22      1.0000 0.19518  0.85903  0.16390  Biso   1.000  C
  O3       1.0000 0.18921  0.91541  0.17080  Biso   1.000  O
  C23      1.0000 0.24858  0.82785  0.29410  Biso   1.000  C
  C24      1.0000 0.27590  0.85479  0.50920  Biso   1.000  C
  H18      1.0000 0.25910  0.89060  0.58010  Biso   1.000  H
  N7       1.0000 0.96346  0.08810  0.70030  Biso   1.000  N
  C25      1.0000 0.98429  0.12984  0.53380  Biso   1.000  C
  H19      1.0000 0.01590  0.11880  0.42090  Biso   1.000  H
  C26      1.0000 0.96025  0.18995  0.52200  Biso   1.000  C
  H20      1.0000 0.97530  0.21840  0.40260  Biso   1.000  H
  C27      1.0000 0.91333  0.20593  0.69350  Biso   1.000  C
  H21      1.0000 0.89650  0.24550  0.69050  Biso   1.000  H
  C28      1.0000 0.89176  0.16238  0.86910  Biso   1.000  C
  C29      1.0000 0.91916  0.10387  0.86880  Biso   1.000  C
  H22      1.0000 0.90620  0.07480  0.98990  Biso   1.000  H
  N8       1.0000 0.84374  0.18001  0.03800  Biso   1.000  N
  H23      1.0000 0.83860  0.21900  0.06370  Biso   1.000  H
  C30      1.0000 0.80482  0.14097  0.16390  Biso   1.000  C
  O4       1.0000 0.81079  0.08459  0.17080  Biso   1.000  O
  C31      1.0000 0.75142  0.17215  0.29410  Biso   1.000  C
  C32      1.0000 0.72410  0.14521  0.50920  Biso   1.000  C
  H24      1.0000 0.74090  0.10940  0.58010  Biso   1.000  H
  N9       1.0000 0.41190  0.53654  0.70030  Biso   1.000  N
  C33      1.0000 0.37016  0.51571  0.53380  Biso   1.000  C
  H25      1.0000 0.38120  0.48410  0.42090  Biso   1.000  H
  C34      1.0000 0.31005  0.53975  0.52200  Biso   1.000  C
  H26      1.0000 0.28160  0.52470  0.40260  Biso   1.000  H
  C35      1.0000 0.29407  0.58667  0.69350  Biso   1.000  C
  H27      1.0000 0.25450  0.60350  0.69050  Biso   1.000  H
  C36      1.0000 0.33762  0.60824  0.86910  Biso   1.000  C
  C37      1.0000 0.39613  0.58084  0.86880  Biso   1.000  C
  H28      1.0000 0.42520  0.59380  0.98990  Biso   1.000  H
  N10      1.0000 0.31999  0.65626  0.03800  Biso   1.000  N
  H29      1.0000 0.28100  0.66140  0.06370  Biso   1.000  H
  C38      1.0000 0.35903  0.69518  0.16390  Biso   1.000  C
  O5       1.0000 0.41541  0.68921  0.17080  Biso   1.000  O
  C39      1.0000 0.32785  0.74858  0.29410  Biso   1.000  C
  C40      1.0000 0.35479  0.77590  0.50920  Biso   1.000  C
  H30      1.0000 0.39060  0.75910  0.58010  Biso   1.000  H
  N11      1.0000 0.58810  0.46346  0.70030  Biso   1.000  N
  C41      1.0000 0.62984  0.48429  0.53380  Biso   1.000  C
  H31      1.0000 0.61880  0.51590  0.42090  Biso   1.000  H
  C42      1.0000 0.68995  0.46025  0.52200  Biso   1.000  C
  H32      1.0000 0.71840  0.47530  0.40260  Biso   1.000  H
  C43      1.0000 0.70593  0.41333  0.69350  Biso   1.000  C
  H33      1.0000 0.74550  0.39650  0.69050  Biso   1.000  H
  C44      1.0000 0.66238  0.39176  0.86910  Biso   1.000  C
  C45      1.0000 0.60387  0.41916  0.86880  Biso   1.000  C
  H34      1.0000 0.57480  0.40620  0.98990  Biso   1.000  H
  N12      1.0000 0.68001  0.34374  0.03800  Biso   1.000  N
  H35      1.0000 0.71900  0.33860  0.06370  Biso   1.000  H
  C46      1.0000 0.64097  0.30482  0.16390  Biso   1.000  C
  O6       1.0000 0.58459  0.31079  0.17080  Biso   1.000  O
  C47      1.0000 0.67215  0.25142  0.29410  Biso   1.000  C
  C48      1.0000 0.64521  0.22410  0.50920  Biso   1.000  C
  H36      1.0000 0.60940  0.24090  0.58010  Biso   1.000  H
  N13      1.0000 0.53654  0.58810  0.70030  Biso   1.000  N
  C49      1.0000 0.51571  0.62984  0.53380  Biso   1.000  C
  H37      1.0000 0.48410  0.61880  0.42090  Biso   1.000  H
  C50      1.0000 0.53975  0.68995  0.52200  Biso   1.000  C
  H38      1.0000 0.52470  0.71840  0.40260  Biso   1.000  H
  C51      1.0000 0.58667  0.70593  0.69350  Biso   1.000  C
  H39      1.0000 0.60350  0.74550  0.69050  Biso   1.000  H
  C52      1.0000 0.60824  0.66238  0.86910  Biso   1.000  C
  C53      1.0000 0.58084  0.60387  0.86880  Biso   1.000  C
  H40      1.0000 0.59380  0.57480  0.98990  Biso   1.000  H
  N14      1.0000 0.65626  0.68001  0.03800  Biso   1.000  N
  H41      1.0000 0.66140  0.71900  0.06370  Biso   1.000  H
  C54      1.0000 0.69518  0.64097  0.16390  Biso   1.000  C
  O7       1.0000 0.68921  0.58459  0.17080  Biso   1.000  O
  C55      1.0000 0.74858  0.67215  0.29410  Biso   1.000  C
  C56      1.0000 0.77590  0.64521  0.50920  Biso   1.000  C
  H42      1.0000 0.75910  0.60940  0.58010  Biso   1.000  H
  N15      1.0000 0.46346  0.41190  0.70030  Biso   1.000  N
  C57      1.0000 0.48429  0.37016  0.53380  Biso   1.000  C
  H43      1.0000 0.51590  0.38120  0.42090  Biso   1.000  H
  C58      1.0000 0.46025  0.31005  0.52200  Biso   1.000  C
  H44      1.0000 0.47530  0.28160  0.40260  Biso   1.000  H
  C59      1.0000 0.41333  0.29407  0.69350  Biso   1.000  C
  H45      1.0000 0.39650  0.25450  0.69050  Biso   1.000  H
  C60      1.0000 0.39176  0.33762  0.86910  Biso   1.000  C
  C61      1.0000 0.41916  0.39613  0.86880  Biso   1.000  C
  H46      1.0000 0.40620  0.42520  0.98990  Biso   1.000  H
  N16      1.0000 0.34374  0.31999  0.03800  Biso   1.000  N
  H47      1.0000 0.33860  0.28100  0.06370  Biso   1.000  H
  C62      1.0000 0.30482  0.35903  0.16390  Biso   1.000  C
  O8       1.0000 0.31079  0.41541  0.17080  Biso   1.000  O
  C63      1.0000 0.25142  0.32785  0.29410  Biso   1.000  C
  C64      1.0000 0.22410  0.35479  0.50920  Biso   1.000  C
  H48      1.0000 0.24090  0.39060  0.58010  Biso   1.000  H
  Cu1      1.0000 0.00000  0.00000  0.70430  Biso   1.000  Cu
  Cl1      1.0000 0.00000  0.00000  0.20160  Biso   1.000  Cl
  Cu2      1.0000 0.50000  0.50000  0.70430  Biso   1.000  Cu
  Cl2      1.0000 0.50000  0.50000  0.20160  Biso   1.000  Cl
  C65      1.0000 0.77541  0.72459  0.18660  Biso   1.000  C
  H49      1.0000 0.75790  0.74210  0.03950  Biso   1.000  H
  C66      1.0000 0.82850  0.67150  0.61960  Biso   1.000  C
  H50      1.0000 0.84590  0.65410  0.76680  Biso   1.000  H
  C67      1.0000 0.22459  0.27541  0.18660  Biso   1.000  C
  H51      1.0000 0.24210  0.25790  0.03950  Biso   1.000  H
  C68      1.0000 0.17150  0.32850  0.61960  Biso   1.000  C
  H52      1.0000 0.15410  0.34590  0.76680  Biso   1.000  H
  C69      1.0000 0.27541  0.77541  0.18660  Biso   1.000  C
  H53      1.0000 0.25790  0.75790  0.03950  Biso   1.000  H
  C70      1.0000 0.32850  0.82850  0.61960  Biso   1.000  C
  H54      1.0000 0.34590  0.84590  0.76680  Biso   1.000  H
  C71      1.0000 0.72459  0.22459  0.18660  Biso   1.000  C
  H55      1.0000 0.74210  0.24210  0.03950  Biso   1.000  H
  C72      1.0000 0.67150  0.17150  0.61960  Biso   1.000  C
  H56      1.0000 0.65410  0.15410  0.76680  Biso   1.000  H
