data_image0
_cell_length_a       8.8305
_cell_length_b       19.9787
_cell_length_c       25.7425
_cell_angle_alpha    90
_cell_angle_beta     96.821
_cell_angle_gamma    90

_symmetry_space_group_name_H-M    "P 1"
_symmetry_int_tables_number       1

loop_
  _symmetry_equiv_pos_as_xyz
  'x, y, z'

loop_
  _atom_site_label
  _atom_site_occupancy
  _atom_site_fract_x
  _atom_site_fract_y
  _atom_site_fract_z
  _atom_site_thermal_displace_type
  _atom_site_B_iso_or_equiv
  _atom_site_type_symbol
  C1       1.0000 0.38720  0.01310  0.56744  Biso   1.000  C
  H1       1.0000 0.38150  0.98480  0.53860  Biso   1.000  H
  C2       1.0000 0.43330  0.98630  0.61618  Biso   1.000  C
  H2       1.0000 0.45990  0.94140  0.61930  Biso   1.000  H
  C3       1.0000 0.44010  0.02574  0.66004  Biso   1.000  C
  C4       1.0000 0.40160  0.09270  0.65203  Biso   1.000  C
  H3       1.0000 0.40430  0.12170  0.68040  Biso   1.000  H
  C5       1.0000 0.36020  0.11560  0.60279  Biso   1.000  C
  H4       1.0000 0.33670  0.16080  0.59860  Biso   1.000  H
  C6       1.0000 0.48480  0.99872  0.71358  Biso   1.000  C
  C7       1.0000 0.45600  0.93260  0.72500  Biso   1.000  C
  H5       1.0000 0.41190  0.90450  0.69860  Biso   1.000  H
  C8       1.0000 0.49160  0.90750  0.77469  Biso   1.000  C
  H6       1.0000 0.47300  0.86270  0.78140  Biso   1.000  H
  C9       1.0000 0.55510  0.94870  0.81477  Biso   1.000  C
  C10      1.0000 0.58490  0.01460  0.80372  Biso   1.000  C
  H7       1.0000 0.62910  0.04260  0.83010  Biso   1.000  H
  C11      1.0000 0.54950  0.03920  0.75368  Biso   1.000  C
  H8       1.0000 0.56960  0.08380  0.74680  Biso   1.000  H
  C12      1.0000 0.46860  0.87910  0.88302  Biso   1.000  C
  C13      1.0000 0.31810  0.89810  0.87699  Biso   1.000  C
  H9       1.0000 0.28940  0.93870  0.86100  Biso   1.000  H
  C14      1.0000 0.20950  0.85710  0.89461  Biso   1.000  C
  H10      1.0000 0.10760  0.86990  0.88960  Biso   1.000  H
  C15      1.0000 0.24900  0.79703  0.91963  Biso   1.000  C
  C16      1.0000 0.39890  0.77850  0.92414  Biso   1.000  C
  H11      1.0000 0.42740  0.73770  0.93960  Biso   1.000  H
  C17      1.0000 0.51000  0.81870  0.90636  Biso   1.000  C
  H12      1.0000 0.61140  0.80500  0.91010  Biso   1.000  H
  C18      1.0000 0.13140  0.75600  0.94129  Biso   1.000  C
  C19      1.0000 0.00600  0.78570  0.95954  Biso   1.000  C
  H13      1.0000 0.99420  0.83200  0.95800  Biso   1.000  H
  C20      1.0000 0.89920  0.74680  0.97990  Biso   1.000  C
  H14      1.0000 0.81630  0.76790  0.99200  Biso   1.000  H
  C21      1.0000 0.02970  0.65170  0.96547  Biso   1.000  C
  H15      1.0000 0.03840  0.60540  0.96730  Biso   1.000  H
  C22      1.0000 0.14210  0.68750  0.94469  Biso   1.000  C
  H16      1.0000 0.22440  0.66530  0.93310  Biso   1.000  H
  C23      1.0000 0.70020  0.94580  0.90348  Biso   1.000  C
  C24      1.0000 0.67930  0.94950  0.95553  Biso   1.000  C
  H17      1.0000 0.58530  0.93810  0.96580  Biso   1.000  H
  C25      1.0000 0.79610  0.97010  0.99281  Biso   1.000  C
  H18      1.0000 0.77880  0.97120  0.02770  Biso   1.000  H
  C26      1.0000 0.93740  0.98909  0.97995  Biso   1.000  C
  C27      1.0000 0.95400  0.98679  0.92698  Biso   1.000  C
  H19      1.0000 0.04590  0.00040  0.91610  Biso   1.000  H
  C28      1.0000 0.83870  0.96504  0.88997  Biso   1.000  C
  H20      1.0000 0.85570  0.96340  0.85500  Biso   1.000  H
  C29      1.0000 0.50550  0.19790  0.45234  Biso   1.000  C
  C30      1.0000 0.63310  0.23572  0.43348  Biso   1.000  C
  C31      1.0000 0.63230  0.30480  0.43077  Biso   1.000  C
  H21      1.0000 0.55290  0.32840  0.44300  Biso   1.000  H
  C32      1.0000 0.74660  0.33950  0.41032  Biso   1.000  C
  H22      1.0000 0.74180  0.38600  0.40860  Biso   1.000  H
  C33      1.0000 0.86850  0.30657  0.39224  Biso   1.000  C
  C34      1.0000 0.87510  0.23670  0.39714  Biso   1.000  C
  H23      1.0000 0.95760  0.21330  0.38690  Biso   1.000  H
  C35      1.0000 0.75940  0.20270  0.41714  Biso   1.000  C
  H24      1.0000 0.76520  0.15630  0.41990  Biso   1.000  H
  C36      1.0000 0.98640  0.34299  0.36746  Biso   1.000  C
  C37      1.0000 0.13790  0.34500  0.38874  Biso   1.000  C
  H25      1.0000 0.16860  0.32200  0.41960  Biso   1.000  H
  C38      1.0000 0.24320  0.38040  0.36486  Biso   1.000  C
  H26      1.0000 0.34390  0.38240  0.38020  Biso   1.000  H
  C39      1.0000 0.20060  0.41340  0.31808  Biso   1.000  C
  H27      1.0000 0.27330  0.43700  0.30220  Biso   1.000  H
  C40      1.0000 0.05160  0.41170  0.29479  Biso   1.000  C
  C41      1.0000 0.94600  0.37682  0.32044  Biso   1.000  C
  H28      1.0000 0.84460  0.37600  0.30570  Biso   1.000  H
  C42      1.0000 0.00600  0.44500  0.24377  Biso   1.000  C
  C43      1.0000 0.06710  0.50490  0.23170  Biso   1.000  C
  H29      1.0000 0.14110  0.52450  0.25560  Biso   1.000  H
  C44      1.0000 0.02230  0.53720  0.18482  Biso   1.000  C
  H30      1.0000 0.06540  0.57830  0.17800  Biso   1.000  H
  C45      1.0000 0.91430  0.50910  0.14814  Biso   1.000  C
  C46      1.0000 0.85510  0.44790  0.15920  Biso   1.000  C
  H31      1.0000 0.78430  0.42740  0.13460  Biso   1.000  H
  C47      1.0000 0.89960  0.41600  0.20669  Biso   1.000  C
  H32      1.0000 0.85730  0.37480  0.21360  Biso   1.000  H
  C48      1.0000 0.85720  0.54640  0.09901  Biso   1.000  C
  Cd1      1.0000 0.27435  0.12089  0.47925  Biso   1.000  Cd
  N1       1.0000 0.58250  0.92218  0.86631  Biso   1.000  N
  N2       1.0000 0.35080  0.07679  0.55950  Biso   1.000  N
  N3       1.0000 0.90870  0.68057  0.98317  Biso   1.000  N
  O1       1.0000 0.39130  0.22798  0.46359  Biso   1.000  O
  O2       1.0000 0.51730  0.13634  0.45681  Biso   1.000  O
  O3       1.0000 0.78550  0.51613  0.06194  Biso   1.000  O
  O4       1.0000 0.87890  0.60749  0.09820  Biso   1.000  O
  C49      1.0000 0.61280  0.51310  0.93256  Biso   1.000  C
  H33      1.0000 0.61850  0.48480  0.96140  Biso   1.000  H
  C50      1.0000 0.56670  0.48630  0.88382  Biso   1.000  C
  H34      1.0000 0.54010  0.44140  0.88070  Biso   1.000  H
  C51      1.0000 0.55990  0.52574  0.83996  Biso   1.000  C
  C52      1.0000 0.59840  0.59270  0.84797  Biso   1.000  C
  H35      1.0000 0.59570  0.62170  0.81960  Biso   1.000  H
  C53      1.0000 0.63980  0.61560  0.89721  Biso   1.000  C
  H36      1.0000 0.66330  0.66080  0.90140  Biso   1.000  H
  C54      1.0000 0.51520  0.49872  0.78642  Biso   1.000  C
  C55      1.0000 0.54400  0.43260  0.77500  Biso   1.000  C
  H37      1.0000 0.58810  0.40450  0.80140  Biso   1.000  H
  C56      1.0000 0.50840  0.40750  0.72531  Biso   1.000  C
  H38      1.0000 0.52700  0.36270  0.71860  Biso   1.000  H
  C57      1.0000 0.44490  0.44870  0.68523  Biso   1.000  C
  C58      1.0000 0.41510  0.51460  0.69628  Biso   1.000  C
  H39      1.0000 0.37090  0.54260  0.66990  Biso   1.000  H
  C59      1.0000 0.45050  0.53920  0.74632  Biso   1.000  C
  H40      1.0000 0.43040  0.58380  0.75320  Biso   1.000  H
  C60      1.0000 0.53140  0.37910  0.61698  Biso   1.000  C
  C61      1.0000 0.68190  0.39810  0.62301  Biso   1.000  C
  H41      1.0000 0.71060  0.43870  0.63900  Biso   1.000  H
  C62      1.0000 0.79050  0.35710  0.60539  Biso   1.000  C
  H42      1.0000 0.89240  0.36990  0.61040  Biso   1.000  H
  C63      1.0000 0.75100  0.29703  0.58037  Biso   1.000  C
  C64      1.0000 0.60110  0.27850  0.57586  Biso   1.000  C
  H43      1.0000 0.57260  0.23770  0.56040  Biso   1.000  H
  C65      1.0000 0.49000  0.31870  0.59364  Biso   1.000  C
  H44      1.0000 0.38860  0.30500  0.58990  Biso   1.000  H
  C66      1.0000 0.86860  0.25600  0.55871  Biso   1.000  C
  C67      1.0000 0.99400  0.28570  0.54046  Biso   1.000  C
  H45      1.0000 0.00580  0.33200  0.54200  Biso   1.000  H
  C68      1.0000 0.10080  0.24680  0.52010  Biso   1.000  C
  H46      1.0000 0.18370  0.26790  0.50800  Biso   1.000  H
  C69      1.0000 0.97030  0.15170  0.53453  Biso   1.000  C
  H47      1.0000 0.96160  0.10540  0.53270  Biso   1.000  H
  C70      1.0000 0.85790  0.18750  0.55531  Biso   1.000  C
  H48      1.0000 0.77560  0.16530  0.56690  Biso   1.000  H
  C71      1.0000 0.29980  0.44580  0.59652  Biso   1.000  C
  C72      1.0000 0.32070  0.44950  0.54447  Biso   1.000  C
  H49      1.0000 0.41470  0.43810  0.53420  Biso   1.000  H
  C73      1.0000 0.20390  0.47010  0.50719  Biso   1.000  C
  H50      1.0000 0.22120  0.47120  0.47230  Biso   1.000  H
  C74      1.0000 0.06260  0.48909  0.52005  Biso   1.000  C
  C75      1.0000 0.04600  0.48679  0.57302  Biso   1.000  C
  H51      1.0000 0.95410  0.50040  0.58390  Biso   1.000  H
  C76      1.0000 0.16130  0.46504  0.61003  Biso   1.000  C
  H52      1.0000 0.14430  0.46340  0.64500  Biso   1.000  H
  C77      1.0000 0.49450  0.69790  0.04766  Biso   1.000  C
  C78      1.0000 0.36690  0.73572  0.06652  Biso   1.000  C
  C79      1.0000 0.36770  0.80480  0.06923  Biso   1.000  C
  H53      1.0000 0.44710  0.82840  0.05700  Biso   1.000  H
  C80      1.0000 0.25340  0.83950  0.08968  Biso   1.000  C
  H54      1.0000 0.25820  0.88600  0.09140  Biso   1.000  H
  C81      1.0000 0.13150  0.80657  0.10776  Biso   1.000  C
  C82      1.0000 0.12490  0.73670  0.10286  Biso   1.000  C
  H55      1.0000 0.04240  0.71330  0.11310  Biso   1.000  H
  C83      1.0000 0.24060  0.70270  0.08286  Biso   1.000  C
  H56      1.0000 0.23480  0.65630  0.08010  Biso   1.000  H
  C84      1.0000 0.01360  0.84299  0.13254  Biso   1.000  C
  C85      1.0000 0.86210  0.84500  0.11126  Biso   1.000  C
  H57      1.0000 0.83140  0.82200  0.08040  Biso   1.000  H
  C86      1.0000 0.75680  0.88040  0.13514  Biso   1.000  C
  H58      1.0000 0.65610  0.88240  0.11980  Biso   1.000  H
  C87      1.0000 0.79940  0.91340  0.18192  Biso   1.000  C
  H59      1.0000 0.72670  0.93700  0.19780  Biso   1.000  H
  C88      1.0000 0.94840  0.91170  0.20521  Biso   1.000  C
  C89      1.0000 0.05400  0.87682  0.17956  Biso   1.000  C
  H60      1.0000 0.15540  0.87600  0.19430  Biso   1.000  H
  C90      1.0000 0.99400  0.94500  0.25623  Biso   1.000  C
  C91      1.0000 0.93290  0.00490  0.26830  Biso   1.000  C
  H61      1.0000 0.85890  0.02450  0.24440  Biso   1.000  H
  C92      1.0000 0.97770  0.03720  0.31518  Biso   1.000  C
  H62      1.0000 0.93460  0.07830  0.32200  Biso   1.000  H
  C93      1.0000 0.08570  0.00910  0.35186  Biso   1.000  C
  C94      1.0000 0.14490  0.94790  0.34080  Biso   1.000  C
  H63      1.0000 0.21570  0.92740  0.36540  Biso   1.000  H
  C95      1.0000 0.10040  0.91600  0.29331  Biso   1.000  C
  H64      1.0000 0.14270  0.87480  0.28640  Biso   1.000  H
  C96      1.0000 0.14280  0.04640  0.40099  Biso   1.000  C
  Cd2      1.0000 0.72565  0.62089  0.02075  Biso   1.000  Cd
  N4       1.0000 0.41750  0.42218  0.63369  Biso   1.000  N
  N5       1.0000 0.64920  0.57679  0.94050  Biso   1.000  N
  N6       1.0000 0.09130  0.18057  0.51683  Biso   1.000  N
  O5       1.0000 0.60870  0.72798  0.03641  Biso   1.000  O
  O6       1.0000 0.48270  0.63634  0.04319  Biso   1.000  O
  O7       1.0000 0.21450  0.01613  0.43806  Biso   1.000  O
  O8       1.0000 0.12110  0.10749  0.40180  Biso   1.000  O
  C97      1.0000 0.61280  0.98690  0.43256  Biso   1.000  C
  H65      1.0000 0.61850  0.01520  0.46140  Biso   1.000  H
  C98      1.0000 0.56670  0.01370  0.38382  Biso   1.000  C
  H66      1.0000 0.54010  0.05860  0.38070  Biso   1.000  H
  C99      1.0000 0.55990  0.97426  0.33996  Biso   1.000  C
  C100     1.0000 0.59840  0.90730  0.34797  Biso   1.000  C
  H67      1.0000 0.59570  0.87830  0.31960  Biso   1.000  H
  C101     1.0000 0.63980  0.88440  0.39721  Biso   1.000  C
  H68      1.0000 0.66330  0.83920  0.40140  Biso   1.000  H
  C102     1.0000 0.51520  0.00128  0.28642  Biso   1.000  C
  C103     1.0000 0.54400  0.06740  0.27500  Biso   1.000  C
  H69      1.0000 0.58810  0.09550  0.30140  Biso   1.000  H
  C104     1.0000 0.50840  0.09250  0.22531  Biso   1.000  C
  H70      1.0000 0.52700  0.13730  0.21860  Biso   1.000  H
  C105     1.0000 0.44490  0.05130  0.18523  Biso   1.000  C
  C106     1.0000 0.41510  0.98540  0.19628  Biso   1.000  C
  H71      1.0000 0.37090  0.95740  0.16990  Biso   1.000  H
  C107     1.0000 0.45050  0.96080  0.24632  Biso   1.000  C
  H72      1.0000 0.43040  0.91620  0.25320  Biso   1.000  H
  C108     1.0000 0.53140  0.12090  0.11698  Biso   1.000  C
  C109     1.0000 0.68190  0.10190  0.12301  Biso   1.000  C
  H73      1.0000 0.71060  0.06130  0.13900  Biso   1.000  H
  C110     1.0000 0.79050  0.14290  0.10539  Biso   1.000  C
  H74      1.0000 0.89240  0.13010  0.11040  Biso   1.000  H
  C111     1.0000 0.75100  0.20297  0.08037  Biso   1.000  C
  C112     1.0000 0.60110  0.22150  0.07586  Biso   1.000  C
  H75      1.0000 0.57260  0.26230  0.06040  Biso   1.000  H
  C113     1.0000 0.49000  0.18130  0.09364  Biso   1.000  C
  H76      1.0000 0.38860  0.19500  0.08990  Biso   1.000  H
  C114     1.0000 0.86860  0.24400  0.05871  Biso   1.000  C
  C115     1.0000 0.99400  0.21430  0.04046  Biso   1.000  C
  H77      1.0000 0.00580  0.16800  0.04200  Biso   1.000  H
  C116     1.0000 0.10080  0.25320  0.02010  Biso   1.000  C
  H78      1.0000 0.18370  0.23210  0.00800  Biso   1.000  H
  C117     1.0000 0.97030  0.34830  0.03453  Biso   1.000  C
  H79      1.0000 0.96160  0.39460  0.03270  Biso   1.000  H
  C118     1.0000 0.85790  0.31250  0.05531  Biso   1.000  C
  H80      1.0000 0.77560  0.33470  0.06690  Biso   1.000  H
  C119     1.0000 0.29980  0.05420  0.09652  Biso   1.000  C
  C120     1.0000 0.32070  0.05050  0.04447  Biso   1.000  C
  H81      1.0000 0.41470  0.06190  0.03420  Biso   1.000  H
  C121     1.0000 0.20390  0.02990  0.00719  Biso   1.000  C
  H82      1.0000 0.22120  0.02880  0.97230  Biso   1.000  H
  C122     1.0000 0.06260  0.01091  0.02005  Biso   1.000  C
  C123     1.0000 0.04600  0.01321  0.07302  Biso   1.000  C
  H83      1.0000 0.95410  0.99960  0.08390  Biso   1.000  H
  C124     1.0000 0.16130  0.03496  0.11003  Biso   1.000  C
  H84      1.0000 0.14430  0.03660  0.14500  Biso   1.000  H
  C125     1.0000 0.49450  0.80210  0.54766  Biso   1.000  C
  C126     1.0000 0.36690  0.76428  0.56652  Biso   1.000  C
  C127     1.0000 0.36770  0.69520  0.56923  Biso   1.000  C
  H85      1.0000 0.44710  0.67160  0.55700  Biso   1.000  H
  C128     1.0000 0.25340  0.66050  0.58968  Biso   1.000  C
  H86      1.0000 0.25820  0.61400  0.59140  Biso   1.000  H
  C129     1.0000 0.13150  0.69343  0.60776  Biso   1.000  C
  C130     1.0000 0.12490  0.76330  0.60286  Biso   1.000  C
  H87      1.0000 0.04240  0.78670  0.61310  Biso   1.000  H
  C131     1.0000 0.24060  0.79730  0.58286  Biso   1.000  C
  H88      1.0000 0.23480  0.84370  0.58010  Biso   1.000  H
  C132     1.0000 0.01360  0.65701  0.63254  Biso   1.000  C
  C133     1.0000 0.86210  0.65500  0.61126  Biso   1.000  C
  H89      1.0000 0.83140  0.67800  0.58040  Biso   1.000  H
  C134     1.0000 0.75680  0.61960  0.63514  Biso   1.000  C
  H90      1.0000 0.65610  0.61760  0.61980  Biso   1.000  H
  C135     1.0000 0.79940  0.58660  0.68192  Biso   1.000  C
  H91      1.0000 0.72670  0.56300  0.69780  Biso   1.000  H
  C136     1.0000 0.94840  0.58830  0.70521  Biso   1.000  C
  C137     1.0000 0.05400  0.62318  0.67956  Biso   1.000  C
  H92      1.0000 0.15540  0.62400  0.69430  Biso   1.000  H
  C138     1.0000 0.99400  0.55500  0.75623  Biso   1.000  C
  C139     1.0000 0.93290  0.49510  0.76830  Biso   1.000  C
  H93      1.0000 0.85890  0.47550  0.74440  Biso   1.000  H
  C140     1.0000 0.97770  0.46280  0.81518  Biso   1.000  C
  H94      1.0000 0.93460  0.42170  0.82200  Biso   1.000  H
  C141     1.0000 0.08570  0.49090  0.85186  Biso   1.000  C
  C142     1.0000 0.14490  0.55210  0.84080  Biso   1.000  C
  H95      1.0000 0.21570  0.57260  0.86540  Biso   1.000  H
  C143     1.0000 0.10040  0.58400  0.79331  Biso   1.000  C
  H96      1.0000 0.14270  0.62520  0.78640  Biso   1.000  H
  C144     1.0000 0.14280  0.45360  0.90099  Biso   1.000  C
  Cd3      1.0000 0.72565  0.87911  0.52075  Biso   1.000  Cd
  N7       1.0000 0.41750  0.07782  0.13369  Biso   1.000  N
  N8       1.0000 0.64920  0.92321  0.44050  Biso   1.000  N
  N9       1.0000 0.09130  0.31943  0.01683  Biso   1.000  N
  O9       1.0000 0.60870  0.77202  0.53641  Biso   1.000  O
  O10      1.0000 0.48270  0.86366  0.54319  Biso   1.000  O
  O11      1.0000 0.21450  0.48387  0.93806  Biso   1.000  O
  O12      1.0000 0.12110  0.39251  0.90180  Biso   1.000  O
  C145     1.0000 0.38720  0.48690  0.06744  Biso   1.000  C
  H97      1.0000 0.38150  0.51520  0.03860  Biso   1.000  H
  C146     1.0000 0.43330  0.51370  0.11618  Biso   1.000  C
  H98      1.0000 0.45990  0.55860  0.11930  Biso   1.000  H
  C147     1.0000 0.44010  0.47426  0.16004  Biso   1.000  C
  C148     1.0000 0.40160  0.40730  0.15203  Biso   1.000  C
  H99      1.0000 0.40430  0.37830  0.18040  Biso   1.000  H
  C149     1.0000 0.36020  0.38440  0.10279  Biso   1.000  C
  H100     1.0000 0.33670  0.33920  0.09860  Biso   1.000  H
  C150     1.0000 0.48480  0.50128  0.21358  Biso   1.000  C
  C151     1.0000 0.45600  0.56740  0.22500  Biso   1.000  C
  H101     1.0000 0.41190  0.59550  0.19860  Biso   1.000  H
  C152     1.0000 0.49160  0.59250  0.27469  Biso   1.000  C
  H102     1.0000 0.47300  0.63730  0.28140  Biso   1.000  H
  C153     1.0000 0.55510  0.55130  0.31477  Biso   1.000  C
  C154     1.0000 0.58490  0.48540  0.30372  Biso   1.000  C
  H103     1.0000 0.62910  0.45740  0.33010  Biso   1.000  H
  C155     1.0000 0.54950  0.46080  0.25368  Biso   1.000  C
  H104     1.0000 0.56960  0.41620  0.24680  Biso   1.000  H
  C156     1.0000 0.46860  0.62090  0.38302  Biso   1.000  C
  C157     1.0000 0.31810  0.60190  0.37699  Biso   1.000  C
  H105     1.0000 0.28940  0.56130  0.36100  Biso   1.000  H
  C158     1.0000 0.20950  0.64290  0.39461  Biso   1.000  C
  H106     1.0000 0.10760  0.63010  0.38960  Biso   1.000  H
  C159     1.0000 0.24900  0.70297  0.41963  Biso   1.000  C
  C160     1.0000 0.39890  0.72150  0.42414  Biso   1.000  C
  H107     1.0000 0.42740  0.76230  0.43960  Biso   1.000  H
  C161     1.0000 0.51000  0.68130  0.40636  Biso   1.000  C
  H108     1.0000 0.61140  0.69500  0.41010  Biso   1.000  H
  C162     1.0000 0.13140  0.74400  0.44129  Biso   1.000  C
  C163     1.0000 0.00600  0.71430  0.45954  Biso   1.000  C
  H109     1.0000 0.99420  0.66800  0.45800  Biso   1.000  H
  C164     1.0000 0.89920  0.75320  0.47990  Biso   1.000  C
  H110     1.0000 0.81630  0.73210  0.49200  Biso   1.000  H
  C165     1.0000 0.02970  0.84830  0.46547  Biso   1.000  C
  H111     1.0000 0.03840  0.89460  0.46730  Biso   1.000  H
  C166     1.0000 0.14210  0.81250  0.44469  Biso   1.000  C
  H112     1.0000 0.22440  0.83470  0.43310  Biso   1.000  H
  C167     1.0000 0.70020  0.55420  0.40348  Biso   1.000  C
  C168     1.0000 0.67930  0.55050  0.45553  Biso   1.000  C
  H113     1.0000 0.58530  0.56190  0.46580  Biso   1.000  H
  C169     1.0000 0.79610  0.52990  0.49281  Biso   1.000  C
  H114     1.0000 0.77880  0.52880  0.52770  Biso   1.000  H
  C170     1.0000 0.93740  0.51091  0.47995  Biso   1.000  C
  C171     1.0000 0.95400  0.51321  0.42698  Biso   1.000  C
  H115     1.0000 0.04590  0.49960  0.41610  Biso   1.000  H
  C172     1.0000 0.83870  0.53496  0.38997  Biso   1.000  C
  H116     1.0000 0.85570  0.53660  0.35500  Biso   1.000  H
  C173     1.0000 0.50550  0.30210  0.95234  Biso   1.000  C
  C174     1.0000 0.63310  0.26428  0.93348  Biso   1.000  C
  C175     1.0000 0.63230  0.19520  0.93077  Biso   1.000  C
  H117     1.0000 0.55290  0.17160  0.94300  Biso   1.000  H
  C176     1.0000 0.74660  0.16050  0.91032  Biso   1.000  C
  H118     1.0000 0.74180  0.11400  0.90860  Biso   1.000  H
  C177     1.0000 0.86850  0.19343  0.89224  Biso   1.000  C
  C178     1.0000 0.87510  0.26330  0.89714  Biso   1.000  C
  H119     1.0000 0.95760  0.28670  0.88690  Biso   1.000  H
  C179     1.0000 0.75940  0.29730  0.91714  Biso   1.000  C
  H120     1.0000 0.76520  0.34370  0.91990  Biso   1.000  H
  C180     1.0000 0.98640  0.15701  0.86746  Biso   1.000  C
  C181     1.0000 0.13790  0.15500  0.88874  Biso   1.000  C
  H121     1.0000 0.16860  0.17800  0.91960  Biso   1.000  H
  C182     1.0000 0.24320  0.11960  0.86486  Biso   1.000  C
  H122     1.0000 0.34390  0.11760  0.88020  Biso   1.000  H
  C183     1.0000 0.20060  0.08660  0.81808  Biso   1.000  C
  H123     1.0000 0.27330  0.06300  0.80220  Biso   1.000  H
  C184     1.0000 0.05160  0.08830  0.79479  Biso   1.000  C
  C185     1.0000 0.94600  0.12318  0.82044  Biso   1.000  C
  H124     1.0000 0.84460  0.12400  0.80570  Biso   1.000  H
  C186     1.0000 0.00600  0.05500  0.74377  Biso   1.000  C
  C187     1.0000 0.06710  0.99510  0.73170  Biso   1.000  C
  H125     1.0000 0.14110  0.97550  0.75560  Biso   1.000  H
  C188     1.0000 0.02230  0.96280  0.68482  Biso   1.000  C
  H126     1.0000 0.06540  0.92170  0.67800  Biso   1.000  H
  C189     1.0000 0.91430  0.99090  0.64814  Biso   1.000  C
  C190     1.0000 0.85510  0.05210  0.65920  Biso   1.000  C
  H127     1.0000 0.78430  0.07260  0.63460  Biso   1.000  H
  C191     1.0000 0.89960  0.08400  0.70669  Biso   1.000  C
  H128     1.0000 0.85730  0.12520  0.71360  Biso   1.000  H
  C192     1.0000 0.85720  0.95360  0.59901  Biso   1.000  C
  Cd4      1.0000 0.27435  0.37911  0.97925  Biso   1.000  Cd
  N10      1.0000 0.58250  0.57782  0.36631  Biso   1.000  N
  N11      1.0000 0.35080  0.42321  0.05950  Biso   1.000  N
  N12      1.0000 0.90870  0.81943  0.48317  Biso   1.000  N
  O13      1.0000 0.39130  0.27202  0.96359  Biso   1.000  O
  O14      1.0000 0.51730  0.36366  0.95681  Biso   1.000  O
  O15      1.0000 0.78550  0.98387  0.56194  Biso   1.000  O
  O16      1.0000 0.87890  0.89251  0.59820  Biso   1.000  O
