data_image0
_cell_length_a       13.7355
_cell_length_b       40.624
_cell_length_c       20.8303
_cell_angle_alpha    90
_cell_angle_beta     90
_cell_angle_gamma    90

_symmetry_space_group_name_H-M    "P 1"
_symmetry_int_tables_number       1

loop_
  _symmetry_equiv_pos_as_xyz
  'x, y, z'

loop_
  _atom_site_label
  _atom_site_occupancy
  _atom_site_fract_x
  _atom_site_fract_y
  _atom_site_fract_z
  _atom_site_thermal_displace_type
  _atom_site_B_iso_or_equiv
  _atom_site_type_symbol
  C1       1.0000 0.27100  0.68750  0.74400  Biso   1.000  C
  C2       1.0000 0.35590  0.66270  0.73460  Biso   1.000  C
  C3       1.0000 0.90350  0.89787  0.35660  Biso   1.000  C
  H1       1.0000 0.91250  0.89350  0.31320  Biso   1.000  H
  C4       1.0000 0.97230  0.91686  0.38790  Biso   1.000  C
  H2       1.0000 0.02490  0.92510  0.36480  Biso   1.000  H
  C5       1.0000 0.96520  0.92382  0.45160  Biso   1.000  C
  C6       1.0000 0.88360  0.91110  0.47980  Biso   1.000  C
  H3       1.0000 0.87290  0.91490  0.52320  Biso   1.000  H
  C7       1.0000 0.81750  0.89303  0.44590  Biso   1.000  C
  H4       1.0000 0.76270  0.88540  0.46750  Biso   1.000  H
  C8       1.0000 0.03740  0.94372  0.48600  Biso   1.000  C
  C9       1.0000 0.12800  0.94791  0.46060  Biso   1.000  C
  H5       1.0000 0.14320  0.93800  0.42160  Biso   1.000  H
  C10      1.0000 0.19860  0.96678  0.49170  Biso   1.000  C
  H6       1.0000 0.25960  0.96930  0.47310  Biso   1.000  H
  C11      1.0000 0.17920  0.98161  0.54920  Biso   1.000  C
  C12      1.0000 0.08570  0.97785  0.57450  Biso   1.000  C
  H7       1.0000 0.06940  0.98820  0.61280  Biso   1.000  H
  C13      1.0000 0.01840  0.95910  0.54350  Biso   1.000  C
  H8       1.0000 0.95720  0.95660  0.56190  Biso   1.000  H
  C14      1.0000 0.25480  0.02873  0.68450  Biso   1.000  C
  H9       1.0000 0.25690  0.04870  0.66280  Biso   1.000  H
  C15      1.0000 0.25660  0.02850  0.75070  Biso   1.000  C
  H10      1.0000 0.26250  0.04840  0.77250  Biso   1.000  H
  C16      1.0000 0.24680  0.02866  0.89250  Biso   1.000  C
  H11      1.0000 0.24480  0.04870  0.87090  Biso   1.000  H
  C17      1.0000 0.24640  0.02893  0.95810  Biso   1.000  C
  H12      1.0000 0.24380  0.04880  0.98020  Biso   1.000  H
  C18      1.0000 0.18420  0.02054  0.09430  Biso   1.000  C
  C19      1.0000 0.21120  0.03479  0.15060  Biso   1.000  C
  H13      1.0000 0.27380  0.03130  0.16620  Biso   1.000  H
  C20      1.0000 0.14800  0.05424  0.18470  Biso   1.000  C
  H14      1.0000 0.16940  0.06440  0.22210  Biso   1.000  H
  C21      1.0000 0.05290  0.05900  0.16460  Biso   1.000  C
  C22      1.0000 0.02660  0.04461  0.10630  Biso   1.000  C
  H15      1.0000 0.96400  0.04770  0.09040  Biso   1.000  H
  C23      1.0000 0.09140  0.02613  0.07230  Biso   1.000  C
  H16      1.0000 0.07230  0.01710  0.03330  Biso   1.000  H
  C24      1.0000 0.98580  0.07831  0.20390  Biso   1.000  C
  C25      1.0000 0.99090  0.07797  0.27080  Biso   1.000  C
  H17      1.0000 0.03770  0.06520  0.29150  Biso   1.000  H
  C26      1.0000 0.92530  0.09688  0.30650  Biso   1.000  C
  H18      1.0000 0.93020  0.09660  0.35100  Biso   1.000  H
  C27      1.0000 0.84950  0.11446  0.21610  Biso   1.000  C
  H19      1.0000 0.80030  0.12680  0.19720  Biso   1.000  H
  C28      1.0000 0.91020  0.09666  0.17690  Biso   1.000  C
  H20      1.0000 0.90090  0.09680  0.13270  Biso   1.000  H
  C29      1.0000 0.61660  0.83670  0.43240  Biso   1.000  C
  C30      1.0000 0.57250  0.81209  0.47880  Biso   1.000  C
  C31      1.0000 0.50300  0.82131  0.51820  Biso   1.000  C
  H21      1.0000 0.48260  0.84310  0.51710  Biso   1.000  H
  C32      1.0000 0.45920  0.80020  0.56090  Biso   1.000  C
  H22      1.0000 0.41040  0.80800  0.58790  Biso   1.000  H
  C33      1.0000 0.48710  0.76780  0.56400  Biso   1.000  C
  C34      1.0000 0.55980  0.75930  0.52670  Biso   1.000  C
  H23      1.0000 0.58290  0.73780  0.52990  Biso   1.000  H
  C35      1.0000 0.60470  0.78005  0.48280  Biso   1.000  C
  H24      1.0000 0.65510  0.77250  0.45680  Biso   1.000  H
  C36      1.0000 0.43662  0.74409  0.60583  Biso   1.000  C
  C37      1.0000 0.34786  0.75170  0.63425  Biso   1.000  C
  H25      1.0000 0.31670  0.77140  0.62430  Biso   1.000  H
  C38      1.0000 0.30570  0.72992  0.67757  Biso   1.000  C
  H26      1.0000 0.24640  0.73500  0.69660  Biso   1.000  H
  C39      1.0000 0.35240  0.70053  0.69248  Biso   1.000  C
  C40      1.0000 0.44110  0.69292  0.66407  Biso   1.000  C
  H27      1.0000 0.47230  0.67330  0.67400  Biso   1.000  H
  C41      1.0000 0.48320  0.71470  0.62074  Biso   1.000  C
  H28      1.0000 0.54260  0.70960  0.60170  Biso   1.000  H
  N1       1.0000 0.82642  0.88579  0.38479  Biso   1.000  N
  N2       1.0000 0.85740  0.11491  0.28002  Biso   1.000  N
  O1       1.0000 0.68247  0.82435  0.39717  Biso   1.000  O
  O2       1.0000 0.59319  0.86514  0.43381  Biso   1.000  O
  O3       1.0000 0.31120  0.66984  0.77706  Biso   1.000  O
  Zn1      1.0000 0.73236  0.85604  0.33508  Biso   1.000  Zn
  O4       1.0000 0.37580  0.63420  0.72290  Biso   1.000  O
  O5       1.0000 0.18530  0.68950  0.75270  Biso   1.000  O
  C42      1.0000 0.22900  0.31250  0.74400  Biso   1.000  C
  C43      1.0000 0.14410  0.33730  0.73460  Biso   1.000  C
  C44      1.0000 0.59650  0.10213  0.35660  Biso   1.000  C
  H29      1.0000 0.58750  0.10650  0.31320  Biso   1.000  H
  C45      1.0000 0.52770  0.08314  0.38790  Biso   1.000  C
  H30      1.0000 0.47510  0.07490  0.36480  Biso   1.000  H
  C46      1.0000 0.53480  0.07618  0.45160  Biso   1.000  C
  C47      1.0000 0.61640  0.08890  0.47980  Biso   1.000  C
  H31      1.0000 0.62710  0.08510  0.52320  Biso   1.000  H
  C48      1.0000 0.68250  0.10697  0.44590  Biso   1.000  C
  H32      1.0000 0.73730  0.11460  0.46750  Biso   1.000  H
  C49      1.0000 0.46260  0.05628  0.48600  Biso   1.000  C
  C50      1.0000 0.37200  0.05209  0.46060  Biso   1.000  C
  H33      1.0000 0.35680  0.06200  0.42160  Biso   1.000  H
  C51      1.0000 0.30140  0.03322  0.49170  Biso   1.000  C
  H34      1.0000 0.24040  0.03070  0.47310  Biso   1.000  H
  C52      1.0000 0.32080  0.01839  0.54920  Biso   1.000  C
  C53      1.0000 0.41430  0.02215  0.57450  Biso   1.000  C
  H35      1.0000 0.43060  0.01180  0.61280  Biso   1.000  H
  C54      1.0000 0.48160  0.04090  0.54350  Biso   1.000  C
  H36      1.0000 0.54280  0.04340  0.56190  Biso   1.000  H
  C55      1.0000 0.24520  0.97127  0.68450  Biso   1.000  C
  H37      1.0000 0.24310  0.95130  0.66280  Biso   1.000  H
  C56      1.0000 0.24340  0.97150  0.75070  Biso   1.000  C
  H38      1.0000 0.23750  0.95160  0.77250  Biso   1.000  H
  C57      1.0000 0.25320  0.97134  0.89250  Biso   1.000  C
  H39      1.0000 0.25520  0.95130  0.87090  Biso   1.000  H
  C58      1.0000 0.25360  0.97107  0.95810  Biso   1.000  C
  H40      1.0000 0.25620  0.95120  0.98020  Biso   1.000  H
  C59      1.0000 0.31580  0.97946  0.09430  Biso   1.000  C
  C60      1.0000 0.28880  0.96521  0.15060  Biso   1.000  C
  H41      1.0000 0.22620  0.96870  0.16620  Biso   1.000  H
  C61      1.0000 0.35200  0.94576  0.18470  Biso   1.000  C
  H42      1.0000 0.33060  0.93560  0.22210  Biso   1.000  H
  C62      1.0000 0.44710  0.94100  0.16460  Biso   1.000  C
  C63      1.0000 0.47340  0.95539  0.10630  Biso   1.000  C
  H43      1.0000 0.53600  0.95230  0.09040  Biso   1.000  H
  C64      1.0000 0.40860  0.97387  0.07230  Biso   1.000  C
  H44      1.0000 0.42770  0.98290  0.03330  Biso   1.000  H
  C65      1.0000 0.51420  0.92169  0.20390  Biso   1.000  C
  C66      1.0000 0.50910  0.92203  0.27080  Biso   1.000  C
  H45      1.0000 0.46230  0.93480  0.29150  Biso   1.000  H
  C67      1.0000 0.57470  0.90312  0.30650  Biso   1.000  C
  H46      1.0000 0.56980  0.90340  0.35100  Biso   1.000  H
  C68      1.0000 0.65050  0.88554  0.21610  Biso   1.000  C
  H47      1.0000 0.69970  0.87320  0.19720  Biso   1.000  H
  C69      1.0000 0.58980  0.90334  0.17690  Biso   1.000  C
  H48      1.0000 0.59910  0.90320  0.13270  Biso   1.000  H
  C70      1.0000 0.88340  0.16330  0.43240  Biso   1.000  C
  C71      1.0000 0.92750  0.18791  0.47880  Biso   1.000  C
  C72      1.0000 0.99700  0.17869  0.51820  Biso   1.000  C
  H49      1.0000 0.01740  0.15690  0.51710  Biso   1.000  H
  C73      1.0000 0.04080  0.19980  0.56090  Biso   1.000  C
  H50      1.0000 0.08960  0.19200  0.58790  Biso   1.000  H
  C74      1.0000 0.01290  0.23220  0.56400  Biso   1.000  C
  C75      1.0000 0.94020  0.24070  0.52670  Biso   1.000  C
  H51      1.0000 0.91710  0.26220  0.52990  Biso   1.000  H
  C76      1.0000 0.89530  0.21995  0.48280  Biso   1.000  C
  H52      1.0000 0.84490  0.22750  0.45680  Biso   1.000  H
  C77      1.0000 0.06338  0.25591  0.60583  Biso   1.000  C
  C78      1.0000 0.15214  0.24830  0.63425  Biso   1.000  C
  H53      1.0000 0.18330  0.22860  0.62430  Biso   1.000  H
  C79      1.0000 0.19430  0.27008  0.67757  Biso   1.000  C
  H54      1.0000 0.25360  0.26500  0.69660  Biso   1.000  H
  C80      1.0000 0.14760  0.29947  0.69248  Biso   1.000  C
  C81      1.0000 0.05890  0.30708  0.66407  Biso   1.000  C
  H55      1.0000 0.02770  0.32670  0.67400  Biso   1.000  H
  C82      1.0000 0.01680  0.28530  0.62074  Biso   1.000  C
  H56      1.0000 0.95740  0.29040  0.60170  Biso   1.000  H
  N3       1.0000 0.67358  0.11421  0.38479  Biso   1.000  N
  N4       1.0000 0.64260  0.88509  0.28002  Biso   1.000  N
  O6       1.0000 0.81753  0.17565  0.39717  Biso   1.000  O
  O7       1.0000 0.90681  0.13486  0.43381  Biso   1.000  O
  O8       1.0000 0.18880  0.33016  0.77706  Biso   1.000  O
  Zn2      1.0000 0.76764  0.14396  0.33508  Biso   1.000  Zn
  O9       1.0000 0.12420  0.36580  0.72290  Biso   1.000  O
  O10      1.0000 0.31470  0.31050  0.75270  Biso   1.000  O
  C83      1.0000 0.77100  0.81250  0.24400  Biso   1.000  C
  C84      1.0000 0.85590  0.83730  0.23460  Biso   1.000  C
  C85      1.0000 0.40350  0.60213  0.85660  Biso   1.000  C
  H57      1.0000 0.41250  0.60650  0.81320  Biso   1.000  H
  C86      1.0000 0.47230  0.58314  0.88790  Biso   1.000  C
  H58      1.0000 0.52490  0.57490  0.86480  Biso   1.000  H
  C87      1.0000 0.46520  0.57618  0.95160  Biso   1.000  C
  C88      1.0000 0.38360  0.58890  0.97980  Biso   1.000  C
  H59      1.0000 0.37290  0.58510  0.02320  Biso   1.000  H
  C89      1.0000 0.31750  0.60697  0.94590  Biso   1.000  C
  H60      1.0000 0.26270  0.61460  0.96750  Biso   1.000  H
  C90      1.0000 0.53740  0.55628  0.98600  Biso   1.000  C
  C91      1.0000 0.62800  0.55209  0.96060  Biso   1.000  C
  H61      1.0000 0.64320  0.56200  0.92160  Biso   1.000  H
  C92      1.0000 0.69860  0.53322  0.99170  Biso   1.000  C
  H62      1.0000 0.75960  0.53070  0.97310  Biso   1.000  H
  C93      1.0000 0.67920  0.51839  0.04920  Biso   1.000  C
  C94      1.0000 0.58570  0.52215  0.07450  Biso   1.000  C
  H63      1.0000 0.56940  0.51180  0.11280  Biso   1.000  H
  C95      1.0000 0.51840  0.54090  0.04350  Biso   1.000  C
  H64      1.0000 0.45720  0.54340  0.06190  Biso   1.000  H
  C96      1.0000 0.75480  0.47127  0.18450  Biso   1.000  C
  H65      1.0000 0.75690  0.45130  0.16280  Biso   1.000  H
  C97      1.0000 0.75660  0.47150  0.25070  Biso   1.000  C
  H66      1.0000 0.76250  0.45160  0.27250  Biso   1.000  H
  C98      1.0000 0.74680  0.47134  0.39250  Biso   1.000  C
  H67      1.0000 0.74480  0.45130  0.37090  Biso   1.000  H
  C99      1.0000 0.74640  0.47107  0.45810  Biso   1.000  C
  H68      1.0000 0.74380  0.45120  0.48020  Biso   1.000  H
  C100     1.0000 0.68420  0.47946  0.59430  Biso   1.000  C
  C101     1.0000 0.71120  0.46521  0.65060  Biso   1.000  C
  H69      1.0000 0.77380  0.46870  0.66620  Biso   1.000  H
  C102     1.0000 0.64800  0.44576  0.68470  Biso   1.000  C
  H70      1.0000 0.66940  0.43560  0.72210  Biso   1.000  H
  C103     1.0000 0.55290  0.44100  0.66460  Biso   1.000  C
  C104     1.0000 0.52660  0.45539  0.60630  Biso   1.000  C
  H71      1.0000 0.46400  0.45230  0.59040  Biso   1.000  H
  C105     1.0000 0.59140  0.47387  0.57230  Biso   1.000  C
  H72      1.0000 0.57230  0.48290  0.53330  Biso   1.000  H
  C106     1.0000 0.48580  0.42169  0.70390  Biso   1.000  C
  C107     1.0000 0.49090  0.42203  0.77080  Biso   1.000  C
  H73      1.0000 0.53770  0.43480  0.79150  Biso   1.000  H
  C108     1.0000 0.42530  0.40312  0.80650  Biso   1.000  C
  H74      1.0000 0.43020  0.40340  0.85100  Biso   1.000  H
  C109     1.0000 0.34950  0.38554  0.71610  Biso   1.000  C
  H75      1.0000 0.30030  0.37320  0.69720  Biso   1.000  H
  C110     1.0000 0.41020  0.40334  0.67690  Biso   1.000  C
  H76      1.0000 0.40090  0.40320  0.63270  Biso   1.000  H
  C111     1.0000 0.11660  0.66330  0.93240  Biso   1.000  C
  C112     1.0000 0.07250  0.68791  0.97880  Biso   1.000  C
  C113     1.0000 0.00300  0.67869  0.01820  Biso   1.000  C
  H77      1.0000 0.98260  0.65690  0.01710  Biso   1.000  H
  C114     1.0000 0.95920  0.69980  0.06090  Biso   1.000  C
  H78      1.0000 0.91040  0.69200  0.08790  Biso   1.000  H
  C115     1.0000 0.98710  0.73220  0.06400  Biso   1.000  C
  C116     1.0000 0.05980  0.74070  0.02670  Biso   1.000  C
  H79      1.0000 0.08290  0.76220  0.02990  Biso   1.000  H
  C117     1.0000 0.10470  0.71995  0.98280  Biso   1.000  C
  H80      1.0000 0.15510  0.72750  0.95680  Biso   1.000  H
  C118     1.0000 0.93662  0.75591  0.10583  Biso   1.000  C
  C119     1.0000 0.84786  0.74830  0.13425  Biso   1.000  C
  H81      1.0000 0.81670  0.72860  0.12430  Biso   1.000  H
  C120     1.0000 0.80570  0.77008  0.17757  Biso   1.000  C
  H82      1.0000 0.74640  0.76500  0.19660  Biso   1.000  H
  C121     1.0000 0.85240  0.79947  0.19248  Biso   1.000  C
  C122     1.0000 0.94110  0.80708  0.16407  Biso   1.000  C
  H83      1.0000 0.97230  0.82670  0.17400  Biso   1.000  H
  C123     1.0000 0.98320  0.78530  0.12074  Biso   1.000  C
  H84      1.0000 0.04260  0.79040  0.10170  Biso   1.000  H
  N5       1.0000 0.32642  0.61421  0.88479  Biso   1.000  N
  N6       1.0000 0.35740  0.38509  0.78002  Biso   1.000  N
  O11      1.0000 0.18247  0.67565  0.89717  Biso   1.000  O
  O12      1.0000 0.09319  0.63486  0.93381  Biso   1.000  O
  O13      1.0000 0.81120  0.83016  0.27706  Biso   1.000  O
  Zn3      1.0000 0.23236  0.64396  0.83508  Biso   1.000  Zn
  O14      1.0000 0.87580  0.86580  0.22290  Biso   1.000  O
  O15      1.0000 0.68530  0.81050  0.25270  Biso   1.000  O
  C124     1.0000 0.72900  0.18750  0.24400  Biso   1.000  C
  C125     1.0000 0.64410  0.16270  0.23460  Biso   1.000  C
  C126     1.0000 0.09650  0.39787  0.85660  Biso   1.000  C
  H85      1.0000 0.08750  0.39350  0.81320  Biso   1.000  H
  C127     1.0000 0.02770  0.41686  0.88790  Biso   1.000  C
  H86      1.0000 0.97510  0.42510  0.86480  Biso   1.000  H
  C128     1.0000 0.03480  0.42382  0.95160  Biso   1.000  C
  C129     1.0000 0.11640  0.41110  0.97980  Biso   1.000  C
  H87      1.0000 0.12710  0.41490  0.02320  Biso   1.000  H
  C130     1.0000 0.18250  0.39303  0.94590  Biso   1.000  C
  H88      1.0000 0.23730  0.38540  0.96750  Biso   1.000  H
  C131     1.0000 0.96260  0.44372  0.98600  Biso   1.000  C
  C132     1.0000 0.87200  0.44791  0.96060  Biso   1.000  C
  H89      1.0000 0.85680  0.43800  0.92160  Biso   1.000  H
  C133     1.0000 0.80140  0.46678  0.99170  Biso   1.000  C
  H90      1.0000 0.74040  0.46930  0.97310  Biso   1.000  H
  C134     1.0000 0.82080  0.48161  0.04920  Biso   1.000  C
  C135     1.0000 0.91430  0.47785  0.07450  Biso   1.000  C
  H91      1.0000 0.93060  0.48820  0.11280  Biso   1.000  H
  C136     1.0000 0.98160  0.45910  0.04350  Biso   1.000  C
  H92      1.0000 0.04280  0.45660  0.06190  Biso   1.000  H
  C137     1.0000 0.74520  0.52873  0.18450  Biso   1.000  C
  H93      1.0000 0.74310  0.54870  0.16280  Biso   1.000  H
  C138     1.0000 0.74340  0.52850  0.25070  Biso   1.000  C
  H94      1.0000 0.73750  0.54840  0.27250  Biso   1.000  H
  C139     1.0000 0.75320  0.52866  0.39250  Biso   1.000  C
  H95      1.0000 0.75520  0.54870  0.37090  Biso   1.000  H
  C140     1.0000 0.75360  0.52893  0.45810  Biso   1.000  C
  H96      1.0000 0.75620  0.54880  0.48020  Biso   1.000  H
  C141     1.0000 0.81580  0.52054  0.59430  Biso   1.000  C
  C142     1.0000 0.78880  0.53479  0.65060  Biso   1.000  C
  H97      1.0000 0.72620  0.53130  0.66620  Biso   1.000  H
  C143     1.0000 0.85200  0.55424  0.68470  Biso   1.000  C
  H98      1.0000 0.83060  0.56440  0.72210  Biso   1.000  H
  C144     1.0000 0.94710  0.55900  0.66460  Biso   1.000  C
  C145     1.0000 0.97340  0.54461  0.60630  Biso   1.000  C
  H99      1.0000 0.03600  0.54770  0.59040  Biso   1.000  H
  C146     1.0000 0.90860  0.52613  0.57230  Biso   1.000  C
  H100     1.0000 0.92770  0.51710  0.53330  Biso   1.000  H
  C147     1.0000 0.01420  0.57831  0.70390  Biso   1.000  C
  C148     1.0000 0.00910  0.57797  0.77080  Biso   1.000  C
  H101     1.0000 0.96230  0.56520  0.79150  Biso   1.000  H
  C149     1.0000 0.07470  0.59688  0.80650  Biso   1.000  C
  H102     1.0000 0.06980  0.59660  0.85100  Biso   1.000  H
  C150     1.0000 0.15050  0.61446  0.71610  Biso   1.000  C
  H103     1.0000 0.19970  0.62680  0.69720  Biso   1.000  H
  C151     1.0000 0.08980  0.59666  0.67690  Biso   1.000  C
  H104     1.0000 0.09910  0.59680  0.63270  Biso   1.000  H
  C152     1.0000 0.38340  0.33670  0.93240  Biso   1.000  C
  C153     1.0000 0.42750  0.31209  0.97880  Biso   1.000  C
  C154     1.0000 0.49700  0.32131  0.01820  Biso   1.000  C
  H105     1.0000 0.51740  0.34310  0.01710  Biso   1.000  H
  C155     1.0000 0.54080  0.30020  0.06090  Biso   1.000  C
  H106     1.0000 0.58960  0.30800  0.08790  Biso   1.000  H
  C156     1.0000 0.51290  0.26780  0.06400  Biso   1.000  C
  C157     1.0000 0.44020  0.25930  0.02670  Biso   1.000  C
  H107     1.0000 0.41710  0.23780  0.02990  Biso   1.000  H
  C158     1.0000 0.39530  0.28005  0.98280  Biso   1.000  C
  H108     1.0000 0.34490  0.27250  0.95680  Biso   1.000  H
  C159     1.0000 0.56338  0.24409  0.10583  Biso   1.000  C
  C160     1.0000 0.65214  0.25170  0.13425  Biso   1.000  C
  H109     1.0000 0.68330  0.27140  0.12430  Biso   1.000  H
  C161     1.0000 0.69430  0.22992  0.17757  Biso   1.000  C
  H110     1.0000 0.75360  0.23500  0.19660  Biso   1.000  H
  C162     1.0000 0.64760  0.20053  0.19248  Biso   1.000  C
  C163     1.0000 0.55890  0.19292  0.16407  Biso   1.000  C
  H111     1.0000 0.52770  0.17330  0.17400  Biso   1.000  H
  C164     1.0000 0.51680  0.21470  0.12074  Biso   1.000  C
  H112     1.0000 0.45740  0.20960  0.10170  Biso   1.000  H
  N7       1.0000 0.17358  0.38579  0.88479  Biso   1.000  N
  N8       1.0000 0.14260  0.61491  0.78002  Biso   1.000  N
  O16      1.0000 0.31753  0.32435  0.89717  Biso   1.000  O
  O17      1.0000 0.40681  0.36514  0.93381  Biso   1.000  O
  O18      1.0000 0.68880  0.16984  0.27706  Biso   1.000  O
  Zn4      1.0000 0.26764  0.35604  0.83508  Biso   1.000  Zn
  O19      1.0000 0.62420  0.13420  0.22290  Biso   1.000  O
  O20      1.0000 0.81470  0.18950  0.25270  Biso   1.000  O
  C165     1.0000 0.25000  0.00000  0.65040  Biso   1.000  C
  C166     1.0000 0.25000  0.00000  0.78560  Biso   1.000  C
  C167     1.0000 0.25000  0.00000  0.85660  Biso   1.000  C
  C168     1.0000 0.25000  0.00000  0.99100  Biso   1.000  C
  N9       1.0000 0.25000  0.00000  0.58192  Biso   1.000  N
  N10      1.0000 0.25000  0.00000  0.05929  Biso   1.000  N
  C169     1.0000 0.75000  0.50000  0.15040  Biso   1.000  C
  C170     1.0000 0.75000  0.50000  0.28560  Biso   1.000  C
  C171     1.0000 0.75000  0.50000  0.35660  Biso   1.000  C
  C172     1.0000 0.75000  0.50000  0.49100  Biso   1.000  C
  N11      1.0000 0.75000  0.50000  0.08192  Biso   1.000  N
  N12      1.0000 0.75000  0.50000  0.55929  Biso   1.000  N
  C173     1.0000 0.22900  0.18750  0.75600  Biso   1.000  C
  C174     1.0000 0.14410  0.16270  0.76540  Biso   1.000  C
  C175     1.0000 0.59650  0.39787  0.14340  Biso   1.000  C
  H113     1.0000 0.58750  0.39350  0.18680  Biso   1.000  H
  C176     1.0000 0.52770  0.41686  0.11210  Biso   1.000  C
  H114     1.0000 0.47510  0.42510  0.13520  Biso   1.000  H
  C177     1.0000 0.53480  0.42382  0.04840  Biso   1.000  C
  C178     1.0000 0.61640  0.41110  0.02020  Biso   1.000  C
  H115     1.0000 0.62710  0.41490  0.97680  Biso   1.000  H
  C179     1.0000 0.68250  0.39303  0.05410  Biso   1.000  C
  H116     1.0000 0.73730  0.38540  0.03250  Biso   1.000  H
  C180     1.0000 0.46260  0.44372  0.01400  Biso   1.000  C
  C181     1.0000 0.37200  0.44791  0.03940  Biso   1.000  C
  H117     1.0000 0.35680  0.43800  0.07840  Biso   1.000  H
  C182     1.0000 0.30140  0.46678  0.00830  Biso   1.000  C
  H118     1.0000 0.24040  0.46930  0.02690  Biso   1.000  H
  C183     1.0000 0.32080  0.48161  0.95080  Biso   1.000  C
  C184     1.0000 0.41430  0.47785  0.92550  Biso   1.000  C
  H119     1.0000 0.43060  0.48820  0.88720  Biso   1.000  H
  C185     1.0000 0.48160  0.45910  0.95650  Biso   1.000  C
  H120     1.0000 0.54280  0.45660  0.93810  Biso   1.000  H
  C186     1.0000 0.24520  0.52873  0.81550  Biso   1.000  C
  H121     1.0000 0.24310  0.54870  0.83720  Biso   1.000  H
  C187     1.0000 0.24340  0.52850  0.74930  Biso   1.000  C
  H122     1.0000 0.23750  0.54840  0.72750  Biso   1.000  H
  C188     1.0000 0.25320  0.52866  0.60750  Biso   1.000  C
  H123     1.0000 0.25520  0.54870  0.62910  Biso   1.000  H
  C189     1.0000 0.25360  0.52893  0.54190  Biso   1.000  C
  H124     1.0000 0.25620  0.54880  0.51980  Biso   1.000  H
  C190     1.0000 0.31580  0.52054  0.40570  Biso   1.000  C
  C191     1.0000 0.28880  0.53479  0.34940  Biso   1.000  C
  H125     1.0000 0.22620  0.53130  0.33380  Biso   1.000  H
  C192     1.0000 0.35200  0.55424  0.31530  Biso   1.000  C
  H126     1.0000 0.33060  0.56440  0.27790  Biso   1.000  H
  C193     1.0000 0.44710  0.55900  0.33540  Biso   1.000  C
  C194     1.0000 0.47340  0.54461  0.39370  Biso   1.000  C
  H127     1.0000 0.53600  0.54770  0.40960  Biso   1.000  H
  C195     1.0000 0.40860  0.52613  0.42770  Biso   1.000  C
  H128     1.0000 0.42770  0.51710  0.46670  Biso   1.000  H
  C196     1.0000 0.51420  0.57831  0.29610  Biso   1.000  C
  C197     1.0000 0.50910  0.57797  0.22920  Biso   1.000  C
  H129     1.0000 0.46230  0.56520  0.20850  Biso   1.000  H
  C198     1.0000 0.57470  0.59688  0.19350  Biso   1.000  C
  H130     1.0000 0.56980  0.59660  0.14900  Biso   1.000  H
  C199     1.0000 0.65050  0.61446  0.28390  Biso   1.000  C
  H131     1.0000 0.69970  0.62680  0.30280  Biso   1.000  H
  C200     1.0000 0.58980  0.59666  0.32310  Biso   1.000  C
  H132     1.0000 0.59910  0.59680  0.36730  Biso   1.000  H
  C201     1.0000 0.88340  0.33670  0.06760  Biso   1.000  C
  C202     1.0000 0.92750  0.31209  0.02120  Biso   1.000  C
  C203     1.0000 0.99700  0.32131  0.98180  Biso   1.000  C
  H133     1.0000 0.01740  0.34310  0.98290  Biso   1.000  H
  C204     1.0000 0.04080  0.30020  0.93910  Biso   1.000  C
  H134     1.0000 0.08960  0.30800  0.91210  Biso   1.000  H
  C205     1.0000 0.01290  0.26780  0.93600  Biso   1.000  C
  C206     1.0000 0.94020  0.25930  0.97330  Biso   1.000  C
  H135     1.0000 0.91710  0.23780  0.97010  Biso   1.000  H
  C207     1.0000 0.89530  0.28005  0.01720  Biso   1.000  C
  H136     1.0000 0.84490  0.27250  0.04320  Biso   1.000  H
  C208     1.0000 0.06338  0.24409  0.89417  Biso   1.000  C
  C209     1.0000 0.15214  0.25170  0.86575  Biso   1.000  C
  H137     1.0000 0.18330  0.27140  0.87570  Biso   1.000  H
  C210     1.0000 0.19430  0.22992  0.82243  Biso   1.000  C
  H138     1.0000 0.25360  0.23500  0.80340  Biso   1.000  H
  C211     1.0000 0.14760  0.20053  0.80752  Biso   1.000  C
  C212     1.0000 0.05890  0.19292  0.83593  Biso   1.000  C
  H139     1.0000 0.02770  0.17330  0.82600  Biso   1.000  H
  C213     1.0000 0.01680  0.21470  0.87926  Biso   1.000  C
  H140     1.0000 0.95740  0.20960  0.89830  Biso   1.000  H
  N13      1.0000 0.67358  0.38579  0.11521  Biso   1.000  N
  N14      1.0000 0.64260  0.61491  0.21998  Biso   1.000  N
  O21      1.0000 0.81753  0.32435  0.10283  Biso   1.000  O
  O22      1.0000 0.90681  0.36514  0.06619  Biso   1.000  O
  O23      1.0000 0.18880  0.16984  0.72294  Biso   1.000  O
  Zn5      1.0000 0.76764  0.35604  0.16492  Biso   1.000  Zn
  O24      1.0000 0.12420  0.13420  0.77710  Biso   1.000  O
  O25      1.0000 0.31470  0.18950  0.74730  Biso   1.000  O
  C214     1.0000 0.27100  0.81250  0.75600  Biso   1.000  C
  C215     1.0000 0.35590  0.83730  0.76540  Biso   1.000  C
  C216     1.0000 0.90350  0.60213  0.14340  Biso   1.000  C
  H141     1.0000 0.91250  0.60650  0.18680  Biso   1.000  H
  C217     1.0000 0.97230  0.58314  0.11210  Biso   1.000  C
  H142     1.0000 0.02490  0.57490  0.13520  Biso   1.000  H
  C218     1.0000 0.96520  0.57618  0.04840  Biso   1.000  C
  C219     1.0000 0.88360  0.58890  0.02020  Biso   1.000  C
  H143     1.0000 0.87290  0.58510  0.97680  Biso   1.000  H
  C220     1.0000 0.81750  0.60697  0.05410  Biso   1.000  C
  H144     1.0000 0.76270  0.61460  0.03250  Biso   1.000  H
  C221     1.0000 0.03740  0.55628  0.01400  Biso   1.000  C
  C222     1.0000 0.12800  0.55209  0.03940  Biso   1.000  C
  H145     1.0000 0.14320  0.56200  0.07840  Biso   1.000  H
  C223     1.0000 0.19860  0.53322  0.00830  Biso   1.000  C
  H146     1.0000 0.25960  0.53070  0.02690  Biso   1.000  H
  C224     1.0000 0.17920  0.51839  0.95080  Biso   1.000  C
  C225     1.0000 0.08570  0.52215  0.92550  Biso   1.000  C
  H147     1.0000 0.06940  0.51180  0.88720  Biso   1.000  H
  C226     1.0000 0.01840  0.54090  0.95650  Biso   1.000  C
  H148     1.0000 0.95720  0.54340  0.93810  Biso   1.000  H
  C227     1.0000 0.25480  0.47127  0.81550  Biso   1.000  C
  H149     1.0000 0.25690  0.45130  0.83720  Biso   1.000  H
  C228     1.0000 0.25660  0.47150  0.74930  Biso   1.000  C
  H150     1.0000 0.26250  0.45160  0.72750  Biso   1.000  H
  C229     1.0000 0.24680  0.47134  0.60750  Biso   1.000  C
  H151     1.0000 0.24480  0.45130  0.62910  Biso   1.000  H
  C230     1.0000 0.24640  0.47107  0.54190  Biso   1.000  C
  H152     1.0000 0.24380  0.45120  0.51980  Biso   1.000  H
  C231     1.0000 0.18420  0.47946  0.40570  Biso   1.000  C
  C232     1.0000 0.21120  0.46521  0.34940  Biso   1.000  C
  H153     1.0000 0.27380  0.46870  0.33380  Biso   1.000  H
  C233     1.0000 0.14800  0.44576  0.31530  Biso   1.000  C
  H154     1.0000 0.16940  0.43560  0.27790  Biso   1.000  H
  C234     1.0000 0.05290  0.44100  0.33540  Biso   1.000  C
  C235     1.0000 0.02660  0.45539  0.39370  Biso   1.000  C
  H155     1.0000 0.96400  0.45230  0.40960  Biso   1.000  H
  C236     1.0000 0.09140  0.47387  0.42770  Biso   1.000  C
  H156     1.0000 0.07230  0.48290  0.46670  Biso   1.000  H
  C237     1.0000 0.98580  0.42169  0.29610  Biso   1.000  C
  C238     1.0000 0.99090  0.42203  0.22920  Biso   1.000  C
  H157     1.0000 0.03770  0.43480  0.20850  Biso   1.000  H
  C239     1.0000 0.92530  0.40312  0.19350  Biso   1.000  C
  H158     1.0000 0.93020  0.40340  0.14900  Biso   1.000  H
  C240     1.0000 0.84950  0.38554  0.28390  Biso   1.000  C
  H159     1.0000 0.80030  0.37320  0.30280  Biso   1.000  H
  C241     1.0000 0.91020  0.40334  0.32310  Biso   1.000  C
  H160     1.0000 0.90090  0.40320  0.36730  Biso   1.000  H
  C242     1.0000 0.61660  0.66330  0.06760  Biso   1.000  C
  C243     1.0000 0.57250  0.68791  0.02120  Biso   1.000  C
  C244     1.0000 0.50300  0.67869  0.98180  Biso   1.000  C
  H161     1.0000 0.48260  0.65690  0.98290  Biso   1.000  H
  C245     1.0000 0.45920  0.69980  0.93910  Biso   1.000  C
  H162     1.0000 0.41040  0.69200  0.91210  Biso   1.000  H
  C246     1.0000 0.48710  0.73220  0.93600  Biso   1.000  C
  C247     1.0000 0.55980  0.74070  0.97330  Biso   1.000  C
  H163     1.0000 0.58290  0.76220  0.97010  Biso   1.000  H
  C248     1.0000 0.60470  0.71995  0.01720  Biso   1.000  C
  H164     1.0000 0.65510  0.72750  0.04320  Biso   1.000  H
  C249     1.0000 0.43662  0.75591  0.89417  Biso   1.000  C
  C250     1.0000 0.34786  0.74830  0.86575  Biso   1.000  C
  H165     1.0000 0.31670  0.72860  0.87570  Biso   1.000  H
  C251     1.0000 0.30570  0.77008  0.82243  Biso   1.000  C
  H166     1.0000 0.24640  0.76500  0.80340  Biso   1.000  H
  C252     1.0000 0.35240  0.79947  0.80752  Biso   1.000  C
  C253     1.0000 0.44110  0.80708  0.83593  Biso   1.000  C
  H167     1.0000 0.47230  0.82670  0.82600  Biso   1.000  H
  C254     1.0000 0.48320  0.78530  0.87926  Biso   1.000  C
  H168     1.0000 0.54260  0.79040  0.89830  Biso   1.000  H
  N15      1.0000 0.82642  0.61421  0.11521  Biso   1.000  N
  N16      1.0000 0.85740  0.38509  0.21998  Biso   1.000  N
  O26      1.0000 0.68247  0.67565  0.10283  Biso   1.000  O
  O27      1.0000 0.59319  0.63486  0.06619  Biso   1.000  O
  O28      1.0000 0.31120  0.83016  0.72294  Biso   1.000  O
  Zn6      1.0000 0.73236  0.64396  0.16492  Biso   1.000  Zn
  O29      1.0000 0.37580  0.86580  0.77710  Biso   1.000  O
  O30      1.0000 0.18530  0.81050  0.74730  Biso   1.000  O
  C255     1.0000 0.72900  0.31250  0.25600  Biso   1.000  C
  C256     1.0000 0.64410  0.33730  0.26540  Biso   1.000  C
  C257     1.0000 0.09650  0.10213  0.64340  Biso   1.000  C
  H169     1.0000 0.08750  0.10650  0.68680  Biso   1.000  H
  C258     1.0000 0.02770  0.08314  0.61210  Biso   1.000  C
  H170     1.0000 0.97510  0.07490  0.63520  Biso   1.000  H
  C259     1.0000 0.03480  0.07618  0.54840  Biso   1.000  C
  C260     1.0000 0.11640  0.08890  0.52020  Biso   1.000  C
  H171     1.0000 0.12710  0.08510  0.47680  Biso   1.000  H
  C261     1.0000 0.18250  0.10697  0.55410  Biso   1.000  C
  H172     1.0000 0.23730  0.11460  0.53250  Biso   1.000  H
  C262     1.0000 0.96260  0.05628  0.51400  Biso   1.000  C
  C263     1.0000 0.87200  0.05209  0.53940  Biso   1.000  C
  H173     1.0000 0.85680  0.06200  0.57840  Biso   1.000  H
  C264     1.0000 0.80140  0.03322  0.50830  Biso   1.000  C
  H174     1.0000 0.74040  0.03070  0.52690  Biso   1.000  H
  C265     1.0000 0.82080  0.01839  0.45080  Biso   1.000  C
  C266     1.0000 0.91430  0.02215  0.42550  Biso   1.000  C
  H175     1.0000 0.93060  0.01180  0.38720  Biso   1.000  H
  C267     1.0000 0.98160  0.04090  0.45650  Biso   1.000  C
  H176     1.0000 0.04280  0.04340  0.43810  Biso   1.000  H
  C268     1.0000 0.74520  0.97127  0.31550  Biso   1.000  C
  H177     1.0000 0.74310  0.95130  0.33720  Biso   1.000  H
  C269     1.0000 0.74340  0.97150  0.24930  Biso   1.000  C
  H178     1.0000 0.73750  0.95160  0.22750  Biso   1.000  H
  C270     1.0000 0.75320  0.97134  0.10750  Biso   1.000  C
  H179     1.0000 0.75520  0.95130  0.12910  Biso   1.000  H
  C271     1.0000 0.75360  0.97107  0.04190  Biso   1.000  C
  H180     1.0000 0.75620  0.95120  0.01980  Biso   1.000  H
  C272     1.0000 0.81580  0.97946  0.90570  Biso   1.000  C
  C273     1.0000 0.78880  0.96521  0.84940  Biso   1.000  C
  H181     1.0000 0.72620  0.96870  0.83380  Biso   1.000  H
  C274     1.0000 0.85200  0.94576  0.81530  Biso   1.000  C
  H182     1.0000 0.83060  0.93560  0.77790  Biso   1.000  H
  C275     1.0000 0.94710  0.94100  0.83540  Biso   1.000  C
  C276     1.0000 0.97340  0.95539  0.89370  Biso   1.000  C
  H183     1.0000 0.03600  0.95230  0.90960  Biso   1.000  H
  C277     1.0000 0.90860  0.97387  0.92770  Biso   1.000  C
  H184     1.0000 0.92770  0.98290  0.96670  Biso   1.000  H
  C278     1.0000 0.01420  0.92169  0.79610  Biso   1.000  C
  C279     1.0000 0.00910  0.92203  0.72920  Biso   1.000  C
  H185     1.0000 0.96230  0.93480  0.70850  Biso   1.000  H
  C280     1.0000 0.07470  0.90312  0.69350  Biso   1.000  C
  H186     1.0000 0.06980  0.90340  0.64900  Biso   1.000  H
  C281     1.0000 0.15050  0.88554  0.78390  Biso   1.000  C
  H187     1.0000 0.19970  0.87320  0.80280  Biso   1.000  H
  C282     1.0000 0.08980  0.90334  0.82310  Biso   1.000  C
  H188     1.0000 0.09910  0.90320  0.86730  Biso   1.000  H
  C283     1.0000 0.38340  0.16330  0.56760  Biso   1.000  C
  C284     1.0000 0.42750  0.18791  0.52120  Biso   1.000  C
  C285     1.0000 0.49700  0.17869  0.48180  Biso   1.000  C
  H189     1.0000 0.51740  0.15690  0.48290  Biso   1.000  H
  C286     1.0000 0.54080  0.19980  0.43910  Biso   1.000  C
  H190     1.0000 0.58960  0.19200  0.41210  Biso   1.000  H
  C287     1.0000 0.51290  0.23220  0.43600  Biso   1.000  C
  C288     1.0000 0.44020  0.24070  0.47330  Biso   1.000  C
  H191     1.0000 0.41710  0.26220  0.47010  Biso   1.000  H
  C289     1.0000 0.39530  0.21995  0.51720  Biso   1.000  C
  H192     1.0000 0.34490  0.22750  0.54320  Biso   1.000  H
  C290     1.0000 0.56338  0.25591  0.39417  Biso   1.000  C
  C291     1.0000 0.65214  0.24830  0.36575  Biso   1.000  C
  H193     1.0000 0.68330  0.22860  0.37570  Biso   1.000  H
  C292     1.0000 0.69430  0.27008  0.32243  Biso   1.000  C
  H194     1.0000 0.75360  0.26500  0.30340  Biso   1.000  H
  C293     1.0000 0.64760  0.29947  0.30752  Biso   1.000  C
  C294     1.0000 0.55890  0.30708  0.33593  Biso   1.000  C
  H195     1.0000 0.52770  0.32670  0.32600  Biso   1.000  H
  C295     1.0000 0.51680  0.28530  0.37926  Biso   1.000  C
  H196     1.0000 0.45740  0.29040  0.39830  Biso   1.000  H
  N17      1.0000 0.17358  0.11421  0.61521  Biso   1.000  N
  N18      1.0000 0.14260  0.88509  0.71998  Biso   1.000  N
  O31      1.0000 0.31753  0.17565  0.60283  Biso   1.000  O
  O32      1.0000 0.40681  0.13486  0.56619  Biso   1.000  O
  O33      1.0000 0.68880  0.33016  0.22294  Biso   1.000  O
  Zn7      1.0000 0.26764  0.14396  0.66492  Biso   1.000  Zn
  O34      1.0000 0.62420  0.36580  0.27710  Biso   1.000  O
  O35      1.0000 0.81470  0.31050  0.24730  Biso   1.000  O
  C296     1.0000 0.77100  0.68750  0.25600  Biso   1.000  C
  C297     1.0000 0.85590  0.66270  0.26540  Biso   1.000  C
  C298     1.0000 0.40350  0.89787  0.64340  Biso   1.000  C
  H197     1.0000 0.41250  0.89350  0.68680  Biso   1.000  H
  C299     1.0000 0.47230  0.91686  0.61210  Biso   1.000  C
  H198     1.0000 0.52490  0.92510  0.63520  Biso   1.000  H
  C300     1.0000 0.46520  0.92382  0.54840  Biso   1.000  C
  C301     1.0000 0.38360  0.91110  0.52020  Biso   1.000  C
  H199     1.0000 0.37290  0.91490  0.47680  Biso   1.000  H
  C302     1.0000 0.31750  0.89303  0.55410  Biso   1.000  C
  H200     1.0000 0.26270  0.88540  0.53250  Biso   1.000  H
  C303     1.0000 0.53740  0.94372  0.51400  Biso   1.000  C
  C304     1.0000 0.62800  0.94791  0.53940  Biso   1.000  C
  H201     1.0000 0.64320  0.93800  0.57840  Biso   1.000  H
  C305     1.0000 0.69860  0.96678  0.50830  Biso   1.000  C
  H202     1.0000 0.75960  0.96930  0.52690  Biso   1.000  H
  C306     1.0000 0.67920  0.98161  0.45080  Biso   1.000  C
  C307     1.0000 0.58570  0.97785  0.42550  Biso   1.000  C
  H203     1.0000 0.56940  0.98820  0.38720  Biso   1.000  H
  C308     1.0000 0.51840  0.95910  0.45650  Biso   1.000  C
  H204     1.0000 0.45720  0.95660  0.43810  Biso   1.000  H
  C309     1.0000 0.75480  0.02873  0.31550  Biso   1.000  C
  H205     1.0000 0.75690  0.04870  0.33720  Biso   1.000  H
  C310     1.0000 0.75660  0.02850  0.24930  Biso   1.000  C
  H206     1.0000 0.76250  0.04840  0.22750  Biso   1.000  H
  C311     1.0000 0.74680  0.02866  0.10750  Biso   1.000  C
  H207     1.0000 0.74480  0.04870  0.12910  Biso   1.000  H
  C312     1.0000 0.74640  0.02893  0.04190  Biso   1.000  C
  H208     1.0000 0.74380  0.04880  0.01980  Biso   1.000  H
  C313     1.0000 0.68420  0.02054  0.90570  Biso   1.000  C
  C314     1.0000 0.71120  0.03479  0.84940  Biso   1.000  C
  H209     1.0000 0.77380  0.03130  0.83380  Biso   1.000  H
  C315     1.0000 0.64800  0.05424  0.81530  Biso   1.000  C
  H210     1.0000 0.66940  0.06440  0.77790  Biso   1.000  H
  C316     1.0000 0.55290  0.05900  0.83540  Biso   1.000  C
  C317     1.0000 0.52660  0.04461  0.89370  Biso   1.000  C
  H211     1.0000 0.46400  0.04770  0.90960  Biso   1.000  H
  C318     1.0000 0.59140  0.02613  0.92770  Biso   1.000  C
  H212     1.0000 0.57230  0.01710  0.96670  Biso   1.000  H
  C319     1.0000 0.48580  0.07831  0.79610  Biso   1.000  C
  C320     1.0000 0.49090  0.07797  0.72920  Biso   1.000  C
  H213     1.0000 0.53770  0.06520  0.70850  Biso   1.000  H
  C321     1.0000 0.42530  0.09688  0.69350  Biso   1.000  C
  H214     1.0000 0.43020  0.09660  0.64900  Biso   1.000  H
  C322     1.0000 0.34950  0.11446  0.78390  Biso   1.000  C
  H215     1.0000 0.30030  0.12680  0.80280  Biso   1.000  H
  C323     1.0000 0.41020  0.09666  0.82310  Biso   1.000  C
  H216     1.0000 0.40090  0.09680  0.86730  Biso   1.000  H
  C324     1.0000 0.11660  0.83670  0.56760  Biso   1.000  C
  C325     1.0000 0.07250  0.81209  0.52120  Biso   1.000  C
  C326     1.0000 0.00300  0.82131  0.48180  Biso   1.000  C
  H217     1.0000 0.98260  0.84310  0.48290  Biso   1.000  H
  C327     1.0000 0.95920  0.80020  0.43910  Biso   1.000  C
  H218     1.0000 0.91040  0.80800  0.41210  Biso   1.000  H
  C328     1.0000 0.98710  0.76780  0.43600  Biso   1.000  C
  C329     1.0000 0.05980  0.75930  0.47330  Biso   1.000  C
  H219     1.0000 0.08290  0.73780  0.47010  Biso   1.000  H
  C330     1.0000 0.10470  0.78005  0.51720  Biso   1.000  C
  H220     1.0000 0.15510  0.77250  0.54320  Biso   1.000  H
  C331     1.0000 0.93662  0.74409  0.39417  Biso   1.000  C
  C332     1.0000 0.84786  0.75170  0.36575  Biso   1.000  C
  H221     1.0000 0.81670  0.77140  0.37570  Biso   1.000  H
  C333     1.0000 0.80570  0.72992  0.32243  Biso   1.000  C
  H222     1.0000 0.74640  0.73500  0.30340  Biso   1.000  H
  C334     1.0000 0.85240  0.70053  0.30752  Biso   1.000  C
  C335     1.0000 0.94110  0.69292  0.33593  Biso   1.000  C
  H223     1.0000 0.97230  0.67330  0.32600  Biso   1.000  H
  C336     1.0000 0.98320  0.71470  0.37926  Biso   1.000  C
  H224     1.0000 0.04260  0.70960  0.39830  Biso   1.000  H
  N19      1.0000 0.32642  0.88579  0.61521  Biso   1.000  N
  N20      1.0000 0.35740  0.11491  0.71998  Biso   1.000  N
  O36      1.0000 0.18247  0.82435  0.60283  Biso   1.000  O
  O37      1.0000 0.09319  0.86514  0.56619  Biso   1.000  O
  O38      1.0000 0.81120  0.66984  0.22294  Biso   1.000  O
  Zn8      1.0000 0.23236  0.85604  0.66492  Biso   1.000  Zn
  O39      1.0000 0.87580  0.63420  0.27710  Biso   1.000  O
  O40      1.0000 0.68530  0.68950  0.24730  Biso   1.000  O
  C337     1.0000 0.25000  0.50000  0.84960  Biso   1.000  C
  C338     1.0000 0.25000  0.50000  0.71440  Biso   1.000  C
  C339     1.0000 0.25000  0.50000  0.64340  Biso   1.000  C
  C340     1.0000 0.25000  0.50000  0.50900  Biso   1.000  C
  N21      1.0000 0.25000  0.50000  0.91808  Biso   1.000  N
  N22      1.0000 0.25000  0.50000  0.44071  Biso   1.000  N
  C341     1.0000 0.75000  0.00000  0.34960  Biso   1.000  C
  C342     1.0000 0.75000  0.00000  0.21440  Biso   1.000  C
  C343     1.0000 0.75000  0.00000  0.14340  Biso   1.000  C
  C344     1.0000 0.75000  0.00000  0.00900  Biso   1.000  C
  N23      1.0000 0.75000  0.00000  0.41808  Biso   1.000  N
  N24      1.0000 0.75000  0.00000  0.94071  Biso   1.000  N
