data_image0
_cell_length_a       17.764
_cell_length_b       17.764
_cell_length_c       15.355
_cell_angle_alpha    90
_cell_angle_beta     90
_cell_angle_gamma    90

_symmetry_space_group_name_H-M    "P 1"
_symmetry_int_tables_number       1

loop_
  _symmetry_equiv_pos_as_xyz
  'x, y, z'

loop_
  _atom_site_label
  _atom_site_occupancy
  _atom_site_fract_x
  _atom_site_fract_y
  _atom_site_fract_z
  _atom_site_thermal_displace_type
  _atom_site_B_iso_or_equiv
  _atom_site_type_symbol
  C1       1.0000 0.32770  0.50020  0.11250  Biso   1.000  C
  C2       1.0000 0.78310  0.91680  0.43600  Biso   1.000  C
  H1       1.0000 0.74480  0.89990  0.39610  Biso   1.000  H
  H2       1.0000 0.76650  0.90890  0.49450  Biso   1.000  H
  H3       1.0000 0.82850  0.88890  0.42570  Biso   1.000  H
  O1       1.0000 0.63440  0.03750  0.40710  Biso   1.000  O
  O2       1.0000 0.99080  0.91000  0.13450  Biso   1.000  O
  Ho1      1.0000 0.97160  0.48908  0.13841  Biso   1.000  Ho
  O3       1.0000 0.07000  0.48760  0.02170  Biso   1.000  O
  O4       1.0000 0.93090  0.00870  0.38340  Biso   1.000  O
  O5       1.0000 0.36400  0.49340  0.04370  Biso   1.000  O
  C3       1.0000 0.99500  0.64120  0.19910  Biso   1.000  C
  C4       1.0000 0.12170  0.49680  0.07830  Biso   1.000  C
  O6       1.0000 0.98510  0.62400  0.12120  Biso   1.000  O
  O7       1.0000 0.64000  0.00830  0.54910  Biso   1.000  O
  C5       1.0000 0.98960  0.85930  0.19070  Biso   1.000  C
  O8       1.0000 0.99770  0.58870  0.25650  Biso   1.000  O
  C6       1.0000 0.99760  0.72170  0.22990  Biso   1.000  C
  C7       1.0000 0.99400  0.77720  0.16200  Biso   1.000  C
  O9       1.0000 0.35750  0.51680  0.18520  Biso   1.000  O
  O10      1.0000 0.90170  0.02520  0.51930  Biso   1.000  O
  C8       1.0000 0.79830  0.00200  0.42080  Biso   1.000  C
  H4       1.0000 0.78820  0.01590  0.36010  Biso   1.000  H
  C9       1.0000 0.88120  0.01020  0.44130  Biso   1.000  C
  C10      1.0000 0.67100  0.02620  0.47910  Biso   1.000  C
  C11      1.0000 0.19990  0.48390  0.05230  Biso   1.000  C
  H5       1.0000 0.21230  0.50130  0.99350  Biso   1.000  H
  C12      1.0000 0.75260  0.04910  0.48160  Biso   1.000  C
  H6       1.0000 0.77100  0.03910  0.54060  Biso   1.000  H
  C13      1.0000 0.76740  0.13250  0.46200  Biso   1.000  C
  H7       1.0000 0.76220  0.14150  0.40090  Biso   1.000  H
  H8       1.0000 0.81740  0.14550  0.48050  Biso   1.000  H
  H9       1.0000 0.73160  0.16290  0.49340  Biso   1.000  H
  O11      1.0000 0.99500  0.87630  0.26970  Biso   1.000  O
  O12      1.0000 0.10030  0.49010  0.15660  Biso   1.000  O
  C14      1.0000 0.24640  0.51400  0.11950  Biso   1.000  C
  H10      1.0000 0.22620  0.50740  0.17830  Biso   1.000  H
  C15      1.0000 0.67230  0.49980  0.61250  Biso   1.000  C
  C16      1.0000 0.21690  0.08320  0.93600  Biso   1.000  C
  H11      1.0000 0.25520  0.10010  0.89610  Biso   1.000  H
  H12      1.0000 0.23350  0.09110  0.99450  Biso   1.000  H
  H13      1.0000 0.17150  0.11110  0.92570  Biso   1.000  H
  O13      1.0000 0.36560  0.96250  0.90710  Biso   1.000  O
  O14      1.0000 0.00920  0.09000  0.63450  Biso   1.000  O
  Ho2      1.0000 0.02840  0.51092  0.63841  Biso   1.000  Ho
  O15      1.0000 0.93000  0.51240  0.52170  Biso   1.000  O
  O16      1.0000 0.06910  0.99130  0.88340  Biso   1.000  O
  O17      1.0000 0.63600  0.50660  0.54370  Biso   1.000  O
  C17      1.0000 0.00500  0.35880  0.69910  Biso   1.000  C
  C18      1.0000 0.87830  0.50320  0.57830  Biso   1.000  C
  O18      1.0000 0.01490  0.37600  0.62120  Biso   1.000  O
  O19      1.0000 0.36000  0.99170  0.04910  Biso   1.000  O
  C19      1.0000 0.01040  0.14070  0.69070  Biso   1.000  C
  O20      1.0000 0.00230  0.41130  0.75650  Biso   1.000  O
  C20      1.0000 0.00240  0.27830  0.72990  Biso   1.000  C
  C21      1.0000 0.00600  0.22280  0.66200  Biso   1.000  C
  O21      1.0000 0.64250  0.48320  0.68520  Biso   1.000  O
  O22      1.0000 0.09830  0.97480  0.01930  Biso   1.000  O
  C22      1.0000 0.20170  0.99800  0.92080  Biso   1.000  C
  H14      1.0000 0.21180  0.98410  0.86010  Biso   1.000  H
  C23      1.0000 0.11880  0.98980  0.94130  Biso   1.000  C
  C24      1.0000 0.32900  0.97380  0.97910  Biso   1.000  C
  C25      1.0000 0.80010  0.51610  0.55230  Biso   1.000  C
  H15      1.0000 0.78770  0.49870  0.49350  Biso   1.000  H
  C26      1.0000 0.24740  0.95090  0.98160  Biso   1.000  C
  H16      1.0000 0.22900  0.96090  0.04060  Biso   1.000  H
  C27      1.0000 0.23260  0.86750  0.96200  Biso   1.000  C
  H17      1.0000 0.23780  0.85850  0.90090  Biso   1.000  H
  H18      1.0000 0.18260  0.85450  0.98050  Biso   1.000  H
  H19      1.0000 0.26840  0.83710  0.99340  Biso   1.000  H
  O23      1.0000 0.00500  0.12370  0.76970  Biso   1.000  O
  O24      1.0000 0.89970  0.50990  0.65660  Biso   1.000  O
  C28      1.0000 0.75360  0.48600  0.61950  Biso   1.000  C
  H20      1.0000 0.77380  0.49260  0.67830  Biso   1.000  H
  C29      1.0000 0.99980  0.82770  0.86250  Biso   1.000  C
  C30      1.0000 0.58320  0.28310  0.18600  Biso   1.000  C
  H21      1.0000 0.60010  0.24480  0.14610  Biso   1.000  H
  H22      1.0000 0.59110  0.26650  0.24450  Biso   1.000  H
  H23      1.0000 0.61110  0.32850  0.17570  Biso   1.000  H
  O25      1.0000 0.46250  0.13440  0.15710  Biso   1.000  O
  O26      1.0000 0.59000  0.49080  0.88450  Biso   1.000  O
  Ho3      1.0000 0.01092  0.47160  0.88841  Biso   1.000  Ho
  O27      1.0000 0.01240  0.57000  0.77170  Biso   1.000  O
  O28      1.0000 0.49130  0.43090  0.13340  Biso   1.000  O
  O29      1.0000 0.00660  0.86400  0.79370  Biso   1.000  O
  C31      1.0000 0.85880  0.49500  0.94910  Biso   1.000  C
  C32      1.0000 0.00320  0.62170  0.82830  Biso   1.000  C
  O30      1.0000 0.87600  0.48510  0.87120  Biso   1.000  O
  O31      1.0000 0.49170  0.14000  0.29910  Biso   1.000  O
  C33      1.0000 0.64070  0.48960  0.94070  Biso   1.000  C
  O32      1.0000 0.91130  0.49770  0.00650  Biso   1.000  O
  C34      1.0000 0.77830  0.49760  0.97990  Biso   1.000  C
  C35      1.0000 0.72280  0.49400  0.91200  Biso   1.000  C
  O33      1.0000 0.98320  0.85750  0.93520  Biso   1.000  O
  O34      1.0000 0.47480  0.40170  0.26930  Biso   1.000  O
  C36      1.0000 0.49800  0.29830  0.17080  Biso   1.000  C
  H24      1.0000 0.48410  0.28820  0.11010  Biso   1.000  H
  C37      1.0000 0.48980  0.38120  0.19130  Biso   1.000  C
  C38      1.0000 0.47380  0.17100  0.22910  Biso   1.000  C
  C39      1.0000 0.01610  0.69990  0.80230  Biso   1.000  C
  H25      1.0000 0.99870  0.71230  0.74350  Biso   1.000  H
  C40      1.0000 0.45090  0.25260  0.23160  Biso   1.000  C
  H26      1.0000 0.46090  0.27100  0.29060  Biso   1.000  H
  C41      1.0000 0.36750  0.26740  0.21200  Biso   1.000  C
  H27      1.0000 0.35850  0.26220  0.15090  Biso   1.000  H
  H28      1.0000 0.35450  0.31740  0.23050  Biso   1.000  H
  H29      1.0000 0.33710  0.23160  0.24340  Biso   1.000  H
  O35      1.0000 0.62370  0.49500  0.01970  Biso   1.000  O
  O36      1.0000 0.00990  0.60030  0.90660  Biso   1.000  O
  C42      1.0000 0.98600  0.74640  0.86950  Biso   1.000  C
  H30      1.0000 0.99260  0.72620  0.92830  Biso   1.000  H
  C43      1.0000 0.00020  0.17230  0.36250  Biso   1.000  C
  C44      1.0000 0.41680  0.71690  0.68600  Biso   1.000  C
  H31      1.0000 0.39990  0.75520  0.64610  Biso   1.000  H
  H32      1.0000 0.40890  0.73350  0.74450  Biso   1.000  H
  H33      1.0000 0.38890  0.67150  0.67570  Biso   1.000  H
  O37      1.0000 0.53750  0.86560  0.65710  Biso   1.000  O
  O38      1.0000 0.41000  0.50920  0.38450  Biso   1.000  O
  Ho4      1.0000 0.98908  0.52840  0.38841  Biso   1.000  Ho
  O39      1.0000 0.98760  0.43000  0.27170  Biso   1.000  O
  O40      1.0000 0.50870  0.56910  0.63340  Biso   1.000  O
  O41      1.0000 0.99340  0.13600  0.29370  Biso   1.000  O
  C45      1.0000 0.14120  0.50500  0.44910  Biso   1.000  C
  C46      1.0000 0.99680  0.37830  0.32830  Biso   1.000  C
  O42      1.0000 0.12400  0.51490  0.37120  Biso   1.000  O
  O43      1.0000 0.50830  0.86000  0.79910  Biso   1.000  O
  C47      1.0000 0.35930  0.51040  0.44070  Biso   1.000  C
  O44      1.0000 0.08870  0.50230  0.50650  Biso   1.000  O
  C48      1.0000 0.22170  0.50240  0.47990  Biso   1.000  C
  C49      1.0000 0.27720  0.50600  0.41200  Biso   1.000  C
  O45      1.0000 0.01680  0.14250  0.43520  Biso   1.000  O
  O46      1.0000 0.52520  0.59830  0.76930  Biso   1.000  O
  C50      1.0000 0.50200  0.70170  0.67080  Biso   1.000  C
  H34      1.0000 0.51590  0.71180  0.61010  Biso   1.000  H
  C51      1.0000 0.51020  0.61880  0.69130  Biso   1.000  C
  C52      1.0000 0.52620  0.82900  0.72910  Biso   1.000  C
  C53      1.0000 0.98390  0.30010  0.30230  Biso   1.000  C
  H35      1.0000 0.00130  0.28770  0.24350  Biso   1.000  H
  C54      1.0000 0.54910  0.74740  0.73160  Biso   1.000  C
  H36      1.0000 0.53910  0.72900  0.79060  Biso   1.000  H
  C55      1.0000 0.63250  0.73260  0.71200  Biso   1.000  C
  H37      1.0000 0.64150  0.73780  0.65090  Biso   1.000  H
  H38      1.0000 0.64550  0.68260  0.73050  Biso   1.000  H
  H39      1.0000 0.66290  0.76840  0.74340  Biso   1.000  H
  O47      1.0000 0.37630  0.50500  0.51970  Biso   1.000  O
  O48      1.0000 0.99010  0.39970  0.40660  Biso   1.000  O
  C56      1.0000 0.01400  0.25360  0.36950  Biso   1.000  C
  H40      1.0000 0.00740  0.27380  0.42830  Biso   1.000  H
  C57      1.0000 0.17230  0.00020  0.63750  Biso   1.000  C
  C58      1.0000 0.71690  0.41680  0.31400  Biso   1.000  C
  H41      1.0000 0.75520  0.39990  0.35390  Biso   1.000  H
  H42      1.0000 0.73350  0.40890  0.25550  Biso   1.000  H
  H43      1.0000 0.67150  0.38890  0.32430  Biso   1.000  H
  O49      1.0000 0.86560  0.53750  0.34290  Biso   1.000  O
  O50      1.0000 0.50920  0.41000  0.61550  Biso   1.000  O
  Ho5      1.0000 0.52840  0.98908  0.61159  Biso   1.000  Ho
  O51      1.0000 0.43000  0.98760  0.72830  Biso   1.000  O
  O52      1.0000 0.56910  0.50870  0.36660  Biso   1.000  O
  O53      1.0000 0.13600  0.99340  0.70630  Biso   1.000  O
  C59      1.0000 0.50500  0.14120  0.55090  Biso   1.000  C
  C60      1.0000 0.37830  0.99680  0.67170  Biso   1.000  C
  O54      1.0000 0.51490  0.12400  0.62880  Biso   1.000  O
  O55      1.0000 0.86000  0.50830  0.20090  Biso   1.000  O
  C61      1.0000 0.51040  0.35930  0.55930  Biso   1.000  C
  O56      1.0000 0.50230  0.08870  0.49350  Biso   1.000  O
  C62      1.0000 0.50240  0.22170  0.52010  Biso   1.000  C
  C63      1.0000 0.50600  0.27720  0.58800  Biso   1.000  C
  O57      1.0000 0.14250  0.01680  0.56480  Biso   1.000  O
  O58      1.0000 0.59830  0.52520  0.23070  Biso   1.000  O
  C64      1.0000 0.70170  0.50200  0.32920  Biso   1.000  C
  H44      1.0000 0.71180  0.51590  0.38990  Biso   1.000  H
  C65      1.0000 0.61880  0.51020  0.30870  Biso   1.000  C
  C66      1.0000 0.82900  0.52620  0.27090  Biso   1.000  C
  C67      1.0000 0.30010  0.98390  0.69770  Biso   1.000  C
  H45      1.0000 0.28770  0.00130  0.75650  Biso   1.000  H
  C68      1.0000 0.74740  0.54910  0.26840  Biso   1.000  C
  H46      1.0000 0.72900  0.53910  0.20940  Biso   1.000  H
  C69      1.0000 0.73260  0.63250  0.28800  Biso   1.000  C
  H47      1.0000 0.73780  0.64150  0.34910  Biso   1.000  H
  H48      1.0000 0.68260  0.64550  0.26950  Biso   1.000  H
  H49      1.0000 0.76840  0.66290  0.25660  Biso   1.000  H
  O59      1.0000 0.50500  0.37630  0.48030  Biso   1.000  O
  O60      1.0000 0.39970  0.99010  0.59340  Biso   1.000  O
  C70      1.0000 0.25360  0.01400  0.63050  Biso   1.000  C
  H50      1.0000 0.27380  0.00740  0.57170  Biso   1.000  H
  C71      1.0000 0.82770  0.99980  0.13750  Biso   1.000  C
  C72      1.0000 0.28310  0.58320  0.81400  Biso   1.000  C
  H51      1.0000 0.24480  0.60010  0.85390  Biso   1.000  H
  H52      1.0000 0.26650  0.59110  0.75550  Biso   1.000  H
  H53      1.0000 0.32850  0.61110  0.82430  Biso   1.000  H
  O61      1.0000 0.13440  0.46250  0.84290  Biso   1.000  O
  O62      1.0000 0.49080  0.59000  0.11550  Biso   1.000  O
  Ho6      1.0000 0.47160  0.01092  0.11159  Biso   1.000  Ho
  O63      1.0000 0.57000  0.01240  0.22830  Biso   1.000  O
  O64      1.0000 0.43090  0.49130  0.86660  Biso   1.000  O
  O65      1.0000 0.86400  0.00660  0.20630  Biso   1.000  O
  C73      1.0000 0.49500  0.85880  0.05090  Biso   1.000  C
  C74      1.0000 0.62170  0.00320  0.17170  Biso   1.000  C
  O66      1.0000 0.48510  0.87600  0.12880  Biso   1.000  O
  O67      1.0000 0.14000  0.49170  0.70090  Biso   1.000  O
  C75      1.0000 0.48960  0.64070  0.05930  Biso   1.000  C
  O68      1.0000 0.49770  0.91130  0.99350  Biso   1.000  O
  C76      1.0000 0.49760  0.77830  0.02010  Biso   1.000  C
  C77      1.0000 0.49400  0.72280  0.08800  Biso   1.000  C
  O69      1.0000 0.85750  0.98320  0.06480  Biso   1.000  O
  O70      1.0000 0.40170  0.47480  0.73070  Biso   1.000  O
  C78      1.0000 0.29830  0.49800  0.82920  Biso   1.000  C
  H54      1.0000 0.28820  0.48410  0.88990  Biso   1.000  H
  C79      1.0000 0.38120  0.48980  0.80870  Biso   1.000  C
  C80      1.0000 0.17100  0.47380  0.77090  Biso   1.000  C
  C81      1.0000 0.69990  0.01610  0.19770  Biso   1.000  C
  H55      1.0000 0.71230  0.99870  0.25650  Biso   1.000  H
  C82      1.0000 0.25260  0.45090  0.76840  Biso   1.000  C
  H56      1.0000 0.27100  0.46090  0.70940  Biso   1.000  H
  C83      1.0000 0.26740  0.36750  0.78800  Biso   1.000  C
  H57      1.0000 0.26220  0.35850  0.84910  Biso   1.000  H
  H58      1.0000 0.31740  0.35450  0.76950  Biso   1.000  H
  H59      1.0000 0.23160  0.33710  0.75660  Biso   1.000  H
  O71      1.0000 0.49500  0.62370  0.98030  Biso   1.000  O
  O72      1.0000 0.60030  0.00990  0.09340  Biso   1.000  O
  C84      1.0000 0.74640  0.98600  0.13050  Biso   1.000  C
  H60      1.0000 0.72620  0.99260  0.07170  Biso   1.000  H
  C85      1.0000 0.50020  0.32770  0.88750  Biso   1.000  C
  C86      1.0000 0.91680  0.78310  0.56400  Biso   1.000  C
  H61      1.0000 0.89990  0.74480  0.60390  Biso   1.000  H
  H62      1.0000 0.90890  0.76650  0.50550  Biso   1.000  H
  H63      1.0000 0.88890  0.82850  0.57430  Biso   1.000  H
  O73      1.0000 0.03750  0.63440  0.59290  Biso   1.000  O
  O74      1.0000 0.91000  0.99080  0.86550  Biso   1.000  O
  Ho7      1.0000 0.48908  0.97160  0.86159  Biso   1.000  Ho
  O75      1.0000 0.48760  0.07000  0.97830  Biso   1.000  O
  O76      1.0000 0.00870  0.93090  0.61660  Biso   1.000  O
  O77      1.0000 0.49340  0.36400  0.95630  Biso   1.000  O
  C87      1.0000 0.64120  0.99500  0.80090  Biso   1.000  C
  C88      1.0000 0.49680  0.12170  0.92170  Biso   1.000  C
  O78      1.0000 0.62400  0.98510  0.87880  Biso   1.000  O
  O79      1.0000 0.00830  0.64000  0.45090  Biso   1.000  O
  C89      1.0000 0.85930  0.98960  0.80930  Biso   1.000  C
  O80      1.0000 0.58870  0.99770  0.74350  Biso   1.000  O
  C90      1.0000 0.72170  0.99760  0.77010  Biso   1.000  C
  C91      1.0000 0.77720  0.99400  0.83800  Biso   1.000  C
  O81      1.0000 0.51680  0.35750  0.81480  Biso   1.000  O
  O82      1.0000 0.02520  0.90170  0.48070  Biso   1.000  O
  C92      1.0000 0.00200  0.79830  0.57920  Biso   1.000  C
  H64      1.0000 0.01590  0.78820  0.63990  Biso   1.000  H
  C93      1.0000 0.01020  0.88120  0.55870  Biso   1.000  C
  C94      1.0000 0.02620  0.67100  0.52090  Biso   1.000  C
  C95      1.0000 0.48390  0.19990  0.94770  Biso   1.000  C
  H65      1.0000 0.50130  0.21230  0.00650  Biso   1.000  H
  C96      1.0000 0.04910  0.75260  0.51840  Biso   1.000  C
  H66      1.0000 0.03910  0.77100  0.45940  Biso   1.000  H
  C97      1.0000 0.13250  0.76740  0.53800  Biso   1.000  C
  H67      1.0000 0.14150  0.76220  0.59910  Biso   1.000  H
  H68      1.0000 0.14550  0.81740  0.51950  Biso   1.000  H
  H69      1.0000 0.16290  0.73160  0.50660  Biso   1.000  H
  O83      1.0000 0.87630  0.99500  0.73030  Biso   1.000  O
  O84      1.0000 0.49010  0.10030  0.84340  Biso   1.000  O
  C98      1.0000 0.51400  0.24640  0.88050  Biso   1.000  C
  H70      1.0000 0.50740  0.22620  0.82170  Biso   1.000  H
  C99      1.0000 0.49980  0.67230  0.38750  Biso   1.000  C
  C100     1.0000 0.08320  0.21690  0.06400  Biso   1.000  C
  H71      1.0000 0.10010  0.25520  0.10390  Biso   1.000  H
  H72      1.0000 0.09110  0.23350  0.00550  Biso   1.000  H
  H73      1.0000 0.11110  0.17150  0.07430  Biso   1.000  H
  O85      1.0000 0.96250  0.36560  0.09290  Biso   1.000  O
  O86      1.0000 0.09000  0.00920  0.36550  Biso   1.000  O
  Ho8      1.0000 0.51092  0.02840  0.36159  Biso   1.000  Ho
  O87      1.0000 0.51240  0.93000  0.47830  Biso   1.000  O
  O88      1.0000 0.99130  0.06910  0.11660  Biso   1.000  O
  O89      1.0000 0.50660  0.63600  0.45630  Biso   1.000  O
  C101     1.0000 0.35880  0.00500  0.30090  Biso   1.000  C
  C102     1.0000 0.50320  0.87830  0.42170  Biso   1.000  C
  O90      1.0000 0.37600  0.01490  0.37880  Biso   1.000  O
  O91      1.0000 0.99170  0.36000  0.95090  Biso   1.000  O
  C103     1.0000 0.14070  0.01040  0.30930  Biso   1.000  C
  O92      1.0000 0.41130  0.00230  0.24350  Biso   1.000  O
  C104     1.0000 0.27830  0.00240  0.27010  Biso   1.000  C
  C105     1.0000 0.22280  0.00600  0.33800  Biso   1.000  C
  O93      1.0000 0.48320  0.64250  0.31480  Biso   1.000  O
  O94      1.0000 0.97480  0.09830  0.98070  Biso   1.000  O
  C106     1.0000 0.99800  0.20170  0.07920  Biso   1.000  C
  H74      1.0000 0.98410  0.21180  0.13990  Biso   1.000  H
  C107     1.0000 0.98980  0.11880  0.05870  Biso   1.000  C
  C108     1.0000 0.97380  0.32900  0.02090  Biso   1.000  C
  C109     1.0000 0.51610  0.80010  0.44770  Biso   1.000  C
  H75      1.0000 0.49870  0.78770  0.50650  Biso   1.000  H
  C110     1.0000 0.95090  0.24740  0.01840  Biso   1.000  C
  H76      1.0000 0.96090  0.22900  0.95940  Biso   1.000  H
  C111     1.0000 0.86750  0.23260  0.03800  Biso   1.000  C
  H77      1.0000 0.85850  0.23780  0.09910  Biso   1.000  H
  H78      1.0000 0.85450  0.18260  0.01950  Biso   1.000  H
  H79      1.0000 0.83710  0.26840  0.00660  Biso   1.000  H
  O95      1.0000 0.12370  0.00500  0.23030  Biso   1.000  O
  O96      1.0000 0.50990  0.89970  0.34340  Biso   1.000  O
  C112     1.0000 0.48600  0.75360  0.38050  Biso   1.000  C
  H80      1.0000 0.49260  0.77380  0.32170  Biso   1.000  H
  Ho9      1.0000 0.03160  0.03160  0.50000  Biso   1.000  Ho
  Ho10     1.0000 0.96840  0.96840  0.00000  Biso   1.000  Ho
  Ho11     1.0000 0.46840  0.53160  0.25000  Biso   1.000  Ho
  Ho12     1.0000 0.53160  0.46840  0.75000  Biso   1.000  Ho
  Ho13     1.0000 0.98919  0.01081  0.25000  Biso   1.000  Ho
  Ho14     1.0000 0.01081  0.98919  0.75000  Biso   1.000  Ho
  Ho15     1.0000 0.48919  0.48919  0.00000  Biso   1.000  Ho
  Ho16     1.0000 0.51081  0.51081  0.50000  Biso   1.000  Ho
