data_image0
_cell_length_a       6.419
_cell_length_b       7.9361
_cell_length_c       8.911
_cell_angle_alpha    103.757
_cell_angle_beta     104.137
_cell_angle_gamma    106.945

_symmetry_space_group_name_H-M    "P 1"
_symmetry_int_tables_number       1

loop_
  _symmetry_equiv_pos_as_xyz
  'x, y, z'

loop_
  _atom_site_label
  _atom_site_occupancy
  _atom_site_fract_x
  _atom_site_fract_y
  _atom_site_fract_z
  _atom_site_thermal_displace_type
  _atom_site_B_iso_or_equiv
  _atom_site_type_symbol
  Ba1      1.0000 0.15118  0.27066  0.42750  Biso   1.000  Ba
  O1       1.0000 0.16470  0.57820  0.68498  Biso   1.000  O
  O2       1.0000 0.19800  0.33990  0.76488  Biso   1.000  O
  O3       1.0000 0.38300  0.57930  0.36247  Biso   1.000  O
  O4       1.0000 0.37210  0.81020  0.26313  Biso   1.000  O
  C1       1.0000 0.16310  0.48950  0.78730  Biso   1.000  C
  C2       1.0000 0.10850  0.57200  0.93770  Biso   1.000  C
  H1       1.0000 0.17970  0.71150  0.97730  Biso   1.000  H
  C3       1.0000 0.31880  0.63930  0.24690  Biso   1.000  C
  C4       1.0000 0.15800  0.49640  0.08200  Biso   1.000  C
  H2       1.0000 0.20780  0.38830  0.05290  Biso   1.000  H
  O5       1.0000 0.21770  0.95890  0.50826  Biso   1.000  O
  H3       1.0000 0.26100  0.90800  0.43500  Biso   1.000  H
  H4       1.0000 0.34400  0.01500  0.58200  Biso   1.000  H
  Ba2      1.0000 0.84882  0.72934  0.57250  Biso   1.000  Ba
  O6       1.0000 0.83530  0.42180  0.31502  Biso   1.000  O
  O7       1.0000 0.80200  0.66010  0.23512  Biso   1.000  O
  O8       1.0000 0.61700  0.42070  0.63753  Biso   1.000  O
  O9       1.0000 0.62790  0.18980  0.73687  Biso   1.000  O
  C5       1.0000 0.83690  0.51050  0.21270  Biso   1.000  C
  C6       1.0000 0.89150  0.42800  0.06230  Biso   1.000  C
  H5       1.0000 0.82030  0.28850  0.02270  Biso   1.000  H
  C7       1.0000 0.68120  0.36070  0.75310  Biso   1.000  C
  C8       1.0000 0.84200  0.50360  0.91800  Biso   1.000  C
  H6       1.0000 0.79220  0.61170  0.94710  Biso   1.000  H
  O10      1.0000 0.78230  0.04110  0.49174  Biso   1.000  O
  H7       1.0000 0.73900  0.09200  0.56500  Biso   1.000  H
  H8       1.0000 0.65600  0.98500  0.41800  Biso   1.000  H
