data_XUMVEH_clean
_audit_creation_date              2014-07-02
_audit_creation_method            'Materials Studio'
_symmetry_space_group_name_H-M    'P1'
_symmetry_Int_Tables_number       1
_symmetry_cell_setting            triclinic
loop_
_symmetry_equiv_pos_as_xyz
  x,y,z
_cell_length_a                    13.8542
_cell_length_b                    13.8542
_cell_length_c                    16.4450
_cell_angle_alpha                 67.1022
_cell_angle_beta                  67.1022
_cell_angle_gamma                 75.8689
loop_
_atom_site_label
_atom_site_type_symbol
_atom_site_fract_x
_atom_site_fract_y
_atom_site_fract_z
_atom_site_U_iso_or_equiv
_atom_site_adp_type
_atom_site_occupancy
Nd1    Nd    0.95365   0.66626   0.49935   0.01267  Uiso   1.00
Nd2    Nd    0.33374   0.04635   0.00065   0.01267  Uiso   1.00
Nd3    Nd    0.04635   0.33374   0.50065   0.01267  Uiso   1.00
Nd4    Nd    0.66626   0.95365   0.99935   0.01267  Uiso   1.00
H1     H     0.72150   0.84010   0.74240   0.01267  Uiso   1.00
H2     H     0.41800   0.95320   0.78170   0.01267  Uiso   1.00
H3     H     0.58270   0.84330   0.56760   0.01267  Uiso   1.00
H4     H     0.63000   0.57520   0.65360   0.01267  Uiso   1.00
H5     H     0.15990   0.27850   0.75760   0.01267  Uiso   1.00
H6     H     0.04680   0.58200   0.71830   0.01267  Uiso   1.00
H7     H     0.15670   0.41730   0.93240   0.01267  Uiso   1.00
H8     H     0.42480   0.37000   0.84640   0.01267  Uiso   1.00
H9     H     0.27850   0.15990   0.25760   0.01267  Uiso   1.00
H10    H     0.58200   0.04680   0.21830   0.01267  Uiso   1.00
H11    H     0.41730   0.15670   0.43240   0.01267  Uiso   1.00
H12    H     0.37000   0.42480   0.34640   0.01267  Uiso   1.00
H13    H     0.84010   0.72150   0.24240   0.01267  Uiso   1.00
H14    H     0.95320   0.41800   0.28170   0.01267  Uiso   1.00
H15    H     0.84330   0.58270   0.06760   0.01267  Uiso   1.00
H16    H     0.57520   0.63000   0.15360   0.01267  Uiso   1.00
H17    H     0.73190   0.26810   0.75000   0.01267  Uiso   1.00
H18    H     0.26810   0.73190   0.25000   0.01267  Uiso   1.00
C1     C     0.66810   0.83330   0.64710   0.01267  Uiso   1.00
C2     C     0.66210   0.85570   0.72440   0.01267  Uiso   1.00
C3     C     0.56970   0.90110   0.77500   0.01267  Uiso   1.00
C4     C     0.48130   0.92350   0.74830   0.01267  Uiso   1.00
C5     C     0.48890   0.90070   0.67090   0.01267  Uiso   1.00
C6     C     0.57990   0.85690   0.61960   0.01267  Uiso   1.00
C7     C     0.76820   0.78060   0.59280   0.01267  Uiso   1.00
C8     C     0.56410   0.92650   0.85840   0.01267  Uiso   1.00
C9     C     0.69880   0.42420   0.69090   0.01267  Uiso   1.00
C10    C     0.61714   0.50634   0.69160   0.01267  Uiso   1.00
C11    C     0.80900   0.44820   0.62500   0.01267  Uiso   1.00
C12    C     0.16670   0.33190   0.85290   0.01267  Uiso   1.00
C13    C     0.14430   0.33790   0.77560   0.01267  Uiso   1.00
C14    C     0.09890   0.43030   0.72500   0.01267  Uiso   1.00
C15    C     0.07650   0.51870   0.75170   0.01267  Uiso   1.00
C16    C     0.09930   0.51110   0.82910   0.01267  Uiso   1.00
C17    C     0.14310   0.42010   0.88040   0.01267  Uiso   1.00
C18    C     0.21940   0.23180   0.90720   0.01267  Uiso   1.00
C19    C     0.07350   0.43590   0.64160   0.01267  Uiso   1.00
C20    C     0.57580   0.30120   0.80910   0.01267  Uiso   1.00
C21    C     0.49366   0.38286   0.80840   0.01267  Uiso   1.00
C22    C     0.55180   0.19100   0.87500   0.01267  Uiso   1.00
C23    C     0.33190   0.16670   0.35290   0.01267  Uiso   1.00
C24    C     0.33790   0.14430   0.27560   0.01267  Uiso   1.00
C25    C     0.43030   0.09890   0.22500   0.01267  Uiso   1.00
C26    C     0.51870   0.07650   0.25170   0.01267  Uiso   1.00
C27    C     0.51110   0.09930   0.32910   0.01267  Uiso   1.00
C28    C     0.42010   0.14310   0.38040   0.01267  Uiso   1.00
C29    C     0.23180   0.21940   0.40720   0.01267  Uiso   1.00
C30    C     0.43590   0.07350   0.14160   0.01267  Uiso   1.00
C31    C     0.30120   0.57580   0.30910   0.01267  Uiso   1.00
C32    C     0.38286   0.49366   0.30840   0.01267  Uiso   1.00
C33    C     0.19100   0.55180   0.37500   0.01267  Uiso   1.00
C34    C     0.83330   0.66810   0.14710   0.01267  Uiso   1.00
C35    C     0.85570   0.66210   0.22440   0.01267  Uiso   1.00
C36    C     0.90110   0.56970   0.27500   0.01267  Uiso   1.00
C37    C     0.92350   0.48130   0.24830   0.01267  Uiso   1.00
C38    C     0.90070   0.48890   0.17090   0.01267  Uiso   1.00
C39    C     0.85690   0.57990   0.11960   0.01267  Uiso   1.00
C40    C     0.78060   0.76820   0.09280   0.01267  Uiso   1.00
C41    C     0.92650   0.56410   0.35840   0.01267  Uiso   1.00
C42    C     0.42420   0.69880   0.19090   0.01267  Uiso   1.00
C43    C     0.50634   0.61714   0.19160   0.01267  Uiso   1.00
C44    C     0.44820   0.80900   0.12500   0.01267  Uiso   1.00
C45    C     0.67730   0.32270   0.75000   0.01267  Uiso   1.00
C46    C     0.51710   0.48290   0.75000   0.01267  Uiso   1.00
C47    C     0.32270   0.67730   0.25000   0.01267  Uiso   1.00
C48    C     0.48290   0.51710   0.25000   0.01267  Uiso   1.00
N1     N     0.39460   0.92380   0.64210   0.01267  Uiso   1.00
N2     N     0.07620   0.60540   0.85790   0.01267  Uiso   1.00
N3     N     0.60540   0.07620   0.35790   0.01267  Uiso   1.00
N4     N     0.92380   0.39460   0.14210   0.01267  Uiso   1.00
N5     N     0.43080   0.56920   0.75000   0.01267  Uiso   1.00
N6     N     0.56920   0.43080   0.25000   0.01267  Uiso   1.00
O1     O     0.77154   0.77058   0.51940   0.01267  Uiso   1.00
O2     O     0.84483   0.74885   0.62320   0.01267  Uiso   1.00
O3     O     0.64739   0.90703   0.87750   0.01267  Uiso   1.00
O4     O     0.47754   0.96854   0.90050   0.01267  Uiso   1.00
O5     O     0.31080   0.94580   0.69600   0.01267  Uiso   1.00
O6     O     0.40680   0.91920   0.56680   0.01267  Uiso   1.00
O7     O     0.87467   0.37177   0.61050   0.01267  Uiso   1.00
O8     O     0.82501   0.54301   0.58910   0.01267  Uiso   1.00
O9     O     0.33997   0.54737   0.79380   0.01267  Uiso   1.00
O10    O     0.22942   0.22846   0.98060   0.01267  Uiso   1.00
O11    O     0.25115   0.15517   0.87680   0.01267  Uiso   1.00
O12    O     0.09297   0.35261   0.62250   0.01267  Uiso   1.00
O13    O     0.03146   0.52246   0.59950   0.01267  Uiso   1.00
O14    O     0.05420   0.68920   0.80400   0.01267  Uiso   1.00
O15    O     0.08080   0.59320   0.93320   0.01267  Uiso   1.00
O16    O     0.62823   0.12533   0.88950   0.01267  Uiso   1.00
O17    O     0.45699   0.17499   0.91090   0.01267  Uiso   1.00
O18    O     0.45263   0.66003   0.70620   0.01267  Uiso   1.00
O19    O     0.22846   0.22942   0.48060   0.01267  Uiso   1.00
O20    O     0.15517   0.25115   0.37680   0.01267  Uiso   1.00
O21    O     0.35261   0.09297   0.12250   0.01267  Uiso   1.00
O22    O     0.52246   0.03146   0.09950   0.01267  Uiso   1.00
O23    O     0.68920   0.05420   0.30400   0.01267  Uiso   1.00
O24    O     0.59320   0.08080   0.43320   0.01267  Uiso   1.00
O25    O     0.12533   0.62823   0.38950   0.01267  Uiso   1.00
O26    O     0.17499   0.45699   0.41090   0.01267  Uiso   1.00
O27    O     0.66003   0.45263   0.20620   0.01267  Uiso   1.00
O28    O     0.77058   0.77154   0.01940   0.01267  Uiso   1.00
O29    O     0.74885   0.84483   0.12320   0.01267  Uiso   1.00
O30    O     0.90703   0.64739   0.37750   0.01267  Uiso   1.00
O31    O     0.96854   0.47754   0.40050   0.01267  Uiso   1.00
O32    O     0.94580   0.31080   0.19600   0.01267  Uiso   1.00
O33    O     0.91920   0.40680   0.06680   0.01267  Uiso   1.00
O34    O     0.37177   0.87467   0.11050   0.01267  Uiso   1.00
O35    O     0.54301   0.82501   0.08910   0.01267  Uiso   1.00
O36    O     0.54737   0.33997   0.29380   0.01267  Uiso   1.00
