data_XUNGOD_clean
_audit_creation_date              2014-07-02
_audit_creation_method            'Materials Studio'
_symmetry_space_group_name_H-M    'P1'
_symmetry_Int_Tables_number       1
_symmetry_cell_setting            triclinic
loop_
_symmetry_equiv_pos_as_xyz
  x,y,z
_cell_length_a                    5.3968
_cell_length_b                    11.4886
_cell_length_c                    13.4233
_cell_angle_alpha                 90.6700
_cell_angle_beta                  94.9000
_cell_angle_gamma                 91.2380
loop_
_atom_site_label
_atom_site_type_symbol
_atom_site_fract_x
_atom_site_fract_y
_atom_site_fract_z
_atom_site_U_iso_or_equiv
_atom_site_adp_type
_atom_site_occupancy
Li1    Li    0.68730   0.98790   0.93500   0.01267  Uiso   1.00
Li2    Li    0.30570   0.48610   0.55970   0.01267  Uiso   1.00
Li3    Li    0.31270   0.01210   0.06500   0.01267  Uiso   1.00
Li4    Li    0.69430   0.51390   0.44030   0.01267  Uiso   1.00
H1     H     0.06790   0.18450   0.65500   0.01267  Uiso   1.00
H2     H     0.99500   0.04520   0.76880   0.01267  Uiso   1.00
H3     H     0.41310   0.20430   0.84640   0.01267  Uiso   1.00
H4     H     0.45980   0.34580   0.72970   0.01267  Uiso   1.00
H5     H     0.55730   0.73340   0.86780   0.01267  Uiso   1.00
H6     H     0.59550   0.59290   0.74860   0.01267  Uiso   1.00
H7     H     0.95040   0.66450   0.61420   0.01267  Uiso   1.00
H8     H     0.88400   0.80020   0.73410   0.01267  Uiso   1.00
H9     H     0.93210   0.81550   0.34500   0.01267  Uiso   1.00
H10    H     0.00500   0.95480   0.23120   0.01267  Uiso   1.00
H11    H     0.58690   0.79570   0.15360   0.01267  Uiso   1.00
H12    H     0.54020   0.65420   0.27030   0.01267  Uiso   1.00
H13    H     0.44270   0.26660   0.13220   0.01267  Uiso   1.00
H14    H     0.40450   0.40710   0.25140   0.01267  Uiso   1.00
H15    H     0.04960   0.33550   0.38580   0.01267  Uiso   1.00
H16    H     0.11600   0.19980   0.26590   0.01267  Uiso   1.00
C1     C     0.82460   0.37390   0.60250   0.01267  Uiso   1.00
C2     C     0.77280   0.28240   0.67920   0.01267  Uiso   1.00
C3     C     0.93190   0.19030   0.69270   0.01267  Uiso   1.00
C4     C     0.88790   0.10750   0.76220   0.01267  Uiso   1.00
C5     C     0.54630   0.19990   0.80700   0.01267  Uiso   1.00
C6     C     0.57370   0.28620   0.73730   0.01267  Uiso   1.00
C7     C     0.16580   0.87060   0.89700   0.01267  Uiso   1.00
C8     C     0.21270   0.78260   0.81580   0.01267  Uiso   1.00
C9     C     0.42930   0.71950   0.81790   0.01267  Uiso   1.00
C10    C     0.45150   0.63620   0.74510   0.01267  Uiso   1.00
C11    C     0.07210   0.67710   0.66680   0.01267  Uiso   1.00
C12    C     0.03190   0.75970   0.73800   0.01267  Uiso   1.00
C13    C     0.17540   0.62610   0.39750   0.01267  Uiso   1.00
C14    C     0.22720   0.71760   0.32080   0.01267  Uiso   1.00
C15    C     0.06810   0.80970   0.30730   0.01267  Uiso   1.00
C16    C     0.11210   0.89250   0.23780   0.01267  Uiso   1.00
C17    C     0.45370   0.80010   0.19300   0.01267  Uiso   1.00
C18    C     0.42630   0.71380   0.26270   0.01267  Uiso   1.00
C19    C     0.83420   0.12940   0.10300   0.01267  Uiso   1.00
C20    C     0.78730   0.21740   0.18420   0.01267  Uiso   1.00
C21    C     0.57070   0.28050   0.18210   0.01267  Uiso   1.00
C22    C     0.54850   0.36380   0.25490   0.01267  Uiso   1.00
C23    C     0.92790   0.32290   0.33320   0.01267  Uiso   1.00
C24    C     0.96810   0.24030   0.26200   0.01267  Uiso   1.00
N1     N     0.69990   0.11090   0.82110   0.01267  Uiso   1.00
N2     N     0.27850   0.61340   0.66920   0.01267  Uiso   1.00
N3     N     0.30010   0.88910   0.17890   0.01267  Uiso   1.00
N4     N     0.72150   0.38660   0.33080   0.01267  Uiso   1.00
O1     O     0.03820   0.37980   0.57530   0.01267  Uiso   1.00
O2     O     0.64630   0.43750   0.57110   0.01267  Uiso   1.00
O3     O     0.94600   0.88760   0.91150   0.01267  Uiso   1.00
O4     O     0.35330   0.92030   0.94290   0.01267  Uiso   1.00
O5     O     0.96180   0.62020   0.42470   0.01267  Uiso   1.00
O6     O     0.35370   0.56250   0.42890   0.01267  Uiso   1.00
O7     O     0.05400   0.11240   0.08850   0.01267  Uiso   1.00
O8     O     0.64670   0.07970   0.05710   0.01267  Uiso   1.00
