data_image0
_cell_length_a       5.4013
_cell_length_b       17.644
_cell_length_c       17.825
_cell_angle_alpha    89.391
_cell_angle_beta     85.708
_cell_angle_gamma    86.268

_symmetry_space_group_name_H-M    "P 1"
_symmetry_int_tables_number       1

loop_
  _symmetry_equiv_pos_as_xyz
  'x, y, z'

loop_
  _atom_site_label
  _atom_site_occupancy
  _atom_site_fract_x
  _atom_site_fract_y
  _atom_site_fract_z
  _atom_site_thermal_displace_type
  _atom_site_B_iso_or_equiv
  _atom_site_type_symbol
  O1       1.0000 0.36440  0.56837  0.49813  Biso   1.000  O
  O2       1.0000 0.05180  0.00408  0.40088  Biso   1.000  O
  O3       1.0000 0.34680  0.06685  0.01364  Biso   1.000  O
  N1       1.0000 0.29270  0.85370  0.46470  Biso   1.000  N
  O4       1.0000 0.94730  0.09261  0.99202  Biso   1.000  O
  O5       1.0000 0.14230  0.49723  0.93238  Biso   1.000  O
  O6       1.0000 0.96110  0.59756  0.48751  Biso   1.000  O
  O7       1.0000 0.64270  0.00281  0.43262  Biso   1.000  O
  C1       1.0000 0.18660  0.19580  0.01600  Biso   1.000  C
  C2       1.0000 0.22860  0.69700  0.47810  Biso   1.000  C
  N2       1.0000 0.71420  0.02840  0.14790  Biso   1.000  N
  N3       1.0000 0.21390  0.35280  0.03240  Biso   1.000  N
  N4       1.0000 0.27170  0.47430  0.64870  Biso   1.000  N
  C3       1.0000 0.56500  0.04580  0.27800  Biso   1.000  C
  H1       1.0000 0.43360  0.06380  0.31300  Biso   1.000  H
  C4       1.0000 0.43080  0.72870  0.50490  Biso   1.000  C
  H2       1.0000 0.55430  0.69750  0.52780  Biso   1.000  H
  C5       1.0000 0.17980  0.61440  0.48870  Biso   1.000  C
  C6       1.0000 0.38280  0.30340  0.05790  Biso   1.000  C
  H3       1.0000 0.51580  0.32240  0.08250  Biso   1.000  H
  C7       1.0000 0.37650  0.22460  0.05080  Biso   1.000  C
  H4       1.0000 0.50310  0.19150  0.06990  Biso   1.000  H
  O8       1.0000 0.54970  0.50349  0.90494  Biso   1.000  O
  C8       1.0000 0.83150  0.00510  0.38520  Biso   1.000  C
  C9       1.0000 0.15520  0.11210  0.00740  Biso   1.000  C
  C10      1.0000 0.33240  0.49900  0.88630  Biso   1.000  C
  C11      1.0000 0.78260  0.01130  0.30280  Biso   1.000  C
  C12      1.0000 0.10300  0.82190  0.43680  Biso   1.000  C
  H5       1.0000 0.98820  0.85360  0.41090  Biso   1.000  H
  C13      1.0000 0.45340  0.80680  0.49820  Biso   1.000  C
  H6       1.0000 0.59110  0.82760  0.51880  Biso   1.000  H
  C14      1.0000 0.06340  0.74550  0.44350  Biso   1.000  C
  H7       1.0000 0.92100  0.72650  0.42390  Biso   1.000  H
  C15      1.0000 0.29940  0.49320  0.80380  Biso   1.000  C
  C16      1.0000 0.10610  0.45760  0.77590  Biso   1.000  C
  H8       1.0000 0.97700  0.43950  0.80920  Biso   1.000  H
  C17      1.0000 0.00650  0.24730  0.99040  Biso   1.000  C
  H9       1.0000 0.86790  0.22980  0.96750  Biso   1.000  H
  C18      1.0000 0.96070  0.98550  0.24930  Biso   1.000  C
  H10      1.0000 0.11240  0.96160  0.26390  Biso   1.000  H
  C19      1.0000 0.10180  0.44860  0.69920  Biso   1.000  C
  H11      1.0000 0.96990  0.42240  0.68130  Biso   1.000  H
  C20      1.0000 0.45170  0.51090  0.67680  Biso   1.000  C
  H12      1.0000 0.57240  0.53160  0.64230  Biso   1.000  H
  C21      1.0000 0.54260  0.05350  0.20100  Biso   1.000  C
  H13      1.0000 0.39410  0.07840  0.18510  Biso   1.000  H
  C22      1.0000 0.02950  0.32410  0.99850  Biso   1.000  C
  H14      1.0000 0.90740  0.35840  0.97880  Biso   1.000  H
  Li1      1.0000 0.19890  0.47040  0.03750  Biso   1.000  Li
  C23      1.0000 0.47480  0.52090  0.75230  Biso   1.000  C
  H15      1.0000 0.61000  0.54660  0.76870  Biso   1.000  H
  C24      1.0000 0.92130  0.99400  0.17360  Biso   1.000  C
  H16      1.0000 0.04780  0.97440  0.13780  Biso   1.000  H
  Li2      1.0000 0.29410  0.46550  0.53340  Biso   1.000  Li
  Li3      1.0000 0.31060  0.97240  0.46130  Biso   1.000  Li
  Li4      1.0000 0.30990  0.96390  0.96820  Biso   1.000  Li
  O9       1.0000 0.63560  0.43163  0.50187  Biso   1.000  O
  O10      1.0000 0.94820  0.99592  0.59912  Biso   1.000  O
  O11      1.0000 0.65320  0.93315  0.98636  Biso   1.000  O
  N5       1.0000 0.70730  0.14630  0.53530  Biso   1.000  N
  O12      1.0000 0.05270  0.90739  0.00798  Biso   1.000  O
  O13      1.0000 0.85770  0.50277  0.06762  Biso   1.000  O
  O14      1.0000 0.03890  0.40244  0.51249  Biso   1.000  O
  O15      1.0000 0.35730  0.99719  0.56738  Biso   1.000  O
  C25      1.0000 0.81340  0.80420  0.98400  Biso   1.000  C
  C26      1.0000 0.77140  0.30300  0.52190  Biso   1.000  C
  N6       1.0000 0.28580  0.97160  0.85210  Biso   1.000  N
  N7       1.0000 0.78610  0.64720  0.96760  Biso   1.000  N
  N8       1.0000 0.72830  0.52570  0.35130  Biso   1.000  N
  C27      1.0000 0.43500  0.95420  0.72200  Biso   1.000  C
  H17      1.0000 0.56640  0.93620  0.68700  Biso   1.000  H
  C28      1.0000 0.56920  0.27130  0.49510  Biso   1.000  C
  H18      1.0000 0.44570  0.30250  0.47220  Biso   1.000  H
  C29      1.0000 0.82020  0.38560  0.51130  Biso   1.000  C
  C30      1.0000 0.61720  0.69660  0.94210  Biso   1.000  C
  H19      1.0000 0.48420  0.67760  0.91750  Biso   1.000  H
  C31      1.0000 0.62350  0.77540  0.94920  Biso   1.000  C
  H20      1.0000 0.49690  0.80850  0.93010  Biso   1.000  H
  O16      1.0000 0.45030  0.49651  0.09506  Biso   1.000  O
  C32      1.0000 0.16850  0.99490  0.61480  Biso   1.000  C
  C33      1.0000 0.84480  0.88790  0.99260  Biso   1.000  C
  C34      1.0000 0.66760  0.50100  0.11370  Biso   1.000  C
  C35      1.0000 0.21740  0.98870  0.69720  Biso   1.000  C
  C36      1.0000 0.89700  0.17810  0.56320  Biso   1.000  C
  H21      1.0000 0.01180  0.14640  0.58910  Biso   1.000  H
  C37      1.0000 0.54660  0.19320  0.50180  Biso   1.000  C
  H22      1.0000 0.40890  0.17240  0.48120  Biso   1.000  H
  C38      1.0000 0.93660  0.25450  0.55650  Biso   1.000  C
  H23      1.0000 0.07900  0.27350  0.57610  Biso   1.000  H
  C39      1.0000 0.70060  0.50680  0.19620  Biso   1.000  C
  C40      1.0000 0.89390  0.54240  0.22410  Biso   1.000  C
  H24      1.0000 0.02300  0.56050  0.19080  Biso   1.000  H
  C41      1.0000 0.99350  0.75270  0.00960  Biso   1.000  C
  H25      1.0000 0.13210  0.77020  0.03250  Biso   1.000  H
  C42      1.0000 0.03930  0.01450  0.75070  Biso   1.000  C
  H26      1.0000 0.88760  0.03840  0.73610  Biso   1.000  H
  C43      1.0000 0.89820  0.55140  0.30080  Biso   1.000  C
  H27      1.0000 0.03010  0.57760  0.31870  Biso   1.000  H
  C44      1.0000 0.54830  0.48910  0.32320  Biso   1.000  C
  H28      1.0000 0.42760  0.46840  0.35770  Biso   1.000  H
  C45      1.0000 0.45740  0.94650  0.79900  Biso   1.000  C
  H29      1.0000 0.60590  0.92160  0.81490  Biso   1.000  H
  C46      1.0000 0.97050  0.67590  0.00150  Biso   1.000  C
  H30      1.0000 0.09260  0.64160  0.02120  Biso   1.000  H
  Li5      1.0000 0.80110  0.52960  0.96250  Biso   1.000  Li
  C47      1.0000 0.52520  0.47910  0.24770  Biso   1.000  C
  H31      1.0000 0.39000  0.45340  0.23130  Biso   1.000  H
  C48      1.0000 0.07870  0.00600  0.82640  Biso   1.000  C
  H32      1.0000 0.95220  0.02560  0.86220  Biso   1.000  H
  Li6      1.0000 0.70590  0.53450  0.46660  Biso   1.000  Li
  Li7      1.0000 0.68940  0.02760  0.53870  Biso   1.000  Li
  Li8      1.0000 0.69010  0.03610  0.03180  Biso   1.000  Li
