data_image0
_cell_length_a       10.2402
_cell_length_b       9.5023
_cell_length_c       15.2912
_cell_angle_alpha    90
_cell_angle_beta     98.328
_cell_angle_gamma    90

_symmetry_space_group_name_H-M    "P 1"
_symmetry_int_tables_number       1

loop_
  _symmetry_equiv_pos_as_xyz
  'x, y, z'

loop_
  _atom_site_label
  _atom_site_occupancy
  _atom_site_fract_x
  _atom_site_fract_y
  _atom_site_fract_z
  _atom_site_thermal_displace_type
  _atom_site_B_iso_or_equiv
  _atom_site_type_symbol
  O1       1.0000 0.83500  0.07300  0.57340  Biso   1.000  O
  O2       1.0000 0.67320  0.87740  0.48430  Biso   1.000  O
  O3       1.0000 0.03480  0.16570  0.56980  Biso   1.000  O
  N1       1.0000 0.88010  0.43080  0.81840  Biso   1.000  N
  C1       1.0000 0.92800  0.15790  0.59940  Biso   1.000  C
  O4       1.0000 0.46420  0.81190  0.44470  Biso   1.000  O
  N2       1.0000 0.70720  0.36340  0.41560  Biso   1.000  N
  C2       1.0000 0.90800  0.25640  0.67370  Biso   1.000  C
  C3       1.0000 0.62930  0.63870  0.44420  Biso   1.000  C
  C4       1.0000 0.78660  0.33870  0.78630  Biso   1.000  C
  H1       1.0000 0.70940  0.33290  0.81390  Biso   1.000  H
  C5       1.0000 0.79610  0.25180  0.71550  Biso   1.000  C
  H2       1.0000 0.72620  0.18880  0.69510  Biso   1.000  H
  C6       1.0000 0.00600  0.35200  0.70690  Biso   1.000  C
  H3       1.0000 0.08480  0.35890  0.68120  Biso   1.000  H
  C7       1.0000 0.54010  0.54040  0.40190  Biso   1.000  C
  H4       1.0000 0.45100  0.56620  0.38230  Biso   1.000  H
  C8       1.0000 0.58450  0.78790  0.45860  Biso   1.000  C
  C9       1.0000 0.75760  0.59500  0.47220  Biso   1.000  C
  H5       1.0000 0.82110  0.65810  0.50180  Biso   1.000  H
  C10      1.0000 0.79100  0.45720  0.45600  Biso   1.000  C
  H6       1.0000 0.87930  0.42820  0.47490  Biso   1.000  H
  C11      1.0000 0.98760  0.43660  0.77760  Biso   1.000  C
  H7       1.0000 0.05470  0.50240  0.79840  Biso   1.000  H
  C12      1.0000 0.58310  0.40570  0.38900  Biso   1.000  C
  H8       1.0000 0.52180  0.33980  0.35990  Biso   1.000  H
  Li1      1.0000 0.64910  0.03200  0.56490  Biso   1.000  Li
  Li2      1.0000 0.83860  0.96130  0.46470  Biso   1.000  Li
  O5       1.0000 0.66500  0.57300  0.92660  Biso   1.000  O
  O6       1.0000 0.82680  0.37740  0.01570  Biso   1.000  O
  O7       1.0000 0.46520  0.66570  0.93020  Biso   1.000  O
  N3       1.0000 0.61990  0.93080  0.68160  Biso   1.000  N
  C13      1.0000 0.57200  0.65790  0.90060  Biso   1.000  C
  O8       1.0000 0.03580  0.31190  0.05530  Biso   1.000  O
  N4       1.0000 0.79280  0.86340  0.08440  Biso   1.000  N
  C14      1.0000 0.59200  0.75640  0.82630  Biso   1.000  C
  C15      1.0000 0.87070  0.13870  0.05580  Biso   1.000  C
  C16      1.0000 0.71340  0.83870  0.71370  Biso   1.000  C
  H9       1.0000 0.79060  0.83290  0.68610  Biso   1.000  H
  C17      1.0000 0.70390  0.75180  0.78450  Biso   1.000  C
  H10      1.0000 0.77380  0.68880  0.80490  Biso   1.000  H
  C18      1.0000 0.49400  0.85200  0.79310  Biso   1.000  C
  H11      1.0000 0.41520  0.85890  0.81880  Biso   1.000  H
  C19      1.0000 0.95990  0.04040  0.09810  Biso   1.000  C
  H12      1.0000 0.04900  0.06620  0.11770  Biso   1.000  H
  C20      1.0000 0.91550  0.28790  0.04140  Biso   1.000  C
  C21      1.0000 0.74240  0.09500  0.02780  Biso   1.000  C
  H13      1.0000 0.67890  0.15810  0.99820  Biso   1.000  H
  C22      1.0000 0.70900  0.95720  0.04400  Biso   1.000  C
  H14      1.0000 0.62070  0.92820  0.02510  Biso   1.000  H
  C23      1.0000 0.51240  0.93660  0.72240  Biso   1.000  C
  H15      1.0000 0.44530  0.00240  0.70160  Biso   1.000  H
  C24      1.0000 0.91690  0.90570  0.11100  Biso   1.000  C
  H16      1.0000 0.97820  0.83980  0.14010  Biso   1.000  H
  Li3      1.0000 0.85090  0.53200  0.93510  Biso   1.000  Li
  Li4      1.0000 0.66140  0.46130  0.03530  Biso   1.000  Li
  O9       1.0000 0.16500  0.92700  0.42660  Biso   1.000  O
  O10      1.0000 0.32680  0.12260  0.51570  Biso   1.000  O
  O11      1.0000 0.96520  0.83430  0.43020  Biso   1.000  O
  N5       1.0000 0.11990  0.56920  0.18160  Biso   1.000  N
  C25      1.0000 0.07200  0.84210  0.40060  Biso   1.000  C
  O12      1.0000 0.53580  0.18810  0.55530  Biso   1.000  O
  N6       1.0000 0.29280  0.63660  0.58440  Biso   1.000  N
  C26      1.0000 0.09200  0.74360  0.32630  Biso   1.000  C
  C27      1.0000 0.37070  0.36130  0.55580  Biso   1.000  C
  C28      1.0000 0.21340  0.66130  0.21370  Biso   1.000  C
  H17      1.0000 0.29060  0.66710  0.18610  Biso   1.000  H
  C29      1.0000 0.20390  0.74820  0.28450  Biso   1.000  C
  H18      1.0000 0.27380  0.81120  0.30490  Biso   1.000  H
  C30      1.0000 0.99400  0.64800  0.29310  Biso   1.000  C
  H19      1.0000 0.91520  0.64110  0.31880  Biso   1.000  H
  C31      1.0000 0.45990  0.45960  0.59810  Biso   1.000  C
  H20      1.0000 0.54900  0.43380  0.61770  Biso   1.000  H
  C32      1.0000 0.41550  0.21210  0.54140  Biso   1.000  C
  C33      1.0000 0.24240  0.40500  0.52780  Biso   1.000  C
  H21      1.0000 0.17890  0.34190  0.49820  Biso   1.000  H
  C34      1.0000 0.20900  0.54280  0.54400  Biso   1.000  C
  H22      1.0000 0.12070  0.57180  0.52510  Biso   1.000  H
  C35      1.0000 0.01240  0.56340  0.22240  Biso   1.000  C
  H23      1.0000 0.94530  0.49760  0.20160  Biso   1.000  H
  C36      1.0000 0.41690  0.59430  0.61100  Biso   1.000  C
  H24      1.0000 0.47820  0.66020  0.64010  Biso   1.000  H
  Li5      1.0000 0.35090  0.96800  0.43510  Biso   1.000  Li
  Li6      1.0000 0.16140  0.03870  0.53530  Biso   1.000  Li
  O13      1.0000 0.33500  0.42700  0.07340  Biso   1.000  O
  O14      1.0000 0.17320  0.62260  0.98430  Biso   1.000  O
  O15      1.0000 0.53480  0.33430  0.06980  Biso   1.000  O
  N7       1.0000 0.38010  0.06920  0.31840  Biso   1.000  N
  C37      1.0000 0.42800  0.34210  0.09940  Biso   1.000  C
  O16      1.0000 0.96420  0.68810  0.94470  Biso   1.000  O
  N8       1.0000 0.20720  0.13660  0.91560  Biso   1.000  N
  C38      1.0000 0.40800  0.24360  0.17370  Biso   1.000  C
  C39      1.0000 0.12930  0.86130  0.94420  Biso   1.000  C
  C40      1.0000 0.28660  0.16130  0.28630  Biso   1.000  C
  H25      1.0000 0.20940  0.16710  0.31390  Biso   1.000  H
  C41      1.0000 0.29610  0.24820  0.21550  Biso   1.000  C
  H26      1.0000 0.22620  0.31120  0.19510  Biso   1.000  H
  C42      1.0000 0.50600  0.14800  0.20690  Biso   1.000  C
  H27      1.0000 0.58480  0.14110  0.18120  Biso   1.000  H
  C43      1.0000 0.04010  0.95960  0.90190  Biso   1.000  C
  H28      1.0000 0.95100  0.93380  0.88230  Biso   1.000  H
  C44      1.0000 0.08450  0.71210  0.95860  Biso   1.000  C
  C45      1.0000 0.25760  0.90500  0.97220  Biso   1.000  C
  H29      1.0000 0.32110  0.84190  0.00180  Biso   1.000  H
  C46      1.0000 0.29100  0.04280  0.95600  Biso   1.000  C
  H30      1.0000 0.37930  0.07180  0.97490  Biso   1.000  H
  C47      1.0000 0.48760  0.06340  0.27760  Biso   1.000  C
  H31      1.0000 0.55470  0.99760  0.29840  Biso   1.000  H
  C48      1.0000 0.08310  0.09430  0.88900  Biso   1.000  C
  H32      1.0000 0.02180  0.16020  0.85990  Biso   1.000  H
  Li7      1.0000 0.14910  0.46800  0.06490  Biso   1.000  Li
  Li8      1.0000 0.33860  0.53870  0.96470  Biso   1.000  Li
