data_image0
_cell_length_a       5.3881
_cell_length_b       14.1175
_cell_length_c       11.4098
_cell_angle_alpha    90
_cell_angle_beta     101.187
_cell_angle_gamma    90

_symmetry_space_group_name_H-M    "P 1"
_symmetry_int_tables_number       1

loop_
  _symmetry_equiv_pos_as_xyz
  'x, y, z'

loop_
  _atom_site_label
  _atom_site_occupancy
  _atom_site_fract_x
  _atom_site_fract_y
  _atom_site_fract_z
  _atom_site_thermal_displace_type
  _atom_site_B_iso_or_equiv
  _atom_site_type_symbol
  O1       1.0000 0.84160  0.43920  0.92720  Biso   1.000  O
  O2       1.0000 0.44040  0.39530  0.91360  Biso   1.000  O
  C1       1.0000 0.68970  0.30660  0.80610  Biso   1.000  C
  C2       1.0000 0.65360  0.38670  0.89020  Biso   1.000  C
  N1       1.0000 0.72210  0.16420  0.63830  Biso   1.000  N
  C3       1.0000 0.55020  0.16090  0.70830  Biso   1.000  C
  H1       1.0000 0.43780  0.10840  0.70030  Biso   1.000  H
  C4       1.0000 0.87650  0.30820  0.73870  Biso   1.000  C
  H2       1.0000 0.99950  0.35720  0.74940  Biso   1.000  H
  C5       1.0000 0.88250  0.23710  0.65500  Biso   1.000  C
  H3       1.0000 0.00790  0.24060  0.60690  Biso   1.000  H
  C6       1.0000 0.52720  0.22970  0.79180  Biso   1.000  C
  H4       1.0000 0.40080  0.22430  0.83890  Biso   1.000  H
  Li1      1.0000 0.20520  0.43660  0.00350  Biso   1.000  Li
  O3       1.0000 0.65840  0.93920  0.57280  Biso   1.000  O
  O4       1.0000 0.05960  0.89530  0.58640  Biso   1.000  O
  C7       1.0000 0.81030  0.80660  0.69390  Biso   1.000  C
  C8       1.0000 0.84640  0.88670  0.60980  Biso   1.000  C
  N2       1.0000 0.77790  0.66420  0.86170  Biso   1.000  N
  C9       1.0000 0.94980  0.66090  0.79170  Biso   1.000  C
  H5       1.0000 0.06220  0.60840  0.79970  Biso   1.000  H
  C10      1.0000 0.62350  0.80820  0.76130  Biso   1.000  C
  H6       1.0000 0.50050  0.85720  0.75060  Biso   1.000  H
  C11      1.0000 0.61750  0.73710  0.84500  Biso   1.000  C
  H7       1.0000 0.49210  0.74060  0.89310  Biso   1.000  H
  C12      1.0000 0.97280  0.72970  0.70820  Biso   1.000  C
  H8       1.0000 0.09920  0.72430  0.66110  Biso   1.000  H
  Li2      1.0000 0.29480  0.93660  0.49650  Biso   1.000  Li
  O5       1.0000 0.15840  0.56080  0.07280  Biso   1.000  O
  O6       1.0000 0.55960  0.60470  0.08640  Biso   1.000  O
  C13      1.0000 0.31030  0.69340  0.19390  Biso   1.000  C
  C14      1.0000 0.34640  0.61330  0.10980  Biso   1.000  C
  N3       1.0000 0.27790  0.83580  0.36170  Biso   1.000  N
  C15      1.0000 0.44980  0.83910  0.29170  Biso   1.000  C
  H9       1.0000 0.56220  0.89160  0.29970  Biso   1.000  H
  C16      1.0000 0.12350  0.69180  0.26130  Biso   1.000  C
  H10      1.0000 0.00050  0.64280  0.25060  Biso   1.000  H
  C17      1.0000 0.11750  0.76290  0.34500  Biso   1.000  C
  H11      1.0000 0.99210  0.75940  0.39310  Biso   1.000  H
  C18      1.0000 0.47280  0.77030  0.20820  Biso   1.000  C
  H12      1.0000 0.59920  0.77570  0.16110  Biso   1.000  H
  Li3      1.0000 0.79480  0.56340  0.99650  Biso   1.000  Li
  O7       1.0000 0.34160  0.06080  0.42720  Biso   1.000  O
  O8       1.0000 0.94040  0.10470  0.41360  Biso   1.000  O
  C19      1.0000 0.18970  0.19340  0.30610  Biso   1.000  C
  C20      1.0000 0.15360  0.11330  0.39020  Biso   1.000  C
  N4       1.0000 0.22210  0.33580  0.13830  Biso   1.000  N
  C21      1.0000 0.05020  0.33910  0.20830  Biso   1.000  C
  H13      1.0000 0.93780  0.39160  0.20030  Biso   1.000  H
  C22      1.0000 0.37650  0.19180  0.23870  Biso   1.000  C
  H14      1.0000 0.49950  0.14280  0.24940  Biso   1.000  H
  C23      1.0000 0.38250  0.26290  0.15500  Biso   1.000  C
  H15      1.0000 0.50790  0.25940  0.10690  Biso   1.000  H
  C24      1.0000 0.02720  0.27030  0.29180  Biso   1.000  C
  H16      1.0000 0.90080  0.27570  0.33890  Biso   1.000  H
  Li4      1.0000 0.70520  0.06340  0.50350  Biso   1.000  Li
