data_image0
_cell_length_a       5.4241
_cell_length_b       13.8293
_cell_length_c       11.1181
_cell_angle_alpha    90
_cell_angle_beta     102.79
_cell_angle_gamma    90

_symmetry_space_group_name_H-M    "P 1"
_symmetry_int_tables_number       1

loop_
  _symmetry_equiv_pos_as_xyz
  'x, y, z'

loop_
  _atom_site_label
  _atom_site_occupancy
  _atom_site_fract_x
  _atom_site_fract_y
  _atom_site_fract_z
  _atom_site_thermal_displace_type
  _atom_site_B_iso_or_equiv
  _atom_site_type_symbol
  O1       1.0000 0.82390  0.04677  0.40884  Biso   1.000  O
  N1       1.0000 0.67700  0.31769  0.09896  Biso   1.000  N
  O2       1.0000 0.41950  0.08635  0.38962  Biso   1.000  O
  C1       1.0000 0.63060  0.09647  0.36576  Biso   1.000  C
  C2       1.0000 0.65320  0.17512  0.27395  Biso   1.000  C
  C3       1.0000 0.83920  0.17284  0.20564  Biso   1.000  C
  H1       1.0000 0.96340  0.12320  0.21860  Biso   1.000  H
  C4       1.0000 0.50180  0.32024  0.16740  Biso   1.000  C
  H2       1.0000 0.38490  0.37240  0.15530  Biso   1.000  H
  C5       1.0000 0.83970  0.24413  0.11856  Biso   1.000  C
  H3       1.0000 0.96310  0.24050  0.06990  Biso   1.000  H
  C6       1.0000 0.48270  0.25137  0.25404  Biso   1.000  C
  H4       1.0000 0.35440  0.25590  0.29970  Biso   1.000  H
  Li1      1.0000 0.18290  0.06560  0.48500  Biso   1.000  Li
  O3       1.0000 0.67610  0.54677  0.09116  Biso   1.000  O
  N2       1.0000 0.82300  0.81769  0.40104  Biso   1.000  N
  O4       1.0000 0.08050  0.58635  0.11038  Biso   1.000  O
  C7       1.0000 0.86940  0.59647  0.13424  Biso   1.000  C
  C8       1.0000 0.84680  0.67512  0.22605  Biso   1.000  C
  C9       1.0000 0.66080  0.67284  0.29436  Biso   1.000  C
  H5       1.0000 0.53660  0.62320  0.28140  Biso   1.000  H
  C10      1.0000 0.99820  0.82024  0.33260  Biso   1.000  C
  H6       1.0000 0.11510  0.87240  0.34470  Biso   1.000  H
  C11      1.0000 0.66030  0.74413  0.38144  Biso   1.000  C
  H7       1.0000 0.53690  0.74050  0.43010  Biso   1.000  H
  C12      1.0000 0.01730  0.75137  0.24596  Biso   1.000  C
  H8       1.0000 0.14560  0.75590  0.20030  Biso   1.000  H
  Li2      1.0000 0.31710  0.56560  0.01500  Biso   1.000  Li
  O5       1.0000 0.17610  0.95323  0.59116  Biso   1.000  O
  N3       1.0000 0.32300  0.68231  0.90104  Biso   1.000  N
  O6       1.0000 0.58050  0.91365  0.61038  Biso   1.000  O
  C13      1.0000 0.36940  0.90353  0.63424  Biso   1.000  C
  C14      1.0000 0.34680  0.82488  0.72605  Biso   1.000  C
  C15      1.0000 0.16080  0.82716  0.79436  Biso   1.000  C
  H9       1.0000 0.03660  0.87680  0.78140  Biso   1.000  H
  C16      1.0000 0.49820  0.67976  0.83260  Biso   1.000  C
  H10      1.0000 0.61510  0.62760  0.84470  Biso   1.000  H
  C17      1.0000 0.16030  0.75587  0.88144  Biso   1.000  C
  H11      1.0000 0.03690  0.75950  0.93010  Biso   1.000  H
  C18      1.0000 0.51730  0.74863  0.74596  Biso   1.000  C
  H12      1.0000 0.64560  0.74410  0.70030  Biso   1.000  H
  Li3      1.0000 0.81710  0.93440  0.51500  Biso   1.000  Li
  O7       1.0000 0.32390  0.45323  0.90884  Biso   1.000  O
  N4       1.0000 0.17700  0.18231  0.59896  Biso   1.000  N
  O8       1.0000 0.91950  0.41365  0.88962  Biso   1.000  O
  C19      1.0000 0.13060  0.40353  0.86576  Biso   1.000  C
  C20      1.0000 0.15320  0.32488  0.77395  Biso   1.000  C
  C21      1.0000 0.33920  0.32716  0.70564  Biso   1.000  C
  H13      1.0000 0.46340  0.37680  0.71860  Biso   1.000  H
  C22      1.0000 0.00180  0.17976  0.66740  Biso   1.000  C
  H14      1.0000 0.88490  0.12760  0.65530  Biso   1.000  H
  C23      1.0000 0.33970  0.25587  0.61856  Biso   1.000  C
  H15      1.0000 0.46310  0.25950  0.56990  Biso   1.000  H
  C24      1.0000 0.98270  0.24863  0.75404  Biso   1.000  C
  H16      1.0000 0.85440  0.24410  0.79970  Biso   1.000  H
  Li4      1.0000 0.68290  0.43440  0.98500  Biso   1.000  Li
