data_image0
_cell_length_a       10.4175
_cell_length_b       9.5922
_cell_length_c       15.2877
_cell_angle_alpha    90
_cell_angle_beta     97.479
_cell_angle_gamma    90

_symmetry_space_group_name_H-M    "P 1"
_symmetry_int_tables_number       1

loop_
  _symmetry_equiv_pos_as_xyz
  'x, y, z'

loop_
  _atom_site_label
  _atom_site_occupancy
  _atom_site_fract_x
  _atom_site_fract_y
  _atom_site_fract_z
  _atom_site_thermal_displace_type
  _atom_site_B_iso_or_equiv
  _atom_site_type_symbol
  O1       1.0000 0.33254  0.92285  0.07269  Biso   1.000  O
  O2       1.0000 0.17441  0.11756  0.98319  Biso   1.000  O
  O3       1.0000 0.53378  0.84439  0.07241  Biso   1.000  O
  O4       1.0000 0.96956  0.18233  0.94478  Biso   1.000  O
  N1       1.0000 0.38107  0.56973  0.31779  Biso   1.000  N
  C1       1.0000 0.42631  0.84473  0.09984  Biso   1.000  C
  N2       1.0000 0.20682  0.62977  0.91973  Biso   1.000  N
  C2       1.0000 0.08768  0.20573  0.95850  Biso   1.000  C
  C3       1.0000 0.13106  0.35464  0.94530  Biso   1.000  C
  C4       1.0000 0.04313  0.45330  0.90728  Biso   1.000  C
  H1       1.0000 0.95530  0.42850  0.88950  Biso   1.000  H
  C5       1.0000 0.25720  0.39708  0.97184  Biso   1.000  C
  H2       1.0000 0.31990  0.33330  0.99890  Biso   1.000  H
  C6       1.0000 0.40805  0.74445  0.17436  Biso   1.000  C
  C7       1.0000 0.49284  0.58102  0.28552  Biso   1.000  C
  H3       1.0000 0.56460  0.52860  0.31250  Biso   1.000  H
  C8       1.0000 0.51019  0.66565  0.21418  Biso   1.000  C
  H4       1.0000 0.59190  0.66920  0.19300  Biso   1.000  H
  C9       1.0000 0.08533  0.58803  0.89575  Biso   1.000  C
  H5       1.0000 0.02450  0.65430  0.86930  Biso   1.000  H
  Li1      1.0000 0.14899  0.96770  0.06624  Biso   1.000  Li
  C10      1.0000 0.28268  0.64510  0.27831  Biso   1.000  C
  H6       1.0000 0.20160  0.63820  0.30020  Biso   1.000  H
  C11      1.0000 0.29002  0.53523  0.95802  Biso   1.000  C
  H7       1.0000 0.37650  0.56390  0.97690  Biso   1.000  H
  Li2      1.0000 0.33903  0.03320  0.96390  Biso   1.000  Li
  C12      1.0000 0.29123  0.73300  0.20738  Biso   1.000  C
  H8       1.0000 0.21790  0.78450  0.18190  Biso   1.000  H
  O5       1.0000 0.16746  0.42285  0.42731  Biso   1.000  O
  O6       1.0000 0.32559  0.61756  0.51681  Biso   1.000  O
  O7       1.0000 0.96622  0.34439  0.42759  Biso   1.000  O
  O8       1.0000 0.53044  0.68233  0.55522  Biso   1.000  O
  N3       1.0000 0.11893  0.06973  0.18221  Biso   1.000  N
  C13      1.0000 0.07369  0.34473  0.40016  Biso   1.000  C
  N4       1.0000 0.29318  0.12977  0.58027  Biso   1.000  N
  C14      1.0000 0.41232  0.70573  0.54150  Biso   1.000  C
  C15      1.0000 0.36894  0.85464  0.55470  Biso   1.000  C
  C16      1.0000 0.45687  0.95330  0.59272  Biso   1.000  C
  H9       1.0000 0.54470  0.92850  0.61050  Biso   1.000  H
  C17      1.0000 0.24280  0.89708  0.52816  Biso   1.000  C
  H10      1.0000 0.18010  0.83330  0.50110  Biso   1.000  H
  C18      1.0000 0.09195  0.24445  0.32564  Biso   1.000  C
  C19      1.0000 0.00716  0.08102  0.21448  Biso   1.000  C
  H11      1.0000 0.93540  0.02860  0.18750  Biso   1.000  H
  C20      1.0000 0.98981  0.16565  0.28582  Biso   1.000  C
  H12      1.0000 0.90810  0.16920  0.30700  Biso   1.000  H
  C21      1.0000 0.41467  0.08803  0.60425  Biso   1.000  C
  H13      1.0000 0.47550  0.15430  0.63070  Biso   1.000  H
  Li3      1.0000 0.35101  0.46770  0.43376  Biso   1.000  Li
  C22      1.0000 0.21732  0.14510  0.22169  Biso   1.000  C
  H14      1.0000 0.29840  0.13820  0.19980  Biso   1.000  H
  C23      1.0000 0.20998  0.03523  0.54198  Biso   1.000  C
  H15      1.0000 0.12350  0.06390  0.52310  Biso   1.000  H
  Li4      1.0000 0.16097  0.53320  0.53610  Biso   1.000  Li
  C24      1.0000 0.20877  0.23300  0.29262  Biso   1.000  C
  H16      1.0000 0.28210  0.28450  0.31810  Biso   1.000  H
  O9       1.0000 0.66746  0.07715  0.92731  Biso   1.000  O
  O10      1.0000 0.82559  0.88244  0.01681  Biso   1.000  O
  O11      1.0000 0.46622  0.15561  0.92759  Biso   1.000  O
  O12      1.0000 0.03044  0.81767  0.05522  Biso   1.000  O
  N5       1.0000 0.61893  0.43027  0.68221  Biso   1.000  N
  C25      1.0000 0.57369  0.15527  0.90016  Biso   1.000  C
  N6       1.0000 0.79318  0.37023  0.08027  Biso   1.000  N
  C26      1.0000 0.91232  0.79427  0.04150  Biso   1.000  C
  C27      1.0000 0.86894  0.64536  0.05470  Biso   1.000  C
  C28      1.0000 0.95687  0.54670  0.09272  Biso   1.000  C
  H17      1.0000 0.04470  0.57150  0.11050  Biso   1.000  H
  C29      1.0000 0.74280  0.60292  0.02816  Biso   1.000  C
  H18      1.0000 0.68010  0.66670  0.00110  Biso   1.000  H
  C30      1.0000 0.59195  0.25555  0.82564  Biso   1.000  C
  C31      1.0000 0.50716  0.41898  0.71448  Biso   1.000  C
  H19      1.0000 0.43540  0.47140  0.68750  Biso   1.000  H
  C32      1.0000 0.48981  0.33435  0.78582  Biso   1.000  C
  H20      1.0000 0.40810  0.33080  0.80700  Biso   1.000  H
  C33      1.0000 0.91467  0.41197  0.10425  Biso   1.000  C
  H21      1.0000 0.97550  0.34570  0.13070  Biso   1.000  H
  Li5      1.0000 0.85101  0.03230  0.93376  Biso   1.000  Li
  C34      1.0000 0.71732  0.35490  0.72169  Biso   1.000  C
  H22      1.0000 0.79840  0.36180  0.69980  Biso   1.000  H
  C35      1.0000 0.70998  0.46477  0.04198  Biso   1.000  C
  H23      1.0000 0.62350  0.43610  0.02310  Biso   1.000  H
  Li6      1.0000 0.66097  0.96680  0.03610  Biso   1.000  Li
  C36      1.0000 0.70877  0.26700  0.79262  Biso   1.000  C
  H24      1.0000 0.78210  0.21550  0.81810  Biso   1.000  H
  O13      1.0000 0.83254  0.57715  0.57269  Biso   1.000  O
  O14      1.0000 0.67441  0.38244  0.48319  Biso   1.000  O
  O15      1.0000 0.03378  0.65561  0.57241  Biso   1.000  O
  O16      1.0000 0.46956  0.31767  0.44478  Biso   1.000  O
  N7       1.0000 0.88107  0.93027  0.81779  Biso   1.000  N
  C37      1.0000 0.92631  0.65527  0.59984  Biso   1.000  C
  N8       1.0000 0.70682  0.87023  0.41973  Biso   1.000  N
  C38      1.0000 0.58768  0.29427  0.45850  Biso   1.000  C
  C39      1.0000 0.63106  0.14536  0.44530  Biso   1.000  C
  C40      1.0000 0.54313  0.04670  0.40728  Biso   1.000  C
  H25      1.0000 0.45530  0.07150  0.38950  Biso   1.000  H
  C41      1.0000 0.75720  0.10292  0.47184  Biso   1.000  C
  H26      1.0000 0.81990  0.16670  0.49890  Biso   1.000  H
  C42      1.0000 0.90805  0.75555  0.67436  Biso   1.000  C
  C43      1.0000 0.99284  0.91898  0.78552  Biso   1.000  C
  H27      1.0000 0.06460  0.97140  0.81250  Biso   1.000  H
  C44      1.0000 0.01019  0.83435  0.71418  Biso   1.000  C
  H28      1.0000 0.09190  0.83080  0.69300  Biso   1.000  H
  C45      1.0000 0.58533  0.91197  0.39575  Biso   1.000  C
  H29      1.0000 0.52450  0.84570  0.36930  Biso   1.000  H
  Li7      1.0000 0.64899  0.53230  0.56624  Biso   1.000  Li
  C46      1.0000 0.78268  0.85490  0.77831  Biso   1.000  C
  H30      1.0000 0.70160  0.86180  0.80020  Biso   1.000  H
  C47      1.0000 0.79002  0.96477  0.45802  Biso   1.000  C
  H31      1.0000 0.87650  0.93610  0.47690  Biso   1.000  H
  Li8      1.0000 0.83903  0.46680  0.46390  Biso   1.000  Li
  C48      1.0000 0.79123  0.76700  0.70738  Biso   1.000  C
  H32      1.0000 0.71790  0.71550  0.68190  Biso   1.000  H
