data_image0
_cell_length_a       5.2038
_cell_length_b       14.516
_cell_length_c       10.295
_cell_angle_alpha    90
_cell_angle_beta     96.14
_cell_angle_gamma    90

_symmetry_space_group_name_H-M    "P 1"
_symmetry_int_tables_number       1

loop_
  _symmetry_equiv_pos_as_xyz
  'x, y, z'

loop_
  _atom_site_label
  _atom_site_occupancy
  _atom_site_fract_x
  _atom_site_fract_y
  _atom_site_fract_z
  _atom_site_thermal_displace_type
  _atom_site_B_iso_or_equiv
  _atom_site_type_symbol
  O1       1.0000 0.38700  0.04630  0.59410  Biso   1.000  O
  O2       1.0000 0.00400  0.11530  0.58390  Biso   1.000  O
  N1       1.0000 0.56400  0.32800  0.87090  Biso   1.000  N
  C1       1.0000 0.67900  0.24760  0.86950  Biso   1.000  C
  H1       1.0000 0.83370  0.23770  0.92570  Biso   1.000  H
  C2       1.0000 0.34100  0.18800  0.70860  Biso   1.000  C
  C3       1.0000 0.22500  0.11130  0.62440  Biso   1.000  C
  C4       1.0000 0.23100  0.27010  0.71010  Biso   1.000  C
  H2       1.0000 0.07990  0.28140  0.65180  Biso   1.000  H
  C5       1.0000 0.57900  0.17560  0.78680  Biso   1.000  C
  H3       1.0000 0.67120  0.11930  0.78360  Biso   1.000  H
  C6       1.0000 0.32700  0.34150  0.79440  Biso   1.000  C
  H4       1.0000 0.23420  0.39750  0.79940  Biso   1.000  H
  Li1      1.0000 0.68500  0.43430  0.99800  Biso   1.000  Li
  O3       1.0000 0.61300  0.54630  0.90590  Biso   1.000  O
  O4       1.0000 0.99600  0.61530  0.91610  Biso   1.000  O
  N2       1.0000 0.43600  0.82800  0.62910  Biso   1.000  N
  C7       1.0000 0.32100  0.74760  0.63050  Biso   1.000  C
  H5       1.0000 0.16630  0.73770  0.57430  Biso   1.000  H
  C8       1.0000 0.65900  0.68800  0.79140  Biso   1.000  C
  C9       1.0000 0.77500  0.61130  0.87560  Biso   1.000  C
  C10      1.0000 0.76900  0.77010  0.78990  Biso   1.000  C
  H6       1.0000 0.92010  0.78140  0.84820  Biso   1.000  H
  C11      1.0000 0.42100  0.67560  0.71320  Biso   1.000  C
  H7       1.0000 0.32880  0.61930  0.71640  Biso   1.000  H
  C12      1.0000 0.67300  0.84150  0.70560  Biso   1.000  C
  H8       1.0000 0.76580  0.89750  0.70060  Biso   1.000  H
  Li2      1.0000 0.31500  0.93430  0.50200  Biso   1.000  Li
  O5       1.0000 0.61300  0.95370  0.40590  Biso   1.000  O
  O6       1.0000 0.99600  0.88470  0.41610  Biso   1.000  O
  N3       1.0000 0.43600  0.67200  0.12910  Biso   1.000  N
  C13      1.0000 0.32100  0.75240  0.13050  Biso   1.000  C
  H9       1.0000 0.16630  0.76230  0.07430  Biso   1.000  H
  C14      1.0000 0.65900  0.81200  0.29140  Biso   1.000  C
  C15      1.0000 0.77500  0.88870  0.37560  Biso   1.000  C
  C16      1.0000 0.76900  0.72990  0.28990  Biso   1.000  C
  H10      1.0000 0.92010  0.71860  0.34820  Biso   1.000  H
  C17      1.0000 0.42100  0.82440  0.21320  Biso   1.000  C
  H11      1.0000 0.32880  0.88070  0.21640  Biso   1.000  H
  C18      1.0000 0.67300  0.65850  0.20560  Biso   1.000  C
  H12      1.0000 0.76580  0.60250  0.20060  Biso   1.000  H
  Li3      1.0000 0.31500  0.56570  0.00200  Biso   1.000  Li
  O7       1.0000 0.38700  0.45370  0.09410  Biso   1.000  O
  O8       1.0000 0.00400  0.38470  0.08390  Biso   1.000  O
  N4       1.0000 0.56400  0.17200  0.37090  Biso   1.000  N
  C19      1.0000 0.67900  0.25240  0.36950  Biso   1.000  C
  H13      1.0000 0.83370  0.26230  0.42570  Biso   1.000  H
  C20      1.0000 0.34100  0.31200  0.20860  Biso   1.000  C
  C21      1.0000 0.22500  0.38870  0.12440  Biso   1.000  C
  C22      1.0000 0.23100  0.22990  0.21010  Biso   1.000  C
  H14      1.0000 0.07990  0.21860  0.15180  Biso   1.000  H
  C23      1.0000 0.57900  0.32440  0.28680  Biso   1.000  C
  H15      1.0000 0.67120  0.38070  0.28360  Biso   1.000  H
  C24      1.0000 0.32700  0.15850  0.29440  Biso   1.000  C
  H16      1.0000 0.23420  0.10250  0.29940  Biso   1.000  H
  Li4      1.0000 0.68500  0.06570  0.49800  Biso   1.000  Li
