data_XUPCAM_clean
_audit_creation_date              2014-07-02
_audit_creation_method            'Materials Studio'
_symmetry_space_group_name_H-M    'P1'
_symmetry_Int_Tables_number       1
_symmetry_cell_setting            triclinic
loop_
_symmetry_equiv_pos_as_xyz
  x,y,z
_cell_length_a                    7.6118
_cell_length_b                    9.8253
_cell_length_c                    14.7480
_cell_angle_alpha                 90.0000
_cell_angle_beta                  98.1400
_cell_angle_gamma                 90.0000
loop_
_atom_site_label
_atom_site_type_symbol
_atom_site_fract_x
_atom_site_fract_y
_atom_site_fract_z
_atom_site_U_iso_or_equiv
_atom_site_adp_type
_atom_site_occupancy
Tb1    Tb    0.60121   0.76217   0.88922   0.01267  Uiso   1.00
Tb2    Tb    0.10127   0.17132   0.38929   0.01267  Uiso   1.00
Tb3    Tb    0.39879   0.26217   0.11078   0.01267  Uiso   1.00
Tb4    Tb    0.89873   0.67132   0.61071   0.01267  Uiso   1.00
H1     H     0.65300   0.53460   0.26510   0.01267  Uiso   1.00
H2     H     0.45080   0.82900   0.38950   0.01267  Uiso   1.00
H3     H     0.41390   0.82280   0.10790   0.01267  Uiso   1.00
H4     H     0.94560   0.09090   0.62180   0.01267  Uiso   1.00
H5     H     0.95240   0.10500   0.88510   0.01267  Uiso   1.00
H6     H     0.10650   0.42670   0.76490   0.01267  Uiso   1.00
H7     H     0.34700   0.03460   0.73490   0.01267  Uiso   1.00
H8     H     0.54920   0.32900   0.61050   0.01267  Uiso   1.00
H9     H     0.58610   0.32280   0.89210   0.01267  Uiso   1.00
H10    H     0.05440   0.59090   0.37820   0.01267  Uiso   1.00
H11    H     0.04760   0.60500   0.11490   0.01267  Uiso   1.00
H12    H     0.89350   0.92670   0.23510   0.01267  Uiso   1.00
C1     C     0.55210   0.58140   0.08970   0.01267  Uiso   1.00
C2     C     0.51500   0.65710   0.17340   0.01267  Uiso   1.00
C3     C     0.57890   0.61030   0.26130   0.01267  Uiso   1.00
C4     C     0.47280   0.78850   0.33520   0.01267  Uiso   1.00
C5     C     0.43290   0.85450   0.25120   0.01267  Uiso   1.00
C6     C     0.44840   0.78280   0.16480   0.01267  Uiso   1.00
C7     C     0.35280   0.98600   0.24650   0.01267  Uiso   1.00
C8     C     0.06270   0.35150   0.59550   0.01267  Uiso   1.00
C9     C     0.04320   0.27170   0.67770   0.01267  Uiso   1.00
C10    C     0.96360   0.13940   0.67650   0.01267  Uiso   1.00
C11    C     0.91470   0.08410   0.75130   0.01267  Uiso   1.00
C12    C     0.97660   0.14840   0.83230   0.01267  Uiso   1.00
C13    C     0.07630   0.33490   0.76210   0.01267  Uiso   1.00
C14    C     0.82870   0.94200   0.75230   0.01267  Uiso   1.00
C15    C     0.28380   0.75060   0.70990   0.01267  Uiso   1.00
C16    C     0.20170   0.68660   0.78870   0.01267  Uiso   1.00
C17    C     0.44790   0.08140   0.91030   0.01267  Uiso   1.00
C18    C     0.48500   0.15710   0.82660   0.01267  Uiso   1.00
C19    C     0.42110   0.11030   0.73870   0.01267  Uiso   1.00
C20    C     0.52720   0.28850   0.66480   0.01267  Uiso   1.00
C21    C     0.56710   0.35450   0.74880   0.01267  Uiso   1.00
C22    C     0.55160   0.28280   0.83520   0.01267  Uiso   1.00
C23    C     0.64720   0.48600   0.75350   0.01267  Uiso   1.00
C24    C     0.93730   0.85150   0.40450   0.01267  Uiso   1.00
C25    C     0.95680   0.77170   0.32230   0.01267  Uiso   1.00
C26    C     0.03640   0.63940   0.32350   0.01267  Uiso   1.00
C27    C     0.08530   0.58410   0.24870   0.01267  Uiso   1.00
C28    C     0.02340   0.64840   0.16770   0.01267  Uiso   1.00
C29    C     0.92370   0.83490   0.23790   0.01267  Uiso   1.00
C30    C     0.17130   0.44200   0.24770   0.01267  Uiso   1.00
C31    C     0.71620   0.25060   0.29010   0.01267  Uiso   1.00
C32    C     0.79830   0.18660   0.21130   0.01267  Uiso   1.00
N1     N     0.54750   0.65860   0.33430   0.01267  Uiso   1.00
N2     N     0.06520   0.26260   0.84500   0.01267  Uiso   1.00
N3     N     0.45250   0.15860   0.66570   0.01267  Uiso   1.00
N4     N     0.93480   0.76260   0.15500   0.01267  Uiso   1.00
O1     O     0.55750   0.63030   0.01890   0.01267  Uiso   1.00
O2     O     0.58390   0.45540   0.10260   0.01267  Uiso   1.00
O3     O     0.26760   0.01870   0.31450   0.01267  Uiso   1.00
O4     O     0.34390   0.05750   0.17580   0.01267  Uiso   1.00
O5     O     0.05330   0.28340   0.51850   0.01267  Uiso   1.00
O6     O     0.08070   0.48220   0.60240   0.01267  Uiso   1.00
O7     O     0.77530   0.90350   0.82030   0.01267  Uiso   1.00
O8     O     0.84200   0.87150   0.68190   0.01267  Uiso   1.00
O9     O     0.45620   0.77790   0.72980   0.01267  Uiso   1.00
O10    O     0.30510   0.67430   0.86480   0.01267  Uiso   1.00
O11    O     0.19820   0.76770   0.63590   0.01267  Uiso   1.00
O12    O     0.04810   0.65260   0.77120   0.01267  Uiso   1.00
O13    O     0.44250   0.13030   0.98110   0.01267  Uiso   1.00
O14    O     0.41610   0.95540   0.89740   0.01267  Uiso   1.00
O15    O     0.73240   0.51870   0.68550   0.01267  Uiso   1.00
O16    O     0.65610   0.55750   0.82420   0.01267  Uiso   1.00
O17    O     0.94670   0.78340   0.48150   0.01267  Uiso   1.00
O18    O     0.91930   0.98220   0.39760   0.01267  Uiso   1.00
O19    O     0.22470   0.40350   0.17970   0.01267  Uiso   1.00
O20    O     0.15800   0.37150   0.31810   0.01267  Uiso   1.00
O21    O     0.54380   0.27790   0.27020   0.01267  Uiso   1.00
O22    O     0.69490   0.17430   0.13520   0.01267  Uiso   1.00
O23    O     0.80180   0.26770   0.36410   0.01267  Uiso   1.00
O24    O     0.95190   0.15260   0.22880   0.01267  Uiso   1.00
