data_image0
_cell_length_a       14.7955
_cell_length_b       14.7955
_cell_length_c       11.7785
_cell_angle_alpha    90
_cell_angle_beta     90
_cell_angle_gamma    90

_symmetry_space_group_name_H-M    "P 1"
_symmetry_int_tables_number       1

loop_
  _symmetry_equiv_pos_as_xyz
  'x, y, z'

loop_
  _atom_site_label
  _atom_site_occupancy
  _atom_site_fract_x
  _atom_site_fract_y
  _atom_site_fract_z
  _atom_site_thermal_displace_type
  _atom_site_B_iso_or_equiv
  _atom_site_type_symbol
  O1       1.0000 0.62129  0.38032  0.60089  Biso   1.000  O
  O2       1.0000 0.60389  0.28756  0.74260  Biso   1.000  O
  C1       1.0000 0.59271  0.36141  0.69627  Biso   1.000  C
  C2       1.0000 0.54277  0.43043  0.75788  Biso   1.000  C
  C3       1.0000 0.54277  0.43043  0.87633  Biso   1.000  C
  H1       1.0000 0.57401  0.37962  0.91959  Biso   1.000  H
  O3       1.0000 0.12129  0.88032  0.10089  Biso   1.000  O
  O4       1.0000 0.10389  0.78756  0.24260  Biso   1.000  O
  C4       1.0000 0.09271  0.86141  0.19627  Biso   1.000  C
  C5       1.0000 0.04277  0.93043  0.25788  Biso   1.000  C
  C6       1.0000 0.04277  0.93043  0.37633  Biso   1.000  C
  H2       1.0000 0.07401  0.87962  0.41959  Biso   1.000  H
  O5       1.0000 0.87871  0.11968  0.10089  Biso   1.000  O
  O6       1.0000 0.89611  0.21244  0.24260  Biso   1.000  O
  C7       1.0000 0.90729  0.13859  0.19627  Biso   1.000  C
  C8       1.0000 0.95723  0.06957  0.25788  Biso   1.000  C
  C9       1.0000 0.95723  0.06957  0.37633  Biso   1.000  C
  H3       1.0000 0.92599  0.12038  0.41959  Biso   1.000  H
  O7       1.0000 0.37871  0.61968  0.60089  Biso   1.000  O
  O8       1.0000 0.39611  0.71244  0.74260  Biso   1.000  O
  C10      1.0000 0.40729  0.63859  0.69627  Biso   1.000  C
  C11      1.0000 0.45723  0.56957  0.75788  Biso   1.000  C
  C12      1.0000 0.45723  0.56957  0.87633  Biso   1.000  C
  H4       1.0000 0.42599  0.62038  0.91959  Biso   1.000  H
  O9       1.0000 0.61968  0.12129  0.85089  Biso   1.000  O
  O10      1.0000 0.71244  0.10389  0.99260  Biso   1.000  O
  C13      1.0000 0.63859  0.09271  0.94627  Biso   1.000  C
  C14      1.0000 0.56957  0.04277  0.00788  Biso   1.000  C
  C15      1.0000 0.56957  0.04277  0.12633  Biso   1.000  C
  H5       1.0000 0.62038  0.07401  0.16959  Biso   1.000  H
  O11      1.0000 0.11968  0.62129  0.35089  Biso   1.000  O
  O12      1.0000 0.21244  0.60389  0.49260  Biso   1.000  O
  C16      1.0000 0.13859  0.59271  0.44627  Biso   1.000  C
  C17      1.0000 0.06957  0.54277  0.50788  Biso   1.000  C
  C18      1.0000 0.06957  0.54277  0.62633  Biso   1.000  C
  H6       1.0000 0.12038  0.57401  0.66959  Biso   1.000  H
  O13      1.0000 0.88032  0.37871  0.35089  Biso   1.000  O
  O14      1.0000 0.78756  0.39611  0.49260  Biso   1.000  O
  C19      1.0000 0.86141  0.40729  0.44627  Biso   1.000  C
  C20      1.0000 0.93043  0.45723  0.50788  Biso   1.000  C
  C21      1.0000 0.93043  0.45723  0.62633  Biso   1.000  C
  H7       1.0000 0.87962  0.42599  0.66959  Biso   1.000  H
  O15      1.0000 0.38032  0.87871  0.85089  Biso   1.000  O
  O16      1.0000 0.28756  0.89611  0.99260  Biso   1.000  O
  C22      1.0000 0.36141  0.90729  0.94627  Biso   1.000  C
  C23      1.0000 0.43043  0.95723  0.00788  Biso   1.000  C
  C24      1.0000 0.43043  0.95723  0.12633  Biso   1.000  C
  H8       1.0000 0.37962  0.92599  0.16959  Biso   1.000  H
  O17      1.0000 0.87871  0.38032  0.14911  Biso   1.000  O
  O18      1.0000 0.89611  0.28756  0.00740  Biso   1.000  O
  C25      1.0000 0.90729  0.36141  0.05373  Biso   1.000  C
  C26      1.0000 0.95723  0.43043  0.99212  Biso   1.000  C
  C27      1.0000 0.95723  0.43043  0.87367  Biso   1.000  C
  H9       1.0000 0.92599  0.37962  0.83041  Biso   1.000  H
  O19      1.0000 0.37871  0.88032  0.64911  Biso   1.000  O
  O20      1.0000 0.39611  0.78756  0.50740  Biso   1.000  O
  C28      1.0000 0.40729  0.86141  0.55373  Biso   1.000  C
  C29      1.0000 0.45723  0.93043  0.49212  Biso   1.000  C
  C30      1.0000 0.45723  0.93043  0.37367  Biso   1.000  C
  H10      1.0000 0.42599  0.87962  0.33041  Biso   1.000  H
  O21      1.0000 0.62129  0.11968  0.64911  Biso   1.000  O
  O22      1.0000 0.60389  0.21244  0.50740  Biso   1.000  O
  C31      1.0000 0.59271  0.13859  0.55373  Biso   1.000  C
  C32      1.0000 0.54277  0.06957  0.49212  Biso   1.000  C
  C33      1.0000 0.54277  0.06957  0.37367  Biso   1.000  C
  H11      1.0000 0.57401  0.12038  0.33041  Biso   1.000  H
  O23      1.0000 0.12129  0.61968  0.14911  Biso   1.000  O
  O24      1.0000 0.10389  0.71244  0.00740  Biso   1.000  O
  C34      1.0000 0.09271  0.63859  0.05373  Biso   1.000  C
  C35      1.0000 0.04277  0.56957  0.99212  Biso   1.000  C
  C36      1.0000 0.04277  0.56957  0.87367  Biso   1.000  C
  H12      1.0000 0.07401  0.62038  0.83041  Biso   1.000  H
  O25      1.0000 0.88032  0.12129  0.89911  Biso   1.000  O
  O26      1.0000 0.78756  0.10389  0.75740  Biso   1.000  O
  C37      1.0000 0.86141  0.09271  0.80373  Biso   1.000  C
  C38      1.0000 0.93043  0.04277  0.74212  Biso   1.000  C
  C39      1.0000 0.93043  0.04277  0.62367  Biso   1.000  C
  H13      1.0000 0.87962  0.07401  0.58041  Biso   1.000  H
  O27      1.0000 0.38032  0.62129  0.39911  Biso   1.000  O
  O28      1.0000 0.28756  0.60389  0.25740  Biso   1.000  O
  C40      1.0000 0.36141  0.59271  0.30373  Biso   1.000  C
  C41      1.0000 0.43043  0.54277  0.24212  Biso   1.000  C
  C42      1.0000 0.43043  0.54277  0.12367  Biso   1.000  C
  H14      1.0000 0.37962  0.57401  0.08041  Biso   1.000  H
  O29      1.0000 0.61968  0.37871  0.39911  Biso   1.000  O
  O30      1.0000 0.71244  0.39611  0.25740  Biso   1.000  O
  C43      1.0000 0.63859  0.40729  0.30373  Biso   1.000  C
  C44      1.0000 0.56957  0.45723  0.24212  Biso   1.000  C
  C45      1.0000 0.56957  0.45723  0.12367  Biso   1.000  C
  H15      1.0000 0.62038  0.42599  0.08041  Biso   1.000  H
  O31      1.0000 0.11968  0.87871  0.89911  Biso   1.000  O
  O32      1.0000 0.21244  0.89611  0.75740  Biso   1.000  O
  C46      1.0000 0.13859  0.90729  0.80373  Biso   1.000  C
  C47      1.0000 0.06957  0.95723  0.74212  Biso   1.000  C
  C48      1.0000 0.06957  0.95723  0.62367  Biso   1.000  C
  H16      1.0000 0.12038  0.92599  0.58041  Biso   1.000  H
  Al1      1.0000 0.69236  0.30764  0.50000  Biso   1.000  Al
  Al2      1.0000 0.19236  0.80764  0.00000  Biso   1.000  Al
  Al3      1.0000 0.80764  0.19236  0.00000  Biso   1.000  Al
  Al4      1.0000 0.30764  0.69236  0.50000  Biso   1.000  Al
  Al5      1.0000 0.69236  0.19236  0.75000  Biso   1.000  Al
  Al6      1.0000 0.19236  0.69236  0.25000  Biso   1.000  Al
  Al7      1.0000 0.80764  0.30764  0.25000  Biso   1.000  Al
  Al8      1.0000 0.30764  0.80764  0.75000  Biso   1.000  Al
  O33      1.0000 0.75199  0.25000  0.62500  Biso   1.000  O
  H17      1.0000 0.81282  0.25000  0.62500  Biso   1.000  H
  O34      1.0000 0.25199  0.75000  0.12500  Biso   1.000  O
  H18      1.0000 0.31282  0.75000  0.12500  Biso   1.000  H
  O35      1.0000 0.74801  0.25000  0.12500  Biso   1.000  O
  H19      1.0000 0.68718  0.25000  0.12500  Biso   1.000  H
  O36      1.0000 0.24801  0.75000  0.62500  Biso   1.000  O
  H20      1.0000 0.18718  0.75000  0.62500  Biso   1.000  H
  O37      1.0000 0.75000  0.25199  0.87500  Biso   1.000  O
  H21      1.0000 0.75000  0.31282  0.87500  Biso   1.000  H
  O38      1.0000 0.25000  0.75199  0.37500  Biso   1.000  O
  H22      1.0000 0.25000  0.81282  0.37500  Biso   1.000  H
  O39      1.0000 0.75000  0.24801  0.37500  Biso   1.000  O
  H23      1.0000 0.75000  0.18718  0.37500  Biso   1.000  H
  O40      1.0000 0.25000  0.74801  0.87500  Biso   1.000  O
  H24      1.0000 0.25000  0.68718  0.87500  Biso   1.000  H
  C49      1.0000 0.50000  0.50000  0.69866  Biso   1.000  C
  C50      1.0000 0.50000  0.50000  0.93556  Biso   1.000  C
  H25      1.0000 0.50000  0.50000  0.61214  Biso   1.000  H
  C51      1.0000 0.00000  0.00000  0.19866  Biso   1.000  C
  C52      1.0000 0.00000  0.00000  0.43556  Biso   1.000  C
  H26      1.0000 0.00000  0.00000  0.11214  Biso   1.000  H
  C53      1.0000 0.50000  0.00000  0.94866  Biso   1.000  C
  C54      1.0000 0.50000  0.00000  0.18556  Biso   1.000  C
  H27      1.0000 0.50000  0.00000  0.86214  Biso   1.000  H
  C55      1.0000 0.00000  0.50000  0.44866  Biso   1.000  C
  C56      1.0000 0.00000  0.50000  0.68556  Biso   1.000  C
  H28      1.0000 0.00000  0.50000  0.36214  Biso   1.000  H
  C57      1.0000 0.00000  0.50000  0.05134  Biso   1.000  C
  C58      1.0000 0.00000  0.50000  0.81444  Biso   1.000  C
  H29      1.0000 0.00000  0.50000  0.13786  Biso   1.000  H
  C59      1.0000 0.50000  0.00000  0.55134  Biso   1.000  C
  C60      1.0000 0.50000  0.00000  0.31444  Biso   1.000  C
  H30      1.0000 0.50000  0.00000  0.63786  Biso   1.000  H
  C61      1.0000 0.00000  0.00000  0.80134  Biso   1.000  C
  C62      1.0000 0.00000  0.00000  0.56444  Biso   1.000  C
  H31      1.0000 0.00000  0.00000  0.88786  Biso   1.000  H
  C63      1.0000 0.50000  0.50000  0.30134  Biso   1.000  C
  C64      1.0000 0.50000  0.50000  0.06444  Biso   1.000  C
  H32      1.0000 0.50000  0.50000  0.38786  Biso   1.000  H
