data_image0
_cell_length_a       15.438
_cell_length_b       14.691
_cell_length_c       33.046
_cell_angle_alpha    90
_cell_angle_beta     94.832
_cell_angle_gamma    90

_symmetry_space_group_name_H-M    "P 1"
_symmetry_int_tables_number       1

loop_
  _symmetry_equiv_pos_as_xyz
  'x, y, z'

loop_
  _atom_site_label
  _atom_site_occupancy
  _atom_site_fract_x
  _atom_site_fract_y
  _atom_site_fract_z
  _atom_site_thermal_displace_type
  _atom_site_B_iso_or_equiv
  _atom_site_type_symbol
  W1       1.0000 0.53205  0.24471  0.37165  Biso   1.000  W
  C1       1.0000 0.44650  0.16210  0.40550  Biso   1.000  C
  C2       1.0000 0.48640  0.33900  0.41470  Biso   1.000  C
  C3       1.0000 0.64210  0.21200  0.33780  Biso   1.000  C
  C4       1.0000 0.49540  0.13810  0.32810  Biso   1.000  C
  C5       1.0000 0.53660  0.35150  0.32630  Biso   1.000  C
  C6       1.0000 0.39920  0.27040  0.34900  Biso   1.000  C
  C7       1.0000 0.63780  0.33190  0.39520  Biso   1.000  C
  C8       1.0000 0.60610  0.15260  0.41100  Biso   1.000  C
  N1       1.0000 0.40120  0.12000  0.42360  Biso   1.000  N
  N2       1.0000 0.46260  0.39000  0.43710  Biso   1.000  N
  N3       1.0000 0.70080  0.19350  0.32110  Biso   1.000  N
  N4       1.0000 0.47490  0.08750  0.30420  Biso   1.000  N
  N5       1.0000 0.54170  0.40640  0.30280  Biso   1.000  N
  N6       1.0000 0.32800  0.27920  0.33620  Biso   1.000  N
  N7       1.0000 0.69410  0.37850  0.40650  Biso   1.000  N
  N8       1.0000 0.64420  0.10030  0.43210  Biso   1.000  N
  Mn1      1.0000 0.81934  0.12308  0.30210  Biso   1.000  Mn
  Mn2      1.0000 0.45466  0.00389  0.24836  Biso   1.000  Mn
  Mn3      1.0000 0.19157  0.29085  0.31456  Biso   1.000  Mn
  Mn4      1.0000 0.80493  0.47448  0.41207  Biso   1.000  Mn
  Mn5      1.0000 0.71551  0.00290  0.47427  Biso   1.000  Mn
  N9       1.0000 0.93450  0.04610  0.28490  Biso   1.000  N
  N10      1.0000 0.89610  0.17140  0.35670  Biso   1.000  N
  N11      1.0000 0.76470  0.00320  0.32890  Biso   1.000  N
  N12      1.0000 0.84050  0.24590  0.26610  Biso   1.000  N
  N13      1.0000 0.53710  0.90130  0.28490  Biso   1.000  N
  N14      1.0000 0.32050  0.95720  0.26050  Biso   1.000  N
  N15      1.0000 0.38690  0.12040  0.21550  Biso   1.000  N
  N16      1.0000 0.88840  0.36180  0.43700  Biso   1.000  N
  N17      1.0000 0.83200  0.44380  0.34820  Biso   1.000  N
  N18      1.0000 0.74680  0.60400  0.38950  Biso   1.000  N
  N19      1.0000 0.83560  0.07550  0.46060  Biso   1.000  N
  N20      1.0000 0.70880  0.89560  0.42740  Biso   1.000  N
  N21      1.0000 0.80370  0.91340  0.51450  Biso   1.000  N
  C9       1.0000 0.99310  0.01680  0.27190  Biso   1.000  C
  C10      1.0000 0.93810  0.17790  0.38660  Biso   1.000  C
  C11      1.0000 0.73950  0.93190  0.33280  Biso   1.000  C
  C12      1.0000 0.59200  0.86280  0.30380  Biso   1.000  C
  C13      1.0000 0.93390  0.29880  0.44150  Biso   1.000  C
  C14      1.0000 0.89870  0.11320  0.45530  Biso   1.000  C
  C15      1.0000 0.70220  0.85700  0.39820  Biso   1.000  C
  W2       1.0000 0.10640  0.96116  0.24474  Biso   1.000  W
  W3       1.0000 0.01706  0.18195  0.44396  Biso   1.000  W
  W4       1.0000 0.69636  0.79275  0.33880  Biso   1.000  W
  C16      1.0000 0.05110  0.06710  0.20560  Biso   1.000  C
  C17      1.0000 0.14360  0.82020  0.23820  Biso   1.000  C
  C18      1.0000 0.24530  0.95640  0.25530  Biso   1.000  C
  C19      1.0000 0.99530  0.88780  0.21800  Biso   1.000  C
  C20      1.0000 0.14970  0.08300  0.27720  Biso   1.000  C
  C21      1.0000 0.10120  0.89890  0.30380  Biso   1.000  C
  C22      1.0000 0.15040  0.94770  0.18360  Biso   1.000  C
  C23      1.0000 0.09570  0.29390  0.46810  Biso   1.000  C
  C24      1.0000 0.10090  0.22040  0.39750  Biso   1.000  C
  C25      1.0000 0.03010  0.04700  0.41900  Biso   1.000  C
  C26      1.0000 0.99820  0.18820  0.50830  Biso   1.000  C
  C27      1.0000 0.13420  0.11940  0.47170  Biso   1.000  C
  C28      1.0000 0.57720  0.75680  0.36590  Biso   1.000  C
  C29      1.0000 0.64320  0.68040  0.30200  Biso   1.000  C
  C30      1.0000 0.74880  0.80310  0.28020  Biso   1.000  C
  C31      1.0000 0.83540  0.79810  0.35540  Biso   1.000  C
  C32      1.0000 0.73070  0.66890  0.37220  Biso   1.000  C
  N22      1.0000 0.01580  0.11970  0.18440  Biso   1.000  N
  N23      1.0000 0.93730  0.84680  0.20500  Biso   1.000  N
  N24      1.0000 0.17090  0.14630  0.29430  Biso   1.000  N
  N25      1.0000 0.09020  0.86340  0.33370  Biso   1.000  N
  N26      1.0000 0.13600  0.35260  0.48170  Biso   1.000  N
  N27      1.0000 0.14380  0.24460  0.37350  Biso   1.000  N
  N28      1.0000 0.03240  0.97600  0.40650  Biso   1.000  N
  N29      1.0000 0.98850  0.19070  0.54180  Biso   1.000  N
  N30      1.0000 0.51540  0.73830  0.38060  Biso   1.000  N
  N31      1.0000 0.77190  0.81190  0.24870  Biso   1.000  N
  N32      1.0000 0.90730  0.80450  0.36710  Biso   1.000  N
  Mn6      1.0000 0.04219  0.82960  0.39408  Biso   1.000  Mn
  W5       1.0000 0.46795  0.74471  0.12835  Biso   1.000  W
  C33      1.0000 0.55350  0.66210  0.09450  Biso   1.000  C
  C34      1.0000 0.51360  0.83900  0.08530  Biso   1.000  C
  C35      1.0000 0.35790  0.71200  0.16220  Biso   1.000  C
  C36      1.0000 0.50460  0.63810  0.17190  Biso   1.000  C
  C37      1.0000 0.46340  0.85150  0.17370  Biso   1.000  C
  C38      1.0000 0.60080  0.77040  0.15100  Biso   1.000  C
  C39      1.0000 0.36220  0.83190  0.10480  Biso   1.000  C
  C40      1.0000 0.39390  0.65260  0.08900  Biso   1.000  C
  N33      1.0000 0.59880  0.62000  0.07640  Biso   1.000  N
  N34      1.0000 0.53740  0.89000  0.06290  Biso   1.000  N
  N35      1.0000 0.29920  0.69350  0.17890  Biso   1.000  N
  N36      1.0000 0.52510  0.58750  0.19580  Biso   1.000  N
  N37      1.0000 0.45830  0.90640  0.19720  Biso   1.000  N
  N38      1.0000 0.67200  0.77920  0.16380  Biso   1.000  N
  N39      1.0000 0.30590  0.87850  0.09350  Biso   1.000  N
  N40      1.0000 0.35580  0.60030  0.06790  Biso   1.000  N
  Mn7      1.0000 0.18066  0.62308  0.19790  Biso   1.000  Mn
  Mn8      1.0000 0.54534  0.50389  0.25164  Biso   1.000  Mn
  Mn9      1.0000 0.80843  0.79085  0.18544  Biso   1.000  Mn
  Mn10     1.0000 0.19507  0.97448  0.08793  Biso   1.000  Mn
  Mn11     1.0000 0.28449  0.50290  0.02573  Biso   1.000  Mn
  N41      1.0000 0.06550  0.54610  0.21510  Biso   1.000  N
  N42      1.0000 0.10390  0.67140  0.14330  Biso   1.000  N
  N43      1.0000 0.23530  0.50320  0.17110  Biso   1.000  N
  N44      1.0000 0.15950  0.74590  0.23390  Biso   1.000  N
  N45      1.0000 0.46290  0.40130  0.21510  Biso   1.000  N
  N46      1.0000 0.67950  0.45720  0.23950  Biso   1.000  N
  N47      1.0000 0.61310  0.62040  0.28450  Biso   1.000  N
  N48      1.0000 0.11160  0.86180  0.06300  Biso   1.000  N
  N49      1.0000 0.16800  0.94380  0.15180  Biso   1.000  N
  N50      1.0000 0.25320  0.10400  0.11050  Biso   1.000  N
  N51      1.0000 0.16440  0.57550  0.03940  Biso   1.000  N
  N52      1.0000 0.29120  0.39560  0.07260  Biso   1.000  N
  N53      1.0000 0.19630  0.41340  0.98550  Biso   1.000  N
  C41      1.0000 0.00690  0.51680  0.22810  Biso   1.000  C
  C42      1.0000 0.06190  0.67790  0.11340  Biso   1.000  C
  C43      1.0000 0.26050  0.43190  0.16720  Biso   1.000  C
  C44      1.0000 0.40800  0.36280  0.19620  Biso   1.000  C
  C45      1.0000 0.06610  0.79880  0.05850  Biso   1.000  C
  C46      1.0000 0.10130  0.61320  0.04470  Biso   1.000  C
  C47      1.0000 0.29780  0.35700  0.10180  Biso   1.000  C
  W6       1.0000 0.89360  0.46116  0.25526  Biso   1.000  W
  W7       1.0000 0.98294  0.68195  0.05604  Biso   1.000  W
  W8       1.0000 0.30364  0.29275  0.16120  Biso   1.000  W
  C48      1.0000 0.94890  0.56710  0.29440  Biso   1.000  C
  C49      1.0000 0.85640  0.32020  0.26180  Biso   1.000  C
  C50      1.0000 0.75470  0.45640  0.24470  Biso   1.000  C
  C51      1.0000 0.00470  0.38780  0.28200  Biso   1.000  C
  C52      1.0000 0.85030  0.58300  0.22280  Biso   1.000  C
  C53      1.0000 0.89880  0.39890  0.19620  Biso   1.000  C
  C54      1.0000 0.84960  0.44770  0.31640  Biso   1.000  C
  C55      1.0000 0.90430  0.79390  0.03190  Biso   1.000  C
  C56      1.0000 0.89910  0.72040  0.10250  Biso   1.000  C
  C57      1.0000 0.96990  0.54700  0.08100  Biso   1.000  C
  C58      1.0000 0.00180  0.68820  0.99170  Biso   1.000  C
  C59      1.0000 0.86580  0.61940  0.02830  Biso   1.000  C
  C60      1.0000 0.42280  0.25680  0.13410  Biso   1.000  C
  C61      1.0000 0.35680  0.18040  0.19800  Biso   1.000  C
  C62      1.0000 0.25120  0.30310  0.21980  Biso   1.000  C
  C63      1.0000 0.16460  0.29810  0.14460  Biso   1.000  C
  C64      1.0000 0.26930  0.16890  0.12780  Biso   1.000  C
  N54      1.0000 0.98420  0.61970  0.31560  Biso   1.000  N
  N55      1.0000 0.06270  0.34680  0.29500  Biso   1.000  N
  N56      1.0000 0.82910  0.64630  0.20570  Biso   1.000  N
  N57      1.0000 0.90980  0.36340  0.16630  Biso   1.000  N
  N58      1.0000 0.86400  0.85260  0.01830  Biso   1.000  N
  N59      1.0000 0.85620  0.74460  0.12650  Biso   1.000  N
  N60      1.0000 0.96760  0.47600  0.09350  Biso   1.000  N
  N61      1.0000 0.01150  0.69070  0.95820  Biso   1.000  N
  N62      1.0000 0.48460  0.23830  0.11940  Biso   1.000  N
  N63      1.0000 0.22810  0.31190  0.25130  Biso   1.000  N
  N64      1.0000 0.09270  0.30450  0.13290  Biso   1.000  N
  Mn12     1.0000 0.95781  0.32960  0.10592  Biso   1.000  Mn
  W9       1.0000 0.46795  0.75529  0.62835  Biso   1.000  W
  C65      1.0000 0.55350  0.83790  0.59450  Biso   1.000  C
  C66      1.0000 0.51360  0.66100  0.58530  Biso   1.000  C
  C67      1.0000 0.35790  0.78800  0.66220  Biso   1.000  C
  C68      1.0000 0.50460  0.86190  0.67190  Biso   1.000  C
  C69      1.0000 0.46340  0.64850  0.67370  Biso   1.000  C
  C70      1.0000 0.60080  0.72960  0.65100  Biso   1.000  C
  C71      1.0000 0.36220  0.66810  0.60480  Biso   1.000  C
  C72      1.0000 0.39390  0.84740  0.58900  Biso   1.000  C
  N65      1.0000 0.59880  0.88000  0.57640  Biso   1.000  N
  N66      1.0000 0.53740  0.61000  0.56290  Biso   1.000  N
  N67      1.0000 0.29920  0.80650  0.67890  Biso   1.000  N
  N68      1.0000 0.52510  0.91250  0.69580  Biso   1.000  N
  N69      1.0000 0.45830  0.59360  0.69720  Biso   1.000  N
  N70      1.0000 0.67200  0.72080  0.66380  Biso   1.000  N
  N71      1.0000 0.30590  0.62150  0.59350  Biso   1.000  N
  N72      1.0000 0.35580  0.89970  0.56790  Biso   1.000  N
  Mn13     1.0000 0.18066  0.87692  0.69790  Biso   1.000  Mn
  Mn14     1.0000 0.54534  0.99611  0.75164  Biso   1.000  Mn
  Mn15     1.0000 0.80843  0.70915  0.68544  Biso   1.000  Mn
  Mn16     1.0000 0.19507  0.52552  0.58793  Biso   1.000  Mn
  Mn17     1.0000 0.28449  0.99710  0.52573  Biso   1.000  Mn
  N73      1.0000 0.06550  0.95390  0.71510  Biso   1.000  N
  N74      1.0000 0.10390  0.82860  0.64330  Biso   1.000  N
  N75      1.0000 0.23530  0.99680  0.67110  Biso   1.000  N
  N76      1.0000 0.15950  0.75410  0.73390  Biso   1.000  N
  N77      1.0000 0.46290  0.09870  0.71510  Biso   1.000  N
  N78      1.0000 0.67950  0.04280  0.73950  Biso   1.000  N
  N79      1.0000 0.61310  0.87960  0.78450  Biso   1.000  N
  N80      1.0000 0.11160  0.63820  0.56300  Biso   1.000  N
  N81      1.0000 0.16800  0.55620  0.65180  Biso   1.000  N
  N82      1.0000 0.25320  0.39600  0.61050  Biso   1.000  N
  N83      1.0000 0.16440  0.92450  0.53940  Biso   1.000  N
  N84      1.0000 0.29120  0.10440  0.57260  Biso   1.000  N
  N85      1.0000 0.19630  0.08660  0.48550  Biso   1.000  N
  C73      1.0000 0.00690  0.98320  0.72810  Biso   1.000  C
  C74      1.0000 0.06190  0.82210  0.61340  Biso   1.000  C
  C75      1.0000 0.26050  0.06810  0.66720  Biso   1.000  C
  C76      1.0000 0.40800  0.13720  0.69620  Biso   1.000  C
  C77      1.0000 0.06610  0.70120  0.55850  Biso   1.000  C
  C78      1.0000 0.10130  0.88680  0.54470  Biso   1.000  C
  C79      1.0000 0.29780  0.14300  0.60180  Biso   1.000  C
  W10      1.0000 0.89360  0.03884  0.75526  Biso   1.000  W
  W11      1.0000 0.98294  0.81805  0.55604  Biso   1.000  W
  W12      1.0000 0.30364  0.20725  0.66120  Biso   1.000  W
  C80      1.0000 0.94890  0.93290  0.79440  Biso   1.000  C
  C81      1.0000 0.85640  0.17980  0.76180  Biso   1.000  C
  C82      1.0000 0.75470  0.04360  0.74470  Biso   1.000  C
  C83      1.0000 0.00470  0.11220  0.78200  Biso   1.000  C
  C84      1.0000 0.85030  0.91700  0.72280  Biso   1.000  C
  C85      1.0000 0.89880  0.10110  0.69620  Biso   1.000  C
  C86      1.0000 0.84960  0.05230  0.81640  Biso   1.000  C
  C87      1.0000 0.90430  0.70610  0.53190  Biso   1.000  C
  C88      1.0000 0.89910  0.77960  0.60250  Biso   1.000  C
  C89      1.0000 0.96990  0.95300  0.58100  Biso   1.000  C
  C90      1.0000 0.00180  0.81180  0.49170  Biso   1.000  C
  C91      1.0000 0.86580  0.88060  0.52830  Biso   1.000  C
  C92      1.0000 0.42280  0.24320  0.63410  Biso   1.000  C
  C93      1.0000 0.35680  0.31960  0.69800  Biso   1.000  C
  C94      1.0000 0.25120  0.19690  0.71980  Biso   1.000  C
  C95      1.0000 0.16460  0.20190  0.64460  Biso   1.000  C
  C96      1.0000 0.26930  0.33110  0.62780  Biso   1.000  C
  N86      1.0000 0.98420  0.88030  0.81560  Biso   1.000  N
  N87      1.0000 0.06270  0.15320  0.79500  Biso   1.000  N
  N88      1.0000 0.82910  0.85370  0.70570  Biso   1.000  N
  N89      1.0000 0.90980  0.13660  0.66630  Biso   1.000  N
  N90      1.0000 0.86400  0.64740  0.51830  Biso   1.000  N
  N91      1.0000 0.85620  0.75540  0.62650  Biso   1.000  N
  N92      1.0000 0.96760  0.02400  0.59350  Biso   1.000  N
  N93      1.0000 0.01150  0.80930  0.45820  Biso   1.000  N
  N94      1.0000 0.48460  0.26170  0.61940  Biso   1.000  N
  N95      1.0000 0.22810  0.18810  0.75130  Biso   1.000  N
  N96      1.0000 0.09270  0.19550  0.63290  Biso   1.000  N
  Mn18     1.0000 0.95781  0.17040  0.60592  Biso   1.000  Mn
  W13      1.0000 0.53205  0.25529  0.87165  Biso   1.000  W
  C97      1.0000 0.44650  0.33790  0.90550  Biso   1.000  C
  C98      1.0000 0.48640  0.16100  0.91470  Biso   1.000  C
  C99      1.0000 0.64210  0.28800  0.83780  Biso   1.000  C
  C100     1.0000 0.49540  0.36190  0.82810  Biso   1.000  C
  C101     1.0000 0.53660  0.14850  0.82630  Biso   1.000  C
  C102     1.0000 0.39920  0.22960  0.84900  Biso   1.000  C
  C103     1.0000 0.63780  0.16810  0.89520  Biso   1.000  C
  C104     1.0000 0.60610  0.34740  0.91100  Biso   1.000  C
  N97      1.0000 0.40120  0.38000  0.92360  Biso   1.000  N
  N98      1.0000 0.46260  0.11000  0.93710  Biso   1.000  N
  N99      1.0000 0.70080  0.30650  0.82110  Biso   1.000  N
  N100     1.0000 0.47490  0.41250  0.80420  Biso   1.000  N
  N101     1.0000 0.54170  0.09360  0.80280  Biso   1.000  N
  N102     1.0000 0.32800  0.22080  0.83620  Biso   1.000  N
  N103     1.0000 0.69410  0.12150  0.90650  Biso   1.000  N
  N104     1.0000 0.64420  0.39970  0.93210  Biso   1.000  N
  Mn19     1.0000 0.81934  0.37692  0.80210  Biso   1.000  Mn
  Mn20     1.0000 0.45466  0.49611  0.74836  Biso   1.000  Mn
  Mn21     1.0000 0.19157  0.20915  0.81456  Biso   1.000  Mn
  Mn22     1.0000 0.80493  0.02552  0.91207  Biso   1.000  Mn
  Mn23     1.0000 0.71551  0.49710  0.97427  Biso   1.000  Mn
  N105     1.0000 0.93450  0.45390  0.78490  Biso   1.000  N
  N106     1.0000 0.89610  0.32860  0.85670  Biso   1.000  N
  N107     1.0000 0.76470  0.49680  0.82890  Biso   1.000  N
  N108     1.0000 0.84050  0.25410  0.76610  Biso   1.000  N
  N109     1.0000 0.53710  0.59870  0.78490  Biso   1.000  N
  N110     1.0000 0.32050  0.54280  0.76050  Biso   1.000  N
  N111     1.0000 0.38690  0.37960  0.71550  Biso   1.000  N
  N112     1.0000 0.88840  0.13820  0.93700  Biso   1.000  N
  N113     1.0000 0.83200  0.05620  0.84820  Biso   1.000  N
  N114     1.0000 0.74680  0.89600  0.88950  Biso   1.000  N
  N115     1.0000 0.83560  0.42450  0.96060  Biso   1.000  N
  N116     1.0000 0.70880  0.60440  0.92740  Biso   1.000  N
  N117     1.0000 0.80370  0.58660  0.01450  Biso   1.000  N
  C105     1.0000 0.99310  0.48320  0.77190  Biso   1.000  C
  C106     1.0000 0.93810  0.32210  0.88660  Biso   1.000  C
  C107     1.0000 0.73950  0.56810  0.83280  Biso   1.000  C
  C108     1.0000 0.59200  0.63720  0.80380  Biso   1.000  C
  C109     1.0000 0.93390  0.20120  0.94150  Biso   1.000  C
  C110     1.0000 0.89870  0.38680  0.95530  Biso   1.000  C
  C111     1.0000 0.70220  0.64300  0.89820  Biso   1.000  C
  W14      1.0000 0.10640  0.53884  0.74474  Biso   1.000  W
  W15      1.0000 0.01706  0.31805  0.94396  Biso   1.000  W
  W16      1.0000 0.69636  0.70725  0.83880  Biso   1.000  W
  C112     1.0000 0.05110  0.43290  0.70560  Biso   1.000  C
  C113     1.0000 0.14360  0.67980  0.73820  Biso   1.000  C
  C114     1.0000 0.24530  0.54360  0.75530  Biso   1.000  C
  C115     1.0000 0.99530  0.61220  0.71800  Biso   1.000  C
  C116     1.0000 0.14970  0.41700  0.77720  Biso   1.000  C
  C117     1.0000 0.10120  0.60110  0.80380  Biso   1.000  C
  C118     1.0000 0.15040  0.55230  0.68360  Biso   1.000  C
  C119     1.0000 0.09570  0.20610  0.96810  Biso   1.000  C
  C120     1.0000 0.10090  0.27960  0.89750  Biso   1.000  C
  C121     1.0000 0.03010  0.45300  0.91900  Biso   1.000  C
  C122     1.0000 0.99820  0.31180  0.00830  Biso   1.000  C
  C123     1.0000 0.13420  0.38060  0.97170  Biso   1.000  C
  C124     1.0000 0.57720  0.74320  0.86590  Biso   1.000  C
  C125     1.0000 0.64320  0.81960  0.80200  Biso   1.000  C
  C126     1.0000 0.74880  0.69690  0.78020  Biso   1.000  C
  C127     1.0000 0.83540  0.70190  0.85540  Biso   1.000  C
  C128     1.0000 0.73070  0.83110  0.87220  Biso   1.000  C
  N118     1.0000 0.01580  0.38030  0.68440  Biso   1.000  N
  N119     1.0000 0.93730  0.65320  0.70500  Biso   1.000  N
  N120     1.0000 0.17090  0.35370  0.79430  Biso   1.000  N
  N121     1.0000 0.09020  0.63660  0.83370  Biso   1.000  N
  N122     1.0000 0.13600  0.14740  0.98170  Biso   1.000  N
  N123     1.0000 0.14380  0.25540  0.87350  Biso   1.000  N
  N124     1.0000 0.03240  0.52400  0.90650  Biso   1.000  N
  N125     1.0000 0.98850  0.30930  0.04180  Biso   1.000  N
  N126     1.0000 0.51540  0.76170  0.88060  Biso   1.000  N
  N127     1.0000 0.77190  0.68810  0.74870  Biso   1.000  N
  N128     1.0000 0.90730  0.69550  0.86710  Biso   1.000  N
  Mn24     1.0000 0.04219  0.67040  0.89408  Biso   1.000  Mn
