data_XUVGUQ_charged
_audit_creation_date              2014-07-02
_audit_creation_method            'Materials Studio'
_symmetry_space_group_name_H-M    'P1'
_symmetry_Int_Tables_number       1
_symmetry_cell_setting            triclinic
loop_
_symmetry_equiv_pos_as_xyz
  x,y,z
_cell_length_a                    10.2120
_cell_length_b                    17.2290
_cell_length_c                    18.2382
_cell_angle_alpha                 118.1860
_cell_angle_beta                  90.0000
_cell_angle_gamma                 90.0000
loop_
_atom_site_label
_atom_site_type_symbol
_atom_site_fract_x
_atom_site_fract_y
_atom_site_fract_z
_atom_site_U_iso_or_equiv
_atom_site_adp_type
_atom_site_occupancy
Rb1    Rb    0.03951   0.09241   0.33032   0.01267  Uiso   1.00
Rb2    Rb    0.53951   0.90759   0.66968   0.01267  Uiso   1.00
Rb3    Rb    0.53951   0.23791   0.33032   0.01267  Uiso   1.00
Rb4    Rb    0.03951   0.76209   0.66968   0.01267  Uiso   1.00
Ga1    Ga    0.21106   0.99298   0.83880   0.01267  Uiso   1.00
Ga2    Ga    0.20083   0.84508   0.51374   0.01267  Uiso   1.00
Ga3    Ga    0.89270   0.00870   0.66312   0.01267  Uiso   1.00
Ga4    Ga    0.86770   0.96214   0.45046   0.01267  Uiso   1.00
Ga5    Ga    0.78734   0.05093   0.00000   0.01267  Uiso   1.00
Ga6    Ga    0.71106   0.00702   0.16120   0.01267  Uiso   1.00
Ga7    Ga    0.70083   0.15492   0.48626   0.01267  Uiso   1.00
Ga8    Ga    0.39270   0.99130   0.33688   0.01267  Uiso   1.00
Ga9    Ga    0.36770   0.03786   0.54954   0.01267  Uiso   1.00
Ga10   Ga    0.28734   0.94907   1.00000   0.01267  Uiso   1.00
Ga11   Ga    0.71106   0.84582   0.83880   0.01267  Uiso   1.00
Ga12   Ga    0.70083   0.66866   0.51374   0.01267  Uiso   1.00
Ga13   Ga    0.39270   0.65442   0.66312   0.01267  Uiso   1.00
Ga14   Ga    0.36770   0.48832   0.45046   0.01267  Uiso   1.00
Ga15   Ga    0.21106   0.15418   0.16120   0.01267  Uiso   1.00
Ga16   Ga    0.20083   0.33134   0.48626   0.01267  Uiso   1.00
Ga17   Ga    0.89270   0.34558   0.33688   0.01267  Uiso   1.00
Ga18   Ga    0.86770   0.51168   0.54954   0.01267  Uiso   1.00
P1     P     0.89540   0.81756   0.50988   0.01267  Uiso   1.00
P2     P     0.68379   0.97376   0.31668   0.01267  Uiso   1.00
P3     P     0.90432   0.97681   0.81798   0.01267  Uiso   1.00
P4     P     0.66533   0.06728   0.59384   0.01267  Uiso   1.00
P5     P     0.33745   0.12742   0.00000   0.01267  Uiso   1.00
P6     P     0.39540   0.18244   0.49012   0.01267  Uiso   1.00
P7     P     0.18379   0.02624   0.68332   0.01267  Uiso   1.00
P8     P     0.40432   0.02319   0.18202   0.01267  Uiso   1.00
P9     P     0.16533   0.93272   0.40616   0.01267  Uiso   1.00
P10    P     0.83745   0.87258   1.00000   0.01267  Uiso   1.00
P11    P     0.39540   0.69232   0.50988   0.01267  Uiso   1.00
P12    P     0.18379   0.34292   0.31668   0.01267  Uiso   1.00
P13    P     0.40432   0.84117   0.81798   0.01267  Uiso   1.00
P14    P     0.16533   0.52656   0.59384   0.01267  Uiso   1.00
P15    P     0.89540   0.30768   0.49012   0.01267  Uiso   1.00
P16    P     0.68379   0.65708   0.68332   0.01267  Uiso   1.00
P17    P     0.90432   0.15883   0.18202   0.01267  Uiso   1.00
P18    P     0.66533   0.47344   0.40616   0.01267  Uiso   1.00
H1     H     0.53553   0.15888   0.99922   0.01267  Uiso   1.00
H2     H     0.03553   0.84112   0.00078   0.01267  Uiso   1.00
O1     O     0.70720   0.98702   0.51512   0.01267  Uiso   1.00
O2     O     0.87360   0.84834   0.44428   0.01267  Uiso   1.00
O3     O     0.30090   0.74657   0.48918   0.01267  Uiso   1.00
O4     O     0.02450   0.94415   0.38480   0.01267  Uiso   1.00
O5     O     0.76420   0.92369   0.35180   0.01267  Uiso   1.00
O6     O     0.03470   0.78442   0.50676   0.01267  Uiso   1.00
O7     O     0.18000   0.84827   0.41514   0.01267  Uiso   1.00
O8     O     0.66320   0.07207   0.37900   0.01267  Uiso   1.00
O9     O     0.04830   0.95732   0.78998   0.01267  Uiso   1.00
O10    O     0.75260   0.07889   0.66830   0.01267  Uiso   1.00
O11    O     0.83520   0.01132   0.76600   0.01267  Uiso   1.00
O12    O     0.89520   0.04431   0.90994   0.01267  Uiso   1.00
O13    O     0.25690   0.03411   0.75948   0.01267  Uiso   1.00
O14    O     0.34620   0.91245   0.79884   0.01267  Uiso   1.00
O15    O     0.04710   0.06934   0.70834   0.01267  Uiso   1.00
O16    O     0.86100   0.88837   0.59894   0.01267  Uiso   1.00
O17    O     0.89380   0.95472   1.00000   0.01267  Uiso   1.00
O18    O     0.25320   0.10521   0.92280   0.01267  Uiso   1.00
O19    O     0.45250   0.18660   1.00000   0.01267  Uiso   1.00
O20    O     0.20720   0.01298   0.48488   0.01267  Uiso   1.00
O21    O     0.37360   0.15166   0.55572   0.01267  Uiso   1.00
O22    O     0.80090   0.25343   0.51082   0.01267  Uiso   1.00
O23    O     0.52450   0.05585   0.61520   0.01267  Uiso   1.00
O24    O     0.26420   0.07631   0.64820   0.01267  Uiso   1.00
O25    O     0.53470   0.21558   0.49324   0.01267  Uiso   1.00
O26    O     0.68000   0.15173   0.58486   0.01267  Uiso   1.00
O27    O     0.16320   0.92793   0.62100   0.01267  Uiso   1.00
O28    O     0.54830   0.04268   0.21002   0.01267  Uiso   1.00
O29    O     0.25260   0.92111   0.33170   0.01267  Uiso   1.00
O30    O     0.33520   0.98868   0.23400   0.01267  Uiso   1.00
O31    O     0.39520   0.95569   0.09006   0.01267  Uiso   1.00
O32    O     0.75690   0.96589   0.24052   0.01267  Uiso   1.00
O33    O     0.84620   0.08755   0.20116   0.01267  Uiso   1.00
O34    O     0.54710   0.93066   0.29166   0.01267  Uiso   1.00
O35    O     0.36100   0.11163   0.40106   0.01267  Uiso   1.00
O36    O     0.39380   0.04528   0.00000   0.01267  Uiso   1.00
O37    O     0.75320   0.89479   0.07720   0.01267  Uiso   1.00
O38    O     0.95250   0.81340   0.00000   0.01267  Uiso   1.00
O39    O     0.20720   0.52810   0.51512   0.01267  Uiso   1.00
O40    O     0.37360   0.59594   0.44428   0.01267  Uiso   1.00
O41    O     0.80090   0.74261   0.48918   0.01267  Uiso   1.00
O42    O     0.52450   0.44065   0.38480   0.01267  Uiso   1.00
O43    O     0.26420   0.42811   0.35180   0.01267  Uiso   1.00
O44    O     0.53470   0.72234   0.50676   0.01267  Uiso   1.00
O45    O     0.68000   0.56687   0.41514   0.01267  Uiso   1.00
O46    O     0.16320   0.30693   0.37900   0.01267  Uiso   1.00
O47    O     0.54830   0.83266   0.78998   0.01267  Uiso   1.00
O48    O     0.25260   0.58941   0.66830   0.01267  Uiso   1.00
O49    O     0.33520   0.75468   0.76600   0.01267  Uiso   1.00
O50    O     0.39520   0.86563   0.90994   0.01267  Uiso   1.00
O51    O     0.75690   0.72537   0.75948   0.01267  Uiso   1.00
O52    O     0.84620   0.88639   0.79884   0.01267  Uiso   1.00
O53    O     0.54710   0.63900   0.70834   0.01267  Uiso   1.00
O54    O     0.36100   0.71057   0.59894   0.01267  Uiso   1.00
O55    O     0.75320   0.81759   0.92280   0.01267  Uiso   1.00
O56    O     0.70720   0.47190   0.48488   0.01267  Uiso   1.00
O57    O     0.87360   0.40406   0.55572   0.01267  Uiso   1.00
O58    O     0.30090   0.25739   0.51082   0.01267  Uiso   1.00
O59    O     0.02450   0.55935   0.61520   0.01267  Uiso   1.00
O60    O     0.76420   0.57189   0.64820   0.01267  Uiso   1.00
O61    O     0.03470   0.27766   0.49324   0.01267  Uiso   1.00
O62    O     0.18000   0.43313   0.58486   0.01267  Uiso   1.00
O63    O     0.66320   0.69307   0.62100   0.01267  Uiso   1.00
O64    O     0.04830   0.16734   0.21002   0.01267  Uiso   1.00
O65    O     0.75260   0.41059   0.33170   0.01267  Uiso   1.00
O66    O     0.83520   0.24532   0.23400   0.01267  Uiso   1.00
O67    O     0.89520   0.13437   0.09006   0.01267  Uiso   1.00
O68    O     0.25690   0.27463   0.24052   0.01267  Uiso   1.00
O69    O     0.34620   0.11361   0.20116   0.01267  Uiso   1.00
O70    O     0.04710   0.36100   0.29166   0.01267  Uiso   1.00
O71    O     0.86100   0.28943   0.40106   0.01267  Uiso   1.00
O72    O     0.25320   0.18241   0.07720   0.01267  Uiso   1.00
F1     F     0.37120   0.91552   0.53214   0.01267  Uiso   1.00
F2     F     0.16840   0.95159   0.91786   0.01267  Uiso   1.00
F3     F     0.95780   0.01027   0.55736   0.01267  Uiso   1.00
F4     F     0.69150   0.14686  -0.00000   0.01267  Uiso   1.00
F5     F     0.87120   0.08448   0.46786   0.01267  Uiso   1.00
F6     F     0.66840   0.04841   0.08214   0.01267  Uiso   1.00
F7     F     0.45780   0.98973   0.44264   0.01267  Uiso   1.00
F8     F     0.19150   0.85314   1.00000   0.01267  Uiso   1.00
F9     F     0.87120   0.61662   0.53214   0.01267  Uiso   1.00
F10    F     0.66840   0.96627   0.91786   0.01267  Uiso   1.00
F11    F     0.45780   0.54709   0.55736   0.01267  Uiso   1.00
F12    F     0.37120   0.38338   0.46786   0.01267  Uiso   1.00
F13    F     0.16840   0.03373   0.08214   0.01267  Uiso   1.00
F14    F     0.95780   0.45291   0.44264   0.01267  Uiso   1.00
H3     H     0.93020   0.26570   0.65760   0.01267  Uiso   1.00
H4     H     0.99490   0.22220   0.70720   0.01267  Uiso   1.00
H5     H     0.16600   0.31390   0.74580   0.01267  Uiso   1.00
H6     H     0.13930   0.34200   0.67740   0.01267  Uiso   1.00
H7     H     0.01780   0.40350   0.83000   0.01267  Uiso   1.00
H8     H     0.94810   0.41410   0.76000   0.01267  Uiso   1.00
H9     H     0.14980   0.52080   0.86040   0.01267  Uiso   1.00
H10    H     0.10340   0.52550   0.77880   0.01267  Uiso   1.00
H11    H     0.89270   0.48320   0.83680   0.01267  Uiso   1.00
H12    H     0.95540   0.55860   0.91660   0.01267  Uiso   1.00
H13    H     0.84160   0.64860   0.89620   0.01267  Uiso   1.00
H14    H     0.79530   0.57430   0.80940   0.01267  Uiso   1.00
H15    H     0.05266   0.11730   0.58568   0.01267  Uiso   1.00
H16    H     0.03634   0.18710   0.54310   0.01267  Uiso   1.00
H17    H     0.17530   0.19050   0.59676   0.01267  Uiso   1.00
H18    H     0.98626   0.59290   0.74436   0.01267  Uiso   1.00
H19    H     0.89034   0.68583   0.79087   0.01267  Uiso   1.00
H20    H     0.02798   0.67779   0.84017   0.01267  Uiso   1.00
C1     C     0.01310   0.24807   0.67117   0.01267  Uiso   1.00
C2     C     0.09720   0.32906   0.71816   0.01267  Uiso   1.00
C3     C     0.03370   0.41340   0.78260   0.01267  Uiso   1.00
C4     C     0.08060   0.50670   0.81960   0.01267  Uiso   1.00
C5     C     0.94670   0.53560   0.85700   0.01267  Uiso   1.00
C6     C     0.87180   0.60240   0.84300   0.01267  Uiso   1.00
N1     N     0.07360   0.18043   0.59350   0.01267  Uiso   1.00
N2     N     0.95000   0.64230   0.80120   0.01267  Uiso   1.00
H21    H     0.43020   0.73430   0.34240   0.01267  Uiso   1.00
H22    H     0.49490   0.77780   0.29280   0.01267  Uiso   1.00
H23    H     0.66600   0.68610   0.25420   0.01267  Uiso   1.00
H24    H     0.63930   0.65800   0.32260   0.01267  Uiso   1.00
H25    H     0.51780   0.59650   0.17000   0.01267  Uiso   1.00
H26    H     0.44810   0.58590   0.24000   0.01267  Uiso   1.00
H27    H     0.64980   0.47920   0.13960   0.01267  Uiso   1.00
H28    H     0.60340   0.47450   0.22120   0.01267  Uiso   1.00
H29    H     0.39270   0.51680   0.16320   0.01267  Uiso   1.00
H30    H     0.45540   0.44140   0.08340   0.01267  Uiso   1.00
H31    H     0.34160   0.35140   0.10380   0.01267  Uiso   1.00
H32    H     0.29530   0.42570   0.19060   0.01267  Uiso   1.00
H33    H     0.55266   0.88270   0.41432   0.01267  Uiso   1.00
H34    H     0.53634   0.81290   0.45690   0.01267  Uiso   1.00
H35    H     0.67530   0.80950   0.40324   0.01267  Uiso   1.00
H36    H     0.48626   0.40710   0.25564   0.01267  Uiso   1.00
H37    H     0.39034   0.31417   0.20913   0.01267  Uiso   1.00
H38    H     0.52798   0.32221   0.15983   0.01267  Uiso   1.00
C7     C     0.51310   0.75193   0.32883   0.01267  Uiso   1.00
C8     C     0.59720   0.67094   0.28184   0.01267  Uiso   1.00
C9     C     0.53370   0.58660   0.21740   0.01267  Uiso   1.00
C10    C     0.58060   0.49330   0.18040   0.01267  Uiso   1.00
C11    C     0.44670   0.46440   0.14300   0.01267  Uiso   1.00
C12    C     0.37180   0.39760   0.15700   0.01267  Uiso   1.00
N3     N     0.57360   0.81957   0.40650   0.01267  Uiso   1.00
N4     N     0.45000   0.35770   0.19880   0.01267  Uiso   1.00
H39    H     0.43020   0.39190   0.65760   0.01267  Uiso   1.00
H40    H     0.49490   0.48500   0.70720   0.01267  Uiso   1.00
H41    H     0.66600   0.43190   0.74580   0.01267  Uiso   1.00
H42    H     0.63930   0.33540   0.67740   0.01267  Uiso   1.00
H43    H     0.51780   0.42650   0.83000   0.01267  Uiso   1.00
H44    H     0.44810   0.34590   0.76000   0.01267  Uiso   1.00
H45    H     0.64980   0.33960   0.86040   0.01267  Uiso   1.00
H46    H     0.60340   0.25330   0.77880   0.01267  Uiso   1.00
H47    H     0.39270   0.35360   0.83680   0.01267  Uiso   1.00
H48    H     0.45540   0.35800   0.91660   0.01267  Uiso   1.00
H49    H     0.34160   0.24760   0.89620   0.01267  Uiso   1.00
H50    H     0.29530   0.23510   0.80940   0.01267  Uiso   1.00
H51    H     0.55266   0.46838   0.58568   0.01267  Uiso   1.00
H52    H     0.53634   0.35600   0.54310   0.01267  Uiso   1.00
H53    H     0.67530   0.40626   0.59676   0.01267  Uiso   1.00
H54    H     0.48626   0.15146   0.74436   0.01267  Uiso   1.00
H55    H     0.39034   0.10504   0.79087   0.01267  Uiso   1.00
H56    H     0.52798   0.16238   0.84017   0.01267  Uiso   1.00
C13    C     0.51310   0.42310   0.67117   0.01267  Uiso   1.00
C14    C     0.59720   0.38910   0.71816   0.01267  Uiso   1.00
C15    C     0.53370   0.36920   0.78260   0.01267  Uiso   1.00
C16    C     0.58060   0.31290   0.81960   0.01267  Uiso   1.00
C17    C     0.44670   0.32140   0.85700   0.01267  Uiso   1.00
C18    C     0.37180   0.24060   0.84300   0.01267  Uiso   1.00
N5     N     0.57360   0.41307   0.59350   0.01267  Uiso   1.00
N6     N     0.45000   0.15890   0.80120   0.01267  Uiso   1.00
H57    H     0.93020   0.60810   0.34240   0.01267  Uiso   1.00
H58    H     0.99490   0.51500   0.29280   0.01267  Uiso   1.00
H59    H     0.16600   0.56810   0.25420   0.01267  Uiso   1.00
H60    H     0.13930   0.66460   0.32260   0.01267  Uiso   1.00
H61    H     0.01780   0.57350   0.17000   0.01267  Uiso   1.00
H62    H     0.94810   0.65410   0.24000   0.01267  Uiso   1.00
H63    H     0.14980   0.66040   0.13960   0.01267  Uiso   1.00
H64    H     0.10340   0.74670   0.22120   0.01267  Uiso   1.00
H65    H     0.89270   0.64640   0.16320   0.01267  Uiso   1.00
H66    H     0.95540   0.64200   0.08340   0.01267  Uiso   1.00
H67    H     0.84160   0.75240   0.10380   0.01267  Uiso   1.00
H68    H     0.79530   0.76490   0.19060   0.01267  Uiso   1.00
H69    H     0.05266   0.53162   0.41432   0.01267  Uiso   1.00
H70    H     0.03634   0.64400   0.45690   0.01267  Uiso   1.00
H71    H     0.17530   0.59374   0.40324   0.01267  Uiso   1.00
H72    H     0.98626   0.84854   0.25564   0.01267  Uiso   1.00
H73    H     0.89034   0.89496   0.20913   0.01267  Uiso   1.00
H74    H     0.02798   0.83762   0.15983   0.01267  Uiso   1.00
C19    C     0.01310   0.57690   0.32883   0.01267  Uiso   1.00
C20    C     0.09720   0.61090   0.28184   0.01267  Uiso   1.00
C21    C     0.03370   0.63080   0.21740   0.01267  Uiso   1.00
C22    C     0.08060   0.68710   0.18040   0.01267  Uiso   1.00
C23    C     0.94670   0.67860   0.14300   0.01267  Uiso   1.00
C24    C     0.87180   0.75940   0.15700   0.01267  Uiso   1.00
N7     N     0.07360   0.58693   0.40650   0.01267  Uiso   1.00
N8     N     0.95000   0.84110   0.19880   0.01267  Uiso   1.00
