data_XUVGUQ01_ion_b
_audit_creation_date              2014-07-02
_audit_creation_method            'Materials Studio'
_symmetry_space_group_name_H-M    'P1'
_symmetry_Int_Tables_number       1
_symmetry_cell_setting            triclinic
loop_
_symmetry_equiv_pos_as_xyz
  x,y,z
_cell_length_a                    18.2382
_cell_length_b                    18.2382
_cell_length_c                    10.2120
_cell_angle_alpha                 90.0000
_cell_angle_beta                  90.0000
_cell_angle_gamma                 123.6283
loop_
_atom_site_label
_atom_site_type_symbol
_atom_site_fract_x
_atom_site_fract_y
_atom_site_fract_z
_atom_site_U_iso_or_equiv
_atom_site_adp_type
_atom_site_occupancy
Rb1    Rb    0.09241   0.76209   0.96049   0.00000  Uiso   1.00
Ga2    Ga    0.84582   0.00702   0.28894   0.00000  Uiso   1.00
Ga3    Ga    0.15492   0.66866   0.29917   0.00000  Uiso   1.00
Ga4    Ga    0.34558   0.00870   0.10730   0.00000  Uiso   1.00
Ga5    Ga    0.96214   0.51168   0.13230   0.00000  Uiso   1.00
P6     P     0.30768   0.81756   0.10460   0.00000  Uiso   1.00
P7     P     0.34292   0.02624   0.81621   0.00000  Uiso   1.00
P8     P     0.15883   0.97681   0.09568   0.00000  Uiso   1.00
P9     P     0.93272   0.52656   0.83467   0.00000  Uiso   1.00
F10    F     0.08448   0.61662   0.12880   0.00000  Uiso   1.00
F11    F     0.96627   0.04841   0.33160   0.00000  Uiso   1.00
F12    F     0.45291   0.01027   0.04220   0.00000  Uiso   1.00
O13    O     0.01298   0.52810   0.79280   0.00000  Uiso   1.00
O14    O     0.40406   0.84834   0.12640   0.00000  Uiso   1.00
O15    O     0.25343   0.74261   0.19910   0.00000  Uiso   1.00
O16    O     0.94415   0.55935   0.97550   0.00000  Uiso   1.00
O17    O     0.42811   0.07631   0.73580   0.00000  Uiso   1.00
O18    O     0.27766   0.78442   0.96530   0.00000  Uiso   1.00
O19    O     0.84827   0.43313   0.82000   0.00000  Uiso   1.00
O20    O     0.30693   0.92793   0.83680   0.00000  Uiso   1.00
O21    O     0.16734   0.95732   0.95170   0.00000  Uiso   1.00
O22    O     0.92111   0.58941   0.74740   0.00000  Uiso   1.00
O23    O     0.24532   0.01132   0.16480   0.00000  Uiso   1.00
O24    O     0.13437   0.04431   0.10480   0.00000  Uiso   1.00
O25    O     0.27463   0.03411   0.74310   0.00000  Uiso   1.00
O26    O     0.08755   0.88639   0.15380   0.00000  Uiso   1.00
O27    O     0.36100   0.06934   0.95290   0.00000  Uiso   1.00
O28    O     0.28943   0.88837   0.13900   0.00000  Uiso   1.00
O29    O     0.81759   0.89479   0.24680   0.00000  Uiso   1.00
N30    N     0.58693   0.18043   0.92640   0.00000  Uiso   1.00
H31    H     0.62590   0.20450   0.86140   0.00000  Uiso   1.00
H32    H     0.53520   0.13700   0.89510   0.00000  Uiso   1.00
H33    H     0.60580   0.15920   0.98630   0.00000  Uiso   1.00
C34    C     0.57693   0.24807   0.98690   0.00000  Uiso   1.00
H35    H     0.60810   0.26570   0.06980   0.00000  Uiso   1.00
H36    H     0.51500   0.22220   0.00510   0.00000  Uiso   1.00
C37    C     0.61094   0.32906   0.90280   0.00000  Uiso   1.00
H38    H     0.56810   0.31390   0.83400   0.00000  Uiso   1.00
H39    H     0.66460   0.34200   0.86070   0.00000  Uiso   1.00
C40    C     0.63080   0.41340   0.96630   0.00000  Uiso   1.00
H41    H     0.57350   0.40350   0.98220   0.00000  Uiso   1.00
H42    H     0.65410   0.41410   0.05190   0.00000  Uiso   1.00
C43    C     0.68710   0.50670   0.91940   0.00000  Uiso   1.00
H44    H     0.66040   0.52080   0.85020   0.00000  Uiso   1.00
H45    H     0.74670   0.52550   0.89660   0.00000  Uiso   1.00
C46    C     0.67860   0.53560   0.05330   0.00000  Uiso   1.00
H47    H     0.64640   0.48320   0.10730   0.00000  Uiso   1.00
H48    H     0.64200   0.55860   0.04460   0.00000  Uiso   1.00
C49    C     0.75940   0.60240   0.12820   0.00000  Uiso   1.00
H50    H     0.75240   0.64860   0.15840   0.00000  Uiso   1.00
H51    H     0.76490   0.57430   0.20470   0.00000  Uiso   1.00
N52    N     0.84110   0.64230   0.05000   0.00000  Uiso   1.00
H53    H     0.83560   0.66640   0.97790   0.00000  Uiso   1.00
H54    H     0.85040   0.60100   0.02770   0.00000  Uiso   1.00
H55    H     0.88630   0.68370   0.09710   0.00000  Uiso   1.00
Rb58   Rb    0.90759   0.23791   0.46049   0.00000  Uiso   1.00
Ga59   Ga    0.15418   0.99298   0.78894   0.00000  Uiso   1.00
Ga60   Ga    0.84508   0.33134   0.79917   0.00000  Uiso   1.00
Ga61   Ga    0.65442   0.99130   0.60730   0.00000  Uiso   1.00
Ga62   Ga    0.03786   0.48832   0.63230   0.00000  Uiso   1.00
P63    P     0.69232   0.18244   0.60460   0.00000  Uiso   1.00
P64    P     0.65708   0.97376   0.31621   0.00000  Uiso   1.00
P65    P     0.84117   0.02319   0.59568   0.00000  Uiso   1.00
P66    P     0.06728   0.47344   0.33467   0.00000  Uiso   1.00
F67    F     0.91552   0.38338   0.62880   0.00000  Uiso   1.00
F68    F     0.03373   0.95159   0.83160   0.00000  Uiso   1.00
F69    F     0.54709   0.98973   0.54220   0.00000  Uiso   1.00
O70    O     0.98702   0.47190   0.29280   0.00000  Uiso   1.00
O71    O     0.59594   0.15166   0.62640   0.00000  Uiso   1.00
O72    O     0.74657   0.25739   0.69910   0.00000  Uiso   1.00
O73    O     0.05585   0.44065   0.47550   0.00000  Uiso   1.00
O74    O     0.57189   0.92369   0.23580   0.00000  Uiso   1.00
O75    O     0.72234   0.21558   0.46530   0.00000  Uiso   1.00
O76    O     0.15173   0.56687   0.32000   0.00000  Uiso   1.00
O77    O     0.69307   0.07207   0.33680   0.00000  Uiso   1.00
O78    O     0.83266   0.04268   0.45170   0.00000  Uiso   1.00
O79    O     0.07889   0.41059   0.24740   0.00000  Uiso   1.00
O80    O     0.75468   0.98868   0.66480   0.00000  Uiso   1.00
O81    O     0.86563   0.95569   0.60480   0.00000  Uiso   1.00
O82    O     0.72537   0.96589   0.24310   0.00000  Uiso   1.00
O83    O     0.91245   0.11361   0.65380   0.00000  Uiso   1.00
O84    O     0.63900   0.93066   0.45290   0.00000  Uiso   1.00
O85    O     0.71057   0.11163   0.63900   0.00000  Uiso   1.00
O86    O     0.18241   0.10521   0.74680   0.00000  Uiso   1.00
N87    N     0.41307   0.81957   0.42640   0.00000  Uiso   1.00
H88    H     0.37410   0.79550   0.36140   0.00000  Uiso   1.00
H89    H     0.46480   0.86300   0.39510   0.00000  Uiso   1.00
H90    H     0.39420   0.84080   0.48630   0.00000  Uiso   1.00
C91    C     0.42307   0.75193   0.48690   0.00000  Uiso   1.00
H92    H     0.39190   0.73430   0.56980   0.00000  Uiso   1.00
H93    H     0.48500   0.77780   0.50510   0.00000  Uiso   1.00
C94    C     0.38906   0.67094   0.40280   0.00000  Uiso   1.00
H95    H     0.43190   0.68610   0.33400   0.00000  Uiso   1.00
H96    H     0.33540   0.65800   0.36070   0.00000  Uiso   1.00
C97    C     0.36920   0.58660   0.46630   0.00000  Uiso   1.00
H98    H     0.42650   0.59650   0.48220   0.00000  Uiso   1.00
H99    H     0.34590   0.58590   0.55190   0.00000  Uiso   1.00
C100   C     0.31290   0.49330   0.41940   0.00000  Uiso   1.00
H101   H     0.33960   0.47920   0.35020   0.00000  Uiso   1.00
H102   H     0.25330   0.47450   0.39660   0.00000  Uiso   1.00
C103   C     0.32140   0.46440   0.55330   0.00000  Uiso   1.00
H104   H     0.35360   0.51680   0.60730   0.00000  Uiso   1.00
H105   H     0.35800   0.44140   0.54460   0.00000  Uiso   1.00
C106   C     0.24060   0.39760   0.62820   0.00000  Uiso   1.00
H107   H     0.24760   0.35140   0.65840   0.00000  Uiso   1.00
H108   H     0.23510   0.42570   0.70470   0.00000  Uiso   1.00
N109   N     0.15890   0.35770   0.55000   0.00000  Uiso   1.00
H110   H     0.16440   0.33360   0.47790   0.00000  Uiso   1.00
H111   H     0.14960   0.39900   0.52770   0.00000  Uiso   1.00
H112   H     0.11370   0.31630   0.59710   0.00000  Uiso   1.00
Rb115  Rb    0.23791   0.90759   0.46049   0.00000  Uiso   1.00
Ga116  Ga    0.99298   0.15418   0.78894   0.00000  Uiso   1.00
Ga117  Ga    0.33134   0.84508   0.79917   0.00000  Uiso   1.00
Ga118  Ga    0.99130   0.65442   0.60730   0.00000  Uiso   1.00
Ga119  Ga    0.48832   0.03786   0.63230   0.00000  Uiso   1.00
P120   P     0.18244   0.69232   0.60460   0.00000  Uiso   1.00
P121   P     0.97376   0.65708   0.31621   0.00000  Uiso   1.00
P122   P     0.02319   0.84117   0.59568   0.00000  Uiso   1.00
P123   P     0.47344   0.06728   0.33467   0.00000  Uiso   1.00
F124   F     0.38338   0.91552   0.62880   0.00000  Uiso   1.00
F125   F     0.95159   0.03373   0.83160   0.00000  Uiso   1.00
F126   F     0.98973   0.54709   0.54220   0.00000  Uiso   1.00
O127   O     0.47190   0.98702   0.29280   0.00000  Uiso   1.00
O128   O     0.15166   0.59594   0.62640   0.00000  Uiso   1.00
O129   O     0.25739   0.74657   0.69910   0.00000  Uiso   1.00
O130   O     0.44065   0.05585   0.47550   0.00000  Uiso   1.00
O131   O     0.92369   0.57189   0.23580   0.00000  Uiso   1.00
O132   O     0.21558   0.72234   0.46530   0.00000  Uiso   1.00
O133   O     0.56687   0.15173   0.32000   0.00000  Uiso   1.00
O134   O     0.07207   0.69307   0.33680   0.00000  Uiso   1.00
O135   O     0.04268   0.83266   0.45170   0.00000  Uiso   1.00
O136   O     0.41059   0.07889   0.24740   0.00000  Uiso   1.00
O137   O     0.98868   0.75468   0.66480   0.00000  Uiso   1.00
O138   O     0.95569   0.86563   0.60480   0.00000  Uiso   1.00
O139   O     0.96589   0.72537   0.24310   0.00000  Uiso   1.00
O140   O     0.11361   0.91245   0.65380   0.00000  Uiso   1.00
O141   O     0.93066   0.63900   0.45290   0.00000  Uiso   1.00
O142   O     0.11163   0.71057   0.63900   0.00000  Uiso   1.00
O143   O     0.10521   0.18241   0.74680   0.00000  Uiso   1.00
N144   N     0.81957   0.41307   0.42640   0.00000  Uiso   1.00
H145   H     0.79550   0.37410   0.36140   0.00000  Uiso   1.00
H146   H     0.86300   0.46480   0.39510   0.00000  Uiso   1.00
H147   H     0.84080   0.39420   0.48630   0.00000  Uiso   1.00
C148   C     0.75193   0.42307   0.48690   0.00000  Uiso   1.00
H149   H     0.73430   0.39190   0.56980   0.00000  Uiso   1.00
H150   H     0.77780   0.48500   0.50510   0.00000  Uiso   1.00
C151   C     0.67094   0.38906   0.40280   0.00000  Uiso   1.00
H152   H     0.68610   0.43190   0.33400   0.00000  Uiso   1.00
H153   H     0.65800   0.33540   0.36070   0.00000  Uiso   1.00
C154   C     0.58660   0.36920   0.46630   0.00000  Uiso   1.00
H155   H     0.59650   0.42650   0.48220   0.00000  Uiso   1.00
H156   H     0.58590   0.34590   0.55190   0.00000  Uiso   1.00
C157   C     0.49330   0.31290   0.41940   0.00000  Uiso   1.00
H158   H     0.47920   0.33960   0.35020   0.00000  Uiso   1.00
H159   H     0.47450   0.25330   0.39660   0.00000  Uiso   1.00
C160   C     0.46440   0.32140   0.55330   0.00000  Uiso   1.00
H161   H     0.51680   0.35360   0.60730   0.00000  Uiso   1.00
H162   H     0.44140   0.35800   0.54460   0.00000  Uiso   1.00
C163   C     0.39760   0.24060   0.62820   0.00000  Uiso   1.00
H164   H     0.35140   0.24760   0.65840   0.00000  Uiso   1.00
H165   H     0.42570   0.23510   0.70470   0.00000  Uiso   1.00
N166   N     0.35770   0.15890   0.55000   0.00000  Uiso   1.00
H167   H     0.33360   0.16440   0.47790   0.00000  Uiso   1.00
H168   H     0.39900   0.14960   0.52770   0.00000  Uiso   1.00
H169   H     0.31630   0.11370   0.59710   0.00000  Uiso   1.00
Rb172  Rb    0.76209   0.09241   0.96049   0.00000  Uiso   1.00
Ga173  Ga    0.00702   0.84582   0.28894   0.00000  Uiso   1.00
Ga174  Ga    0.66866   0.15492   0.29917   0.00000  Uiso   1.00
Ga175  Ga    0.00870   0.34558   0.10730   0.00000  Uiso   1.00
Ga176  Ga    0.51168   0.96214   0.13230   0.00000  Uiso   1.00
P177   P     0.81756   0.30768   0.10460   0.00000  Uiso   1.00
P178   P     0.02624   0.34292   0.81621   0.00000  Uiso   1.00
P179   P     0.97681   0.15883   0.09568   0.00000  Uiso   1.00
P180   P     0.52656   0.93272   0.83467   0.00000  Uiso   1.00
F181   F     0.61662   0.08448   0.12880   0.00000  Uiso   1.00
F182   F     0.04841   0.96627   0.33160   0.00000  Uiso   1.00
F183   F     0.01027   0.45291   0.04220   0.00000  Uiso   1.00
O184   O     0.52810   0.01298   0.79280   0.00000  Uiso   1.00
O185   O     0.84834   0.40406   0.12640   0.00000  Uiso   1.00
O186   O     0.74261   0.25343   0.19910   0.00000  Uiso   1.00
O187   O     0.55935   0.94415   0.97550   0.00000  Uiso   1.00
O188   O     0.07631   0.42811   0.73580   0.00000  Uiso   1.00
O189   O     0.78442   0.27766   0.96530   0.00000  Uiso   1.00
O190   O     0.43313   0.84827   0.82000   0.00000  Uiso   1.00
O191   O     0.92793   0.30693   0.83680   0.00000  Uiso   1.00
O192   O     0.95732   0.16734   0.95170   0.00000  Uiso   1.00
O193   O     0.58941   0.92111   0.74740   0.00000  Uiso   1.00
O194   O     0.01132   0.24532   0.16480   0.00000  Uiso   1.00
O195   O     0.04431   0.13437   0.10480   0.00000  Uiso   1.00
O196   O     0.03411   0.27463   0.74310   0.00000  Uiso   1.00
O197   O     0.88639   0.08755   0.15380   0.00000  Uiso   1.00
O198   O     0.06934   0.36100   0.95290   0.00000  Uiso   1.00
O199   O     0.88837   0.28943   0.13900   0.00000  Uiso   1.00
O200   O     0.89479   0.81759   0.24680   0.00000  Uiso   1.00
N201   N     0.18043   0.58693   0.92640   0.00000  Uiso   1.00
H202   H     0.20450   0.62590   0.86140   0.00000  Uiso   1.00
H203   H     0.13700   0.53520   0.89510   0.00000  Uiso   1.00
H204   H     0.15920   0.60580   0.98630   0.00000  Uiso   1.00
C205   C     0.24807   0.57693   0.98690   0.00000  Uiso   1.00
H206   H     0.26570   0.60810   0.06980   0.00000  Uiso   1.00
H207   H     0.22220   0.51500   0.00510   0.00000  Uiso   1.00
C208   C     0.32906   0.61094   0.90280   0.00000  Uiso   1.00
H209   H     0.31390   0.56810   0.83400   0.00000  Uiso   1.00
H210   H     0.34200   0.66460   0.86070   0.00000  Uiso   1.00
C211   C     0.41340   0.63080   0.96630   0.00000  Uiso   1.00
H212   H     0.40350   0.57350   0.98220   0.00000  Uiso   1.00
H213   H     0.41410   0.65410   0.05190   0.00000  Uiso   1.00
C214   C     0.50670   0.68710   0.91940   0.00000  Uiso   1.00
H215   H     0.52080   0.66040   0.85020   0.00000  Uiso   1.00
H216   H     0.52550   0.74670   0.89660   0.00000  Uiso   1.00
C217   C     0.53560   0.67860   0.05330   0.00000  Uiso   1.00
H218   H     0.48320   0.64640   0.10730   0.00000  Uiso   1.00
H219   H     0.55860   0.64200   0.04460   0.00000  Uiso   1.00
C220   C     0.60240   0.75940   0.12820   0.00000  Uiso   1.00
H221   H     0.64860   0.75240   0.15840   0.00000  Uiso   1.00
H222   H     0.57430   0.76490   0.20470   0.00000  Uiso   1.00
N223   N     0.64230   0.84110   0.05000   0.00000  Uiso   1.00
H224   H     0.66640   0.83560   0.97790   0.00000  Uiso   1.00
H225   H     0.60100   0.85040   0.02770   0.00000  Uiso   1.00
H226   H     0.68370   0.88630   0.09710   0.00000  Uiso   1.00
Ga229  Ga    0.05093   0.05093   0.21266   0.00000  Uiso   1.00
P230   P     0.87258   0.87258   0.16255   0.00000  Uiso   1.00
F231   F     0.14686   0.14686   0.30850   0.00000  Uiso   1.00
O232   O     0.95472   0.95472   0.10620   0.00000  Uiso   1.00
O233   O     0.81340   0.81340   0.04750   0.00000  Uiso   1.00
Ga237  Ga    0.94907   0.94907   0.71266   0.00000  Uiso   1.00
P238   P     0.12742   0.12742   0.66255   0.00000  Uiso   1.00
F239   F     0.85314   0.85314   0.80850   0.00000  Uiso   1.00
O240   O     0.04528   0.04528   0.60620   0.00000  Uiso   1.00
O241   O     0.18660   0.18660   0.54750   0.00000  Uiso   1.00
loop_
_geom_bond_atom_site_label_1
_geom_bond_atom_site_label_2
_geom_bond_distance
_geom_bond_site_symmetry_2
_ccdc_geom_bond_type
Rb1    O18     3.172   .     S
Rb1    O21     3.027   .     S
Rb1    P6      3.769   1_556 S
Rb1    P8      3.668   1_556 S
Rb1    F10     3.097   1_556 S
Rb1    O16     3.152   1_455 S
Rb1    O26     3.044   1_556 S
Ga2    F11     1.936   .     S
Ga2    O78     1.848   .     S
Ga2    O197    1.845   .     S
Ga2    O29     1.864   1_545 S
Ga2    O82     1.945   1_545 S
Ga3    F10     2.056   .     S
Ga3    O15     1.846   .     S
Ga3    O76     1.837   .     S
Ga3    O132    1.965   .     S
Ga3    O134    1.837   .     S
Ga4    F12     2.052   .     S
Ga4    O23     1.946   .     S
Ga4    O136    1.847   .     S
Ga4    O27     1.856   1_554 S
Ga4    O28     1.866   1_545 S
Ga5    O70     1.945   .     S
Ga5    O131    1.915   .     S
Ga5    O185    1.911   .     S
Ga5    F10     1.978   1_655 S
Ga5    O16     1.935   1_554 S
Ga5    F183    1.951   1_655 S
P6     O14     1.537   .     A
P6     O15     1.510   .     A
P6     O28     1.542   .     A
P6     Rb1     3.769   1_554 S
P6     O18     1.524   1_554 S
P7     O17     1.533   .     A
P7     O25     1.526   .     A
P7     O27     1.545   .     A
P7     O20     1.545   1_545 S
P8     O26     1.545   .     A
P8     Rb1     3.668   1_554 S
P8     O21     1.541   1_554 A
P8     O23     1.511   1_565 A
P8     O24     1.527   1_565 A
P9     O16     1.527   .     S
P9     O19     1.546   .     A
P9     O22     1.556   .     A
P9     O13     1.510   1_655 A
F10    Rb1     3.097   1_554 S
F10    Ga5     1.978   1_455 S
F11    Ga229   1.945   1_655 A
F12    Ga176   1.951   1_545 S
O13    Ga62    1.945   .     S
O13    P9      1.510   1_455 A
O14    Ga176   1.911   .     S
O16    Rb1     3.152   1_655 S
O16    Ga5     1.935   1_556 S
O17    Ga119   1.915   .     S
O18    Ga117   1.965   .     S
O18    P6      1.524   1_556 S
O19    Ga60    1.837   .     S
O20    Ga117   1.837   .     S
O20    P7      1.545   1_565 S
O21    Ga59    1.848   .     S
O21    P8      1.541   1_556 A
O22    Ga118   1.847   .     S
O23    P8      1.511   1_545 A
O24    Ga229   1.936   .     S
O24    P8      1.527   1_545 A
O25    Ga59    1.945   1_545 S
O26    Ga173   1.845   .     S
O26    Rb1     3.044   1_554 S
O27    Ga4     1.856   1_556 S
O28    Ga4     1.866   1_565 S
O29    P230    1.536   .     S
O29    Ga2     1.864   1_565 S
N30    H31     0.890   .     S
N30    H32     0.890   .     S
N30    H33     0.889   .     S
N30    C34     1.479   .     S
C34    C37     1.513   .     S
C34    H35     0.970   1_556 S
C34    H36     0.971   1_556 S
H35    C34     0.970   1_554 S
H36    C34     0.971   1_554 S
C37    H38     0.970   .     S
C37    H39     0.971   .     S
C37    C40     1.517   .     S
C40    H41     0.971   .     S
C40    C43     1.498   .     S
C40    H42     0.969   1_556 S
H42    C40     0.969   1_554 S
C43    H44     0.970   .     S
C43    H45     0.970   .     S
C43    C46     1.504   1_556 S
C46    H47     0.970   .     S
C46    H48     0.969   .     S
C46    C49     1.501   .     S
C46    C43     1.504   1_554 S
C49    H50     0.970   .     S
C49    H51     0.970   .     S
C49    N52     1.479   .     S
N52    H54     0.889   .     S
N52    H55     0.890   .     S
N52    H53     0.891   1_554 S
H53    N52     0.891   1_556 S
Rb58   P63     3.769   .     S
Rb58   P65     3.668   .     S
Rb58   F67     3.097   .     S
Rb58   O75     3.172   .     S
Rb58   O78     3.027   .     S
Rb58   O83     3.044   .     S
Rb58   O73     3.152   1_655 S
Ga59   F68     1.936   .     S
Ga59   O140    1.845   .     S
Ga59   O25     1.945   1_565 S
Ga59   O86     1.864   1_565 S
Ga60   F67     2.056   .     S
Ga60   O72     1.846   .     S
Ga60   O189    1.965   .     S
Ga60   O191    1.837   .     S
Ga61   F69     2.052   .     S
Ga61   O80     1.946   .     S
Ga61   O84     1.856   .     S
Ga61   O193    1.847   .     S
Ga61   O85     1.866   1_565 S
Ga62   O73     1.935   .     S
Ga62   O128    1.911   .     S
Ga62   O188    1.915   .     S
Ga62   F67     1.978   1_455 S
Ga62   F126    1.951   1_455 S
P63    O71     1.537   .     A
P63    O72     1.510   .     A
P63    O75     1.524   .     A
P63    O85     1.542   .     A
P64    O74     1.533   .     A
P64    O82     1.526   .     A
P64    O84     1.545   .     A
P64    O77     1.545   1_565 S
P65    O78     1.541   .     A
P65    O83     1.545   .     A
P65    O80     1.511   1_545 S
P65    O81     1.527   1_545 S
P66    O73     1.527   .     S
P66    O76     1.546   .     A
P66    O79     1.556   .     A
P66    O70     1.510   1_455 S
F67    Ga62    1.978   1_655 S
F68    Ga237   1.945   1_455 S
F69    Ga119   1.951   1_565 S
O70    P66     1.510   1_655 S
O71    Ga119   1.911   .     S
O73    Rb58    3.152   1_455 S
O74    Ga176   1.915   .     S
O75    Ga174   1.965   .     S
O77    Ga174   1.837   .     S
O77    P64     1.545   1_545 S
O79    Ga175   1.847   .     S
O80    P65     1.511   1_565 S
O81    Ga237   1.936   .     S
O81    P65     1.527   1_565 S
O82    Ga2     1.945   1_565 S
O83    Ga116   1.845   .     S
O85    Ga61    1.866   1_545 S
O86    P238    1.536   .     S
O86    Ga59    1.864   1_545 S
N87    H88     0.890   .     S
N87    H89     0.890   .     S
N87    H90     0.889   .     S
N87    C91     1.479   .     S
C91    H92     0.970   .     S
C91    H93     0.971   .     S
C91    C94     1.513   .     S
C94    H95     0.970   .     S
C94    H96     0.971   .     S
C94    C97     1.517   .     S
C97    H98     0.971   .     S
C97    H99     0.969   .     S
C97    C100    1.498   .     S
C100   H101    0.970   .     S
C100   H102    0.970   .     S
C100   C103    1.504   .     S
C103   H104    0.970   .     S
C103   H105    0.969   .     S
C103   C106    1.501   .     S
C106   H107    0.970   .     S
C106   H108    0.970   .     S
C106   N109    1.479   .     S
N109   H110    0.891   .     S
N109   H111    0.889   .     S
N109   H112    0.890   .     S
Rb115  P120    3.769   .     S
Rb115  P122    3.668   .     S
Rb115  F124    3.097   .     S
Rb115  O132    3.172   .     S
Rb115  O135    3.027   .     S
Rb115  O140    3.044   .     S
Rb115  O130    3.152   1_565 S
Ga116  F125    1.936   .     S
Ga116  O192    1.848   .     S
Ga116  O143    1.864   1_655 S
Ga116  O196    1.945   1_655 S
Ga117  F124    2.056   .     S
Ga117  O129    1.846   .     S
Ga117  O190    1.837   .     S
Ga118  F126    2.052   .     S
Ga118  O137    1.946   .     S
Ga118  O141    1.856   .     S
Ga118  O142    1.866   1_655 S
Ga119  O130    1.935   .     S
Ga119  O184    1.945   .     S
Ga119  F69     1.951   1_545 S
Ga119  F124    1.978   1_545 S
P120   O128    1.537   .     A
P120   O129    1.510   .     A
P120   O132    1.524   .     A
P120   O142    1.542   .     A
P121   O131    1.533   .     A
P121   O139    1.526   .     A
P121   O141    1.545   .     A
P121   O134    1.545   1_655 S
P122   O135    1.541   .     A
P122   O140    1.545   .     A
P122   O137    1.511   1_455 S
P122   O138    1.527   1_455 A
P123   O130    1.527   .     S
P123   O133    1.546   .     A
P123   O136    1.556   .     A
P123   O127    1.510   1_545 A
F124   Ga119   1.978   1_565 S
F125   Ga237   1.945   1_545 A
F126   Ga62    1.951   1_655 S
O127   Ga176   1.945   .     S
O127   P123    1.510   1_565 A
O130   Rb115   3.152   1_545 S
O133   Ga174   1.837   .     S
O134   P121    1.545   1_455 S
O135   Ga173   1.848   .     S
O137   P122    1.511   1_655 S
O138   Ga237   1.936   .     S
O138   P122    1.527   1_655 A
O139   Ga173   1.945   1_655 A
O142   Ga118   1.866   1_455 S
O143   P238    1.536   .     S
O143   Ga116   1.864   1_455 S
N144   H145    0.890   .     S
N144   H146    0.890   .     S
N144   H147    0.889   .     S
N144   C148    1.479   .     S
C148   H149    0.970   .     S
C148   H150    0.971   .     S
C148   C151    1.513   .     S
C151   H152    0.970   .     S
C151   H153    0.971   .     S
C151   C154    1.517   .     S
C154   H155    0.971   .     S
C154   H156    0.969   .     S
C154   C157    1.498   .     S
C157   H158    0.970   .     S
C157   H159    0.970   .     S
C157   C160    1.504   .     S
C160   H161    0.970   .     S
C160   H162    0.969   .     S
C160   C163    1.501   .     S
C163   H164    0.970   .     S
C163   H165    0.970   .     S
C163   N166    1.479   .     S
N166   H167    0.891   .     S
N166   H168    0.889   .     S
N166   H169    0.890   .     S
Rb172  O189    3.172   .     S
Rb172  O192    3.027   .     S
Rb172  P177    3.769   1_556 S
Rb172  P179    3.668   1_556 S
Rb172  F181    3.097   1_556 S
Rb172  O187    3.152   1_545 S
Rb172  O197    3.044   1_556 S
Ga173  F182    1.936   .     S
Ga173  O139    1.945   1_455 A
Ga173  O200    1.864   1_455 S
Ga174  F181    2.056   .     S
Ga174  O186    1.846   .     S
Ga175  F183    2.052   .     S
Ga175  O194    1.946   .     S
Ga175  O198    1.856   1_554 S
Ga175  O199    1.866   1_455 S
Ga176  F12     1.951   1_565 S
Ga176  F181    1.978   1_565 S
Ga176  O187    1.935   1_554 S
P177   O185    1.537   .     A
P177   O186    1.510   .     A
P177   O199    1.542   .     A
P177   Rb172   3.769   1_554 S
P177   O189    1.524   1_554 S
P178   O188    1.533   .     A
P178   O196    1.526   .     A
P178   O198    1.545   .     A
P178   O191    1.545   1_455 S
P179   O197    1.545   .     A
P179   Rb172   3.668   1_554 S
P179   O192    1.541   1_554 S
P179   O194    1.511   1_655 S
P179   O195    1.527   1_655 S
P180   O187    1.527   .     S
P180   O190    1.546   .     A
P180   O193    1.556   .     A
P180   O184    1.510   1_565 S
F181   Rb172   3.097   1_554 S
F181   Ga176   1.978   1_545 S
F182   Ga229   1.945   1_565 S
F183   Ga5     1.951   1_455 S
O184   P180    1.510   1_545 S
O187   Rb172   3.152   1_565 S
O187   Ga176   1.935   1_556 S
O189   P177    1.524   1_556 S
O191   P178    1.545   1_655 S
O192   P179    1.541   1_556 S
O194   P179    1.511   1_455 S
O195   Ga229   1.936   .     S
O195   P179    1.527   1_455 S
O196   Ga116   1.945   1_455 S
O197   Rb172   3.044   1_554 S
O198   Ga175   1.856   1_556 S
O199   Ga175   1.866   1_655 S
O200   P230    1.536   .     S
O200   Ga173   1.864   1_655 S
N201   H202    0.890   .     S
N201   H203    0.890   .     S
N201   H204    0.889   .     S
N201   C205    1.479   .     S
C205   C208    1.513   .     S
C205   H206    0.970   1_556 S
C205   H207    0.971   1_556 S
H206   C205    0.970   1_554 S
H207   C205    0.971   1_554 S
C208   H209    0.970   .     S
C208   H210    0.971   .     S
C208   C211    1.517   .     S
C211   H212    0.971   .     S
C211   C214    1.498   .     S
C211   H213    0.969   1_556 S
H213   C211    0.969   1_554 S
C214   H215    0.970   .     S
C214   H216    0.970   .     S
C214   C217    1.504   1_556 S
C217   H218    0.970   .     S
C217   H219    0.969   .     S
C217   C220    1.501   .     S
C217   C214    1.504   1_554 S
C220   H221    0.970   .     S
C220   H222    0.970   .     S
C220   N223    1.479   .     S
N223   H225    0.889   .     S
N223   H226    0.890   .     S
N223   H224    0.891   1_554 S
H224   N223    0.891   1_556 S
Ga229  F231    1.921   .     S
Ga229  F11     1.945   1_455 A
Ga229  F182    1.945   1_545 S
Ga229  O232    1.982   1_445 A
P230   O232    1.528   .     S
P230   O233    1.556   .     D
O232   Ga229   1.982   1_665 A
Ga237  F239    1.921   .     S
Ga237  F68     1.945   1_655 S
Ga237  F125    1.945   1_565 A
Ga237  O240    1.982   1_665 A
P238   O240    1.528   .     S
P238   O241    1.556   .     D
O240   Ga237   1.982   1_445 A
