data_image0
_cell_length_a       18.633
_cell_length_b       20.399
_cell_length_c       20.852
_cell_angle_alpha    90
_cell_angle_beta     90
_cell_angle_gamma    90

_symmetry_space_group_name_H-M    "P 1"
_symmetry_int_tables_number       1

loop_
  _symmetry_equiv_pos_as_xyz
  'x, y, z'

loop_
  _atom_site_label
  _atom_site_occupancy
  _atom_site_fract_x
  _atom_site_fract_y
  _atom_site_fract_z
  _atom_site_thermal_displace_type
  _atom_site_B_iso_or_equiv
  _atom_site_type_symbol
  Cd1      1.0000 0.82775  0.87196  0.38654  Biso   1.000  Cd
  Cd2      1.0000 0.68851  0.16329  0.36463  Biso   1.000  Cd
  Cd3      1.0000 0.75538  0.03662  0.46170  Biso   1.000  Cd
  Cd4      1.0000 0.19579  0.08593  0.11856  Biso   1.000  Cd
  O1       1.0000 0.67677  0.04346  0.37290  Biso   1.000  O
  O2       1.0000 0.57660  0.09896  0.37070  Biso   1.000  O
  O3       1.0000 0.16496  0.49108  0.11468  Biso   1.000  O
  O4       1.0000 0.06620  0.43427  0.11600  Biso   1.000  O
  O5       1.0000 0.82940  0.89327  0.26350  Biso   1.000  O
  O6       1.0000 0.85500  0.79870  0.30693  Biso   1.000  O
  O7       1.0000 0.70915  0.87700  0.37340  Biso   1.000  O
  O8       1.0000 0.70070  0.93835  0.46129  Biso   1.000  O
  O9       1.0000 0.80510  0.90210  0.02780  Biso   1.000  O
  O10      1.0000 0.84530  0.81860  0.96730  Biso   1.000  O
  O11      1.0000 0.67900  0.49390  0.96080  Biso   1.000  O
  O12      1.0000 0.78950  0.46340  0.95090  Biso   1.000  O
  O13      1.0000 0.20530  0.84290  0.44760  Biso   1.000  O
  O14      1.0000 0.12620  0.89450  0.38670  Biso   1.000  O
  H1       1.0000 0.09700  0.87390  0.41070  Biso   1.000  H
  O15      1.0000 0.30690  0.05860  0.19600  Biso   1.000  O
  O16      1.0000 0.32570  0.64240  0.25570  Biso   1.000  O
  O17      1.0000 0.69790  0.68360  0.20470  Biso   1.000  O
  O18      1.0000 0.61350  0.63890  0.14290  Biso   1.000  O
  H2       1.0000 0.58600  0.66040  0.16770  Biso   1.000  H
  O19      1.0000 0.19050  0.63320  0.18720  Biso   1.000  O
  O20      1.0000 0.35960  0.71309  0.54672  Biso   1.000  O
  O21      1.0000 0.35270  0.62120  0.49600  Biso   1.000  O
  O22      1.0000 0.38040  0.72250  0.20740  Biso   1.000  O
  O23      1.0000 0.20000  0.62760  0.08430  Biso   1.000  O
  O24      1.0000 0.20000  0.01850  0.20030  Biso   1.000  O
  C1       1.0000 0.55420  0.86830  0.39680  Biso   1.000  C
  H3       1.0000 0.57480  0.82830  0.40760  Biso   1.000  H
  C2       1.0000 0.56700  0.98390  0.38110  Biso   1.000  C
  C3       1.0000 0.49330  0.98630  0.36610  Biso   1.000  C
  H4       1.0000 0.47270  0.02640  0.35590  Biso   1.000  H
  C4       1.0000 0.45020  0.93000  0.36620  Biso   1.000  C
  C5       1.0000 0.48120  0.87040  0.38210  Biso   1.000  C
  C6       1.0000 0.60790  0.04650  0.37550  Biso   1.000  C
  C7       1.0000 0.44130  0.80700  0.38110  Biso   1.000  C
  C8       1.0000 0.42090  0.78100  0.32240  Biso   1.000  C
  H5       1.0000 0.43160  0.80310  0.28460  Biso   1.000  H
  C9       1.0000 0.38360  0.72020  0.32040  Biso   1.000  C
  C10      1.0000 0.36770  0.68760  0.37690  Biso   1.000  C
  H6       1.0000 0.34420  0.64740  0.37570  Biso   1.000  H
  C11      1.0000 0.42360  0.77410  0.43790  Biso   1.000  C
  H7       1.0000 0.43650  0.79180  0.47730  Biso   1.000  H
  C12      1.0000 0.09730  0.48770  0.11430  Biso   1.000  C
  C13      1.0000 0.85010  0.83450  0.25860  Biso   1.000  C
  C14      1.0000 0.86680  0.80670  0.19570  Biso   1.000  C
  C15      1.0000 0.84310  0.83770  0.13930  Biso   1.000  C
  H8       1.0000 0.81640  0.87610  0.14220  Biso   1.000  H
  C16      1.0000 0.90780  0.74970  0.19000  Biso   1.000  C
  H9       1.0000 0.92570  0.72960  0.22680  Biso   1.000  H
  C17      1.0000 0.92220  0.72220  0.12970  Biso   1.000  C
  C18      1.0000 0.89750  0.75350  0.07540  Biso   1.000  C
  H10      1.0000 0.90690  0.73520  0.03540  Biso   1.000  H
  C19      1.0000 0.96570  0.66010  0.12500  Biso   1.000  C
  C20      1.0000 0.93550  0.59910  0.10900  Biso   1.000  C
  C21      1.0000 0.97940  0.54550  0.10760  Biso   1.000  C
  H11      1.0000 0.95910  0.50460  0.09970  Biso   1.000  H
  C22      1.0000 0.85900  0.81140  0.07900  Biso   1.000  C
  C23      1.0000 0.83460  0.84730  0.02010  Biso   1.000  C
  C24      1.0000 0.80470  0.62070  0.13250  Biso   1.000  C
  H12      1.0000 0.81820  0.64760  0.16650  Biso   1.000  H
  C25      1.0000 0.73240  0.61180  0.11940  Biso   1.000  C
  C26      1.0000 0.71210  0.57250  0.06760  Biso   1.000  C
  H13      1.0000 0.66380  0.56780  0.05770  Biso   1.000  H
  C27      1.0000 0.76340  0.54040  0.03070  Biso   1.000  C
  C28      1.0000 0.83570  0.55070  0.04460  Biso   1.000  C
  H14      1.0000 0.87030  0.53070  0.01910  Biso   1.000  H
  C29      1.0000 0.37270  0.93720  0.34840  Biso   1.000  C
  C30      1.0000 0.31970  0.90630  0.38460  Biso   1.000  C
  H15      1.0000 0.33180  0.88180  0.42060  Biso   1.000  H
  C31      1.0000 0.24730  0.91280  0.36560  Biso   1.000  C
  C32      1.0000 0.22950  0.95060  0.31350  Biso   1.000  C
  H16      1.0000 0.18160  0.95540  0.30180  Biso   1.000  H
  C33      1.0000 0.28220  0.98140  0.27850  Biso   1.000  C
  C34      1.0000 0.67640  0.91400  0.41180  Biso   1.000  C
  C35      1.0000 0.35360  0.97480  0.29690  Biso   1.000  C
  H17      1.0000 0.38900  0.99640  0.27370  Biso   1.000  H
  C36      1.0000 0.03910  0.66480  0.13500  Biso   1.000  C
  H18      1.0000 0.05890  0.70510  0.14610  Biso   1.000  H
  C37      1.0000 0.08380  0.61070  0.12860  Biso   1.000  C
  C38      1.0000 0.05430  0.54970  0.11740  Biso   1.000  C
  C39      1.0000 0.85770  0.59040  0.09590  Biso   1.000  C
  C40      1.0000 0.74270  0.49620  0.97640  Biso   1.000  C
  C41      1.0000 0.19090  0.87880  0.40400  Biso   1.000  C
  C42      1.0000 0.59670  0.92360  0.39590  Biso   1.000  C
  C43      1.0000 0.38670  0.71490  0.43540  Biso   1.000  C
  C44      1.0000 0.26150  0.02300  0.22140  Biso   1.000  C
  C45      1.0000 0.36240  0.69260  0.25690  Biso   1.000  C
  C46      1.0000 0.36500  0.68120  0.49570  Biso   1.000  C
  C47      1.0000 0.67840  0.64730  0.15960  Biso   1.000  C
  C48      1.0000 0.16320  0.62280  0.13530  Biso   1.000  C
  Cd5      1.0000 0.67225  0.12804  0.88654  Biso   1.000  Cd
  Cd6      1.0000 0.81149  0.83671  0.86463  Biso   1.000  Cd
  Cd7      1.0000 0.74462  0.96338  0.96170  Biso   1.000  Cd
  Cd8      1.0000 0.30421  0.91407  0.61856  Biso   1.000  Cd
  O25      1.0000 0.82323  0.95654  0.87290  Biso   1.000  O
  O26      1.0000 0.92340  0.90104  0.87070  Biso   1.000  O
  O27      1.0000 0.33504  0.50892  0.61468  Biso   1.000  O
  O28      1.0000 0.43380  0.56573  0.61600  Biso   1.000  O
  O29      1.0000 0.67060  0.10673  0.76350  Biso   1.000  O
  O30      1.0000 0.64500  0.20130  0.80693  Biso   1.000  O
  O31      1.0000 0.79085  0.12300  0.87340  Biso   1.000  O
  O32      1.0000 0.79930  0.06165  0.96129  Biso   1.000  O
  O33      1.0000 0.69490  0.09790  0.52780  Biso   1.000  O
  O34      1.0000 0.65470  0.18140  0.46730  Biso   1.000  O
  O35      1.0000 0.82100  0.50610  0.46080  Biso   1.000  O
  O36      1.0000 0.71050  0.53660  0.45090  Biso   1.000  O
  O37      1.0000 0.29470  0.15710  0.94760  Biso   1.000  O
  O38      1.0000 0.37380  0.10550  0.88670  Biso   1.000  O
  H19      1.0000 0.40300  0.12610  0.91070  Biso   1.000  H
  O39      1.0000 0.19310  0.94140  0.69600  Biso   1.000  O
  O40      1.0000 0.17430  0.35760  0.75570  Biso   1.000  O
  O41      1.0000 0.80210  0.31640  0.70470  Biso   1.000  O
  O42      1.0000 0.88650  0.36110  0.64290  Biso   1.000  O
  H20      1.0000 0.91400  0.33960  0.66770  Biso   1.000  H
  O43      1.0000 0.30950  0.36680  0.68720  Biso   1.000  O
  O44      1.0000 0.14040  0.28691  0.04672  Biso   1.000  O
  O45      1.0000 0.14730  0.37880  0.99600  Biso   1.000  O
  O46      1.0000 0.11960  0.27750  0.70740  Biso   1.000  O
  O47      1.0000 0.30000  0.37240  0.58430  Biso   1.000  O
  O48      1.0000 0.30000  0.98150  0.70030  Biso   1.000  O
  C49      1.0000 0.94580  0.13170  0.89680  Biso   1.000  C
  H21      1.0000 0.92520  0.17170  0.90760  Biso   1.000  H
  C50      1.0000 0.93300  0.01610  0.88110  Biso   1.000  C
  C51      1.0000 0.00670  0.01370  0.86610  Biso   1.000  C
  H22      1.0000 0.02730  0.97360  0.85590  Biso   1.000  H
  C52      1.0000 0.04980  0.07000  0.86620  Biso   1.000  C
  C53      1.0000 0.01880  0.12960  0.88210  Biso   1.000  C
  C54      1.0000 0.89210  0.95350  0.87550  Biso   1.000  C
  C55      1.0000 0.05870  0.19300  0.88110  Biso   1.000  C
  C56      1.0000 0.07910  0.21900  0.82240  Biso   1.000  C
  H23      1.0000 0.06840  0.19690  0.78460  Biso   1.000  H
  C57      1.0000 0.11640  0.27980  0.82040  Biso   1.000  C
  C58      1.0000 0.13230  0.31240  0.87690  Biso   1.000  C
  H24      1.0000 0.15580  0.35260  0.87570  Biso   1.000  H
  C59      1.0000 0.07640  0.22590  0.93790  Biso   1.000  C
  H25      1.0000 0.06350  0.20820  0.97730  Biso   1.000  H
  C60      1.0000 0.40270  0.51230  0.61430  Biso   1.000  C
  C61      1.0000 0.64990  0.16550  0.75860  Biso   1.000  C
  C62      1.0000 0.63320  0.19330  0.69570  Biso   1.000  C
  C63      1.0000 0.65690  0.16230  0.63930  Biso   1.000  C
  H26      1.0000 0.68360  0.12390  0.64220  Biso   1.000  H
  C64      1.0000 0.59220  0.25030  0.69000  Biso   1.000  C
  H27      1.0000 0.57430  0.27040  0.72680  Biso   1.000  H
  C65      1.0000 0.57780  0.27780  0.62970  Biso   1.000  C
  C66      1.0000 0.60250  0.24650  0.57540  Biso   1.000  C
  H28      1.0000 0.59310  0.26480  0.53540  Biso   1.000  H
  C67      1.0000 0.53430  0.33990  0.62500  Biso   1.000  C
  C68      1.0000 0.56450  0.40090  0.60900  Biso   1.000  C
  C69      1.0000 0.52060  0.45450  0.60760  Biso   1.000  C
  H29      1.0000 0.54090  0.49540  0.59970  Biso   1.000  H
  C70      1.0000 0.64100  0.18860  0.57900  Biso   1.000  C
  C71      1.0000 0.66540  0.15270  0.52010  Biso   1.000  C
  C72      1.0000 0.69530  0.37930  0.63250  Biso   1.000  C
  H30      1.0000 0.68180  0.35240  0.66650  Biso   1.000  H
  C73      1.0000 0.76760  0.38820  0.61940  Biso   1.000  C
  C74      1.0000 0.78790  0.42750  0.56760  Biso   1.000  C
  H31      1.0000 0.83620  0.43220  0.55770  Biso   1.000  H
  C75      1.0000 0.73660  0.45960  0.53070  Biso   1.000  C
  C76      1.0000 0.66430  0.44930  0.54460  Biso   1.000  C
  H32      1.0000 0.62970  0.46930  0.51910  Biso   1.000  H
  C77      1.0000 0.12730  0.06280  0.84840  Biso   1.000  C
  C78      1.0000 0.18030  0.09370  0.88460  Biso   1.000  C
  H33      1.0000 0.16820  0.11820  0.92060  Biso   1.000  H
  C79      1.0000 0.25270  0.08720  0.86560  Biso   1.000  C
  C80      1.0000 0.27050  0.04940  0.81350  Biso   1.000  C
  H34      1.0000 0.31840  0.04460  0.80180  Biso   1.000  H
  C81      1.0000 0.21780  0.01860  0.77850  Biso   1.000  C
  C82      1.0000 0.82360  0.08600  0.91180  Biso   1.000  C
  C83      1.0000 0.14640  0.02520  0.79690  Biso   1.000  C
  H35      1.0000 0.11100  0.00360  0.77370  Biso   1.000  H
  C84      1.0000 0.46090  0.33520  0.63500  Biso   1.000  C
  H36      1.0000 0.44110  0.29490  0.64610  Biso   1.000  H
  C85      1.0000 0.41620  0.38930  0.62860  Biso   1.000  C
  C86      1.0000 0.44570  0.45030  0.61740  Biso   1.000  C
  C87      1.0000 0.64230  0.40960  0.59590  Biso   1.000  C
  C88      1.0000 0.75730  0.50380  0.47640  Biso   1.000  C
  C89      1.0000 0.30910  0.12120  0.90400  Biso   1.000  C
  C90      1.0000 0.90330  0.07640  0.89590  Biso   1.000  C
  C91      1.0000 0.11330  0.28510  0.93540  Biso   1.000  C
  C92      1.0000 0.23850  0.97700  0.72140  Biso   1.000  C
  C93      1.0000 0.13760  0.30740  0.75690  Biso   1.000  C
  C94      1.0000 0.13500  0.31880  0.99570  Biso   1.000  C
  C95      1.0000 0.82160  0.35270  0.65960  Biso   1.000  C
  C96      1.0000 0.33680  0.37720  0.63530  Biso   1.000  C
  Cd9      1.0000 0.17225  0.37196  0.11346  Biso   1.000  Cd
  Cd10     1.0000 0.31149  0.66329  0.13537  Biso   1.000  Cd
  Cd11     1.0000 0.24462  0.53662  0.03830  Biso   1.000  Cd
  Cd12     1.0000 0.80421  0.58593  0.38144  Biso   1.000  Cd
  O49      1.0000 0.32323  0.54346  0.12710  Biso   1.000  O
  O50      1.0000 0.42340  0.59896  0.12930  Biso   1.000  O
  O51      1.0000 0.83504  0.99108  0.38532  Biso   1.000  O
  O52      1.0000 0.93380  0.93427  0.38400  Biso   1.000  O
  O53      1.0000 0.17060  0.39327  0.23650  Biso   1.000  O
  O54      1.0000 0.14500  0.29870  0.19307  Biso   1.000  O
  O55      1.0000 0.29085  0.37700  0.12660  Biso   1.000  O
  O56      1.0000 0.29930  0.43835  0.03871  Biso   1.000  O
  O57      1.0000 0.19490  0.40210  0.47220  Biso   1.000  O
  O58      1.0000 0.15470  0.31860  0.53270  Biso   1.000  O
  O59      1.0000 0.32100  0.99390  0.53920  Biso   1.000  O
  O60      1.0000 0.21050  0.96340  0.54910  Biso   1.000  O
  O61      1.0000 0.79470  0.34290  0.05240  Biso   1.000  O
  O62      1.0000 0.87380  0.39450  0.11330  Biso   1.000  O
  H37      1.0000 0.90300  0.37390  0.08930  Biso   1.000  H
  O63      1.0000 0.69310  0.55860  0.30400  Biso   1.000  O
  O64      1.0000 0.67430  0.14240  0.24430  Biso   1.000  O
  O65      1.0000 0.30210  0.18360  0.29530  Biso   1.000  O
  O66      1.0000 0.38650  0.13890  0.35710  Biso   1.000  O
  H38      1.0000 0.41400  0.16040  0.33230  Biso   1.000  H
  O67      1.0000 0.80950  0.13320  0.31280  Biso   1.000  O
  O68      1.0000 0.64040  0.21309  0.95328  Biso   1.000  O
  O69      1.0000 0.64730  0.12120  0.00400  Biso   1.000  O
  O70      1.0000 0.61960  0.22250  0.29260  Biso   1.000  O
  O71      1.0000 0.80000  0.12760  0.41570  Biso   1.000  O
  O72      1.0000 0.80000  0.51850  0.29970  Biso   1.000  O
  C97      1.0000 0.44580  0.36830  0.10320  Biso   1.000  C
  H39      1.0000 0.42520  0.32830  0.09240  Biso   1.000  H
  C98      1.0000 0.43300  0.48390  0.11890  Biso   1.000  C
  C99      1.0000 0.50670  0.48630  0.13390  Biso   1.000  C
  H40      1.0000 0.52730  0.52640  0.14410  Biso   1.000  H
  C100     1.0000 0.54980  0.43000  0.13380  Biso   1.000  C
  C101     1.0000 0.51880  0.37040  0.11790  Biso   1.000  C
  C102     1.0000 0.39210  0.54650  0.12450  Biso   1.000  C
  C103     1.0000 0.55870  0.30700  0.11890  Biso   1.000  C
  C104     1.0000 0.57910  0.28100  0.17760  Biso   1.000  C
  H41      1.0000 0.56840  0.30310  0.21540  Biso   1.000  H
  C105     1.0000 0.61640  0.22020  0.17960  Biso   1.000  C
  C106     1.0000 0.63230  0.18760  0.12310  Biso   1.000  C
  H42      1.0000 0.65580  0.14740  0.12430  Biso   1.000  H
  C107     1.0000 0.57640  0.27410  0.06210  Biso   1.000  C
  H43      1.0000 0.56350  0.29180  0.02270  Biso   1.000  H
  C108     1.0000 0.90270  0.98770  0.38570  Biso   1.000  C
  C109     1.0000 0.14990  0.33450  0.24140  Biso   1.000  C
  C110     1.0000 0.13320  0.30670  0.30430  Biso   1.000  C
  C111     1.0000 0.15690  0.33770  0.36070  Biso   1.000  C
  H44      1.0000 0.18360  0.37610  0.35780  Biso   1.000  H
  C112     1.0000 0.09220  0.24970  0.31000  Biso   1.000  C
  H45      1.0000 0.07430  0.22960  0.27320  Biso   1.000  H
  C113     1.0000 0.07780  0.22220  0.37030  Biso   1.000  C
  C114     1.0000 0.10250  0.25350  0.42460  Biso   1.000  C
  H46      1.0000 0.09310  0.23520  0.46460  Biso   1.000  H
  C115     1.0000 0.03430  0.16010  0.37500  Biso   1.000  C
  C116     1.0000 0.06450  0.09910  0.39100  Biso   1.000  C
  C117     1.0000 0.02060  0.04550  0.39240  Biso   1.000  C
  H47      1.0000 0.04090  0.00460  0.40030  Biso   1.000  H
  C118     1.0000 0.14100  0.31140  0.42100  Biso   1.000  C
  C119     1.0000 0.16540  0.34730  0.47990  Biso   1.000  C
  C120     1.0000 0.19530  0.12070  0.36750  Biso   1.000  C
  H48      1.0000 0.18180  0.14760  0.33350  Biso   1.000  H
  C121     1.0000 0.26760  0.11180  0.38060  Biso   1.000  C
  C122     1.0000 0.28790  0.07250  0.43240  Biso   1.000  C
  H49      1.0000 0.33620  0.06780  0.44230  Biso   1.000  H
  C123     1.0000 0.23660  0.04040  0.46930  Biso   1.000  C
  C124     1.0000 0.16430  0.05070  0.45540  Biso   1.000  C
  H50      1.0000 0.12970  0.03070  0.48090  Biso   1.000  H
  C125     1.0000 0.62730  0.43720  0.15160  Biso   1.000  C
  C126     1.0000 0.68030  0.40630  0.11540  Biso   1.000  C
  H51      1.0000 0.66820  0.38180  0.07940  Biso   1.000  H
  C127     1.0000 0.75270  0.41280  0.13440  Biso   1.000  C
  C128     1.0000 0.77050  0.45060  0.18650  Biso   1.000  C
  H52      1.0000 0.81840  0.45540  0.19820  Biso   1.000  H
  C129     1.0000 0.71780  0.48140  0.22150  Biso   1.000  C
  C130     1.0000 0.32360  0.41400  0.08820  Biso   1.000  C
  C131     1.0000 0.64640  0.47480  0.20310  Biso   1.000  C
  H53      1.0000 0.61100  0.49640  0.22630  Biso   1.000  H
  C132     1.0000 0.96090  0.16480  0.36500  Biso   1.000  C
  H54      1.0000 0.94110  0.20510  0.35390  Biso   1.000  H
  C133     1.0000 0.91620  0.11070  0.37140  Biso   1.000  C
  C134     1.0000 0.94570  0.04970  0.38260  Biso   1.000  C
  C135     1.0000 0.14230  0.09040  0.40410  Biso   1.000  C
  C136     1.0000 0.25730  0.99620  0.52360  Biso   1.000  C
  C137     1.0000 0.80910  0.37880  0.09600  Biso   1.000  C
  C138     1.0000 0.40330  0.42360  0.10410  Biso   1.000  C
  C139     1.0000 0.61330  0.21490  0.06460  Biso   1.000  C
  C140     1.0000 0.73850  0.52300  0.27860  Biso   1.000  C
  C141     1.0000 0.63760  0.19260  0.24310  Biso   1.000  C
  C142     1.0000 0.63500  0.18120  0.00430  Biso   1.000  C
  C143     1.0000 0.32160  0.14730  0.34040  Biso   1.000  C
  C144     1.0000 0.83680  0.12280  0.36470  Biso   1.000  C
  Cd13     1.0000 0.32775  0.62804  0.61346  Biso   1.000  Cd
  Cd14     1.0000 0.18851  0.33671  0.63537  Biso   1.000  Cd
  Cd15     1.0000 0.25538  0.46338  0.53830  Biso   1.000  Cd
  Cd16     1.0000 0.69579  0.41407  0.88144  Biso   1.000  Cd
  O73      1.0000 0.17677  0.45654  0.62710  Biso   1.000  O
  O74      1.0000 0.07660  0.40104  0.62930  Biso   1.000  O
  O75      1.0000 0.66496  0.00892  0.88532  Biso   1.000  O
  O76      1.0000 0.56620  0.06573  0.88400  Biso   1.000  O
  O77      1.0000 0.32940  0.60673  0.73650  Biso   1.000  O
  O78      1.0000 0.35500  0.70130  0.69307  Biso   1.000  O
  O79      1.0000 0.20915  0.62300  0.62660  Biso   1.000  O
  O80      1.0000 0.20070  0.56165  0.53871  Biso   1.000  O
  O81      1.0000 0.30510  0.59790  0.97220  Biso   1.000  O
  O82      1.0000 0.34530  0.68140  0.03270  Biso   1.000  O
  O83      1.0000 0.17900  0.00610  0.03920  Biso   1.000  O
  O84      1.0000 0.28950  0.03660  0.04910  Biso   1.000  O
  O85      1.0000 0.70530  0.65710  0.55240  Biso   1.000  O
  O86      1.0000 0.62620  0.60550  0.61330  Biso   1.000  O
  H55      1.0000 0.59700  0.62610  0.58930  Biso   1.000  H
  O87      1.0000 0.80690  0.44140  0.80400  Biso   1.000  O
  O88      1.0000 0.82570  0.85760  0.74430  Biso   1.000  O
  O89      1.0000 0.19790  0.81640  0.79530  Biso   1.000  O
  O90      1.0000 0.11350  0.86110  0.85710  Biso   1.000  O
  H56      1.0000 0.08600  0.83960  0.83230  Biso   1.000  H
  O91      1.0000 0.69050  0.86680  0.81280  Biso   1.000  O
  O92      1.0000 0.85960  0.78691  0.45328  Biso   1.000  O
  O93      1.0000 0.85270  0.87880  0.50400  Biso   1.000  O
  O94      1.0000 0.88040  0.77750  0.79260  Biso   1.000  O
  O95      1.0000 0.70000  0.87240  0.91570  Biso   1.000  O
  O96      1.0000 0.70000  0.48150  0.79970  Biso   1.000  O
  C145     1.0000 0.05420  0.63170  0.60320  Biso   1.000  C
  H57      1.0000 0.07480  0.67170  0.59240  Biso   1.000  H
  C146     1.0000 0.06700  0.51610  0.61890  Biso   1.000  C
  C147     1.0000 0.99330  0.51370  0.63390  Biso   1.000  C
  H58      1.0000 0.97270  0.47360  0.64410  Biso   1.000  H
  C148     1.0000 0.95020  0.57000  0.63380  Biso   1.000  C
  C149     1.0000 0.98120  0.62960  0.61790  Biso   1.000  C
  C150     1.0000 0.10790  0.45350  0.62450  Biso   1.000  C
  C151     1.0000 0.94130  0.69300  0.61890  Biso   1.000  C
  C152     1.0000 0.92090  0.71900  0.67760  Biso   1.000  C
  H59      1.0000 0.93160  0.69690  0.71540  Biso   1.000  H
  C153     1.0000 0.88360  0.77980  0.67960  Biso   1.000  C
  C154     1.0000 0.86770  0.81240  0.62310  Biso   1.000  C
  H60      1.0000 0.84420  0.85260  0.62430  Biso   1.000  H
  C155     1.0000 0.92360  0.72590  0.56210  Biso   1.000  C
  H61      1.0000 0.93650  0.70820  0.52270  Biso   1.000  H
  C156     1.0000 0.59730  0.01230  0.88570  Biso   1.000  C
  C157     1.0000 0.35010  0.66550  0.74140  Biso   1.000  C
  C158     1.0000 0.36680  0.69330  0.80430  Biso   1.000  C
  C159     1.0000 0.34310  0.66230  0.86070  Biso   1.000  C
  H62      1.0000 0.31640  0.62390  0.85780  Biso   1.000  H
  C160     1.0000 0.40780  0.75030  0.81000  Biso   1.000  C
  H63      1.0000 0.42570  0.77040  0.77320  Biso   1.000  H
  C161     1.0000 0.42220  0.77780  0.87030  Biso   1.000  C
  C162     1.0000 0.39750  0.74650  0.92460  Biso   1.000  C
  H64      1.0000 0.40690  0.76480  0.96460  Biso   1.000  H
  C163     1.0000 0.46570  0.83990  0.87500  Biso   1.000  C
  C164     1.0000 0.43550  0.90090  0.89100  Biso   1.000  C
  C165     1.0000 0.47940  0.95450  0.89240  Biso   1.000  C
  H65      1.0000 0.45910  0.99540  0.90030  Biso   1.000  H
  C166     1.0000 0.35900  0.68860  0.92100  Biso   1.000  C
  C167     1.0000 0.33460  0.65270  0.97990  Biso   1.000  C
  C168     1.0000 0.30470  0.87930  0.86750  Biso   1.000  C
  H66      1.0000 0.31820  0.85240  0.83350  Biso   1.000  H
  C169     1.0000 0.23240  0.88820  0.88060  Biso   1.000  C
  C170     1.0000 0.21210  0.92750  0.93240  Biso   1.000  C
  H67      1.0000 0.16380  0.93220  0.94230  Biso   1.000  H
  C171     1.0000 0.26340  0.95960  0.96930  Biso   1.000  C
  C172     1.0000 0.33570  0.94930  0.95540  Biso   1.000  C
  H68      1.0000 0.37030  0.96930  0.98090  Biso   1.000  H
  C173     1.0000 0.87270  0.56280  0.65160  Biso   1.000  C
  C174     1.0000 0.81970  0.59370  0.61540  Biso   1.000  C
  H69      1.0000 0.83180  0.61820  0.57940  Biso   1.000  H
  C175     1.0000 0.74730  0.58720  0.63440  Biso   1.000  C
  C176     1.0000 0.72950  0.54940  0.68650  Biso   1.000  C
  H70      1.0000 0.68160  0.54460  0.69820  Biso   1.000  H
  C177     1.0000 0.78220  0.51860  0.72150  Biso   1.000  C
  C178     1.0000 0.17640  0.58600  0.58820  Biso   1.000  C
  C179     1.0000 0.85360  0.52520  0.70310  Biso   1.000  C
  H71      1.0000 0.88900  0.50360  0.72630  Biso   1.000  H
  C180     1.0000 0.53910  0.83520  0.86500  Biso   1.000  C
  H72      1.0000 0.55890  0.79490  0.85390  Biso   1.000  H
  C181     1.0000 0.58380  0.88930  0.87140  Biso   1.000  C
  C182     1.0000 0.55430  0.95030  0.88260  Biso   1.000  C
  C183     1.0000 0.35770  0.90960  0.90410  Biso   1.000  C
  C184     1.0000 0.24270  0.00380  0.02360  Biso   1.000  C
  C185     1.0000 0.69090  0.62120  0.59600  Biso   1.000  C
  C186     1.0000 0.09670  0.57640  0.60410  Biso   1.000  C
  C187     1.0000 0.88670  0.78510  0.56460  Biso   1.000  C
  C188     1.0000 0.76150  0.47700  0.77860  Biso   1.000  C
  C189     1.0000 0.86240  0.80740  0.74310  Biso   1.000  C
  C190     1.0000 0.86500  0.81880  0.50430  Biso   1.000  C
  C191     1.0000 0.17840  0.85270  0.84040  Biso   1.000  C
  C192     1.0000 0.66320  0.87720  0.86470  Biso   1.000  C
