data_image0
_cell_length_a       31.019
_cell_length_b       7.1857
_cell_length_c       8.103
_cell_angle_alpha    90
_cell_angle_beta     96.038
_cell_angle_gamma    90

_symmetry_space_group_name_H-M    "P 1"
_symmetry_int_tables_number       1

loop_
  _symmetry_equiv_pos_as_xyz
  'x, y, z'

loop_
  _atom_site_label
  _atom_site_occupancy
  _atom_site_fract_x
  _atom_site_fract_y
  _atom_site_fract_z
  _atom_site_thermal_displace_type
  _atom_site_B_iso_or_equiv
  _atom_site_type_symbol
  Mo1      1.0000 0.13035  0.98200  0.05151  Biso   1.000  Mo
  Mn1      1.0000 0.14778  0.47970  0.55880  Biso   1.000  Mn
  C1       1.0000 0.07530  0.81300  0.06700  Biso   1.000  C
  C2       1.0000 0.07670  0.16400  0.99400  Biso   1.000  C
  C3       1.0000 0.13930  0.18200  0.86100  Biso   1.000  C
  C4       1.0000 0.13660  0.17900  0.25600  Biso   1.000  C
  C5       1.0000 0.14770  0.79500  0.25800  Biso   1.000  C
  C6       1.0000 0.14650  0.80300  0.85600  Biso   1.000  C
  C7       1.0000 0.20070  0.01300  0.08300  Biso   1.000  C
  N1       1.0000 0.04690  0.70500  0.06530  Biso   1.000  N
  N2       1.0000 0.04890  0.26800  0.97600  Biso   1.000  N
  N3       1.0000 0.14200  0.28600  0.75500  Biso   1.000  N
  N4       1.0000 0.15620  0.27500  0.36650  Biso   1.000  N
  N5       1.0000 0.13920  0.69100  0.36400  Biso   1.000  N
  N6       1.0000 0.15720  0.70400  0.75570  Biso   1.000  N
  N7       1.0000 0.23700  0.95100  0.10060  Biso   1.000  N
  K1       1.0000 0.19472  0.48260  0.09130  Biso   1.000  K
  Mo2      1.0000 0.63035  0.48200  0.05151  Biso   1.000  Mo
  Mn2      1.0000 0.64778  0.97970  0.55880  Biso   1.000  Mn
  C8       1.0000 0.57530  0.31300  0.06700  Biso   1.000  C
  C9       1.0000 0.57670  0.66400  0.99400  Biso   1.000  C
  C10      1.0000 0.63930  0.68200  0.86100  Biso   1.000  C
  C11      1.0000 0.63660  0.67900  0.25600  Biso   1.000  C
  C12      1.0000 0.64770  0.29500  0.25800  Biso   1.000  C
  C13      1.0000 0.64650  0.30300  0.85600  Biso   1.000  C
  C14      1.0000 0.70070  0.51300  0.08300  Biso   1.000  C
  N8       1.0000 0.54690  0.20500  0.06530  Biso   1.000  N
  N9       1.0000 0.54890  0.76800  0.97600  Biso   1.000  N
  N10      1.0000 0.64200  0.78600  0.75500  Biso   1.000  N
  N11      1.0000 0.65620  0.77500  0.36650  Biso   1.000  N
  N12      1.0000 0.63920  0.19100  0.36400  Biso   1.000  N
  N13      1.0000 0.65720  0.20400  0.75570  Biso   1.000  N
  N14      1.0000 0.73700  0.45100  0.10060  Biso   1.000  N
  K2       1.0000 0.69472  0.98260  0.09130  Biso   1.000  K
  Mo3      1.0000 0.86965  0.98200  0.94849  Biso   1.000  Mo
  Mn3      1.0000 0.85222  0.47970  0.44120  Biso   1.000  Mn
  C15      1.0000 0.92470  0.81300  0.93300  Biso   1.000  C
  C16      1.0000 0.92330  0.16400  0.00600  Biso   1.000  C
  C17      1.0000 0.86070  0.18200  0.13900  Biso   1.000  C
  C18      1.0000 0.86340  0.17900  0.74400  Biso   1.000  C
  C19      1.0000 0.85230  0.79500  0.74200  Biso   1.000  C
  C20      1.0000 0.85350  0.80300  0.14400  Biso   1.000  C
  C21      1.0000 0.79930  0.01300  0.91700  Biso   1.000  C
  N15      1.0000 0.95310  0.70500  0.93470  Biso   1.000  N
  N16      1.0000 0.95110  0.26800  0.02400  Biso   1.000  N
  N17      1.0000 0.85800  0.28600  0.24500  Biso   1.000  N
  N18      1.0000 0.84380  0.27500  0.63350  Biso   1.000  N
  N19      1.0000 0.86080  0.69100  0.63600  Biso   1.000  N
  N20      1.0000 0.84280  0.70400  0.24430  Biso   1.000  N
  N21      1.0000 0.76300  0.95100  0.89940  Biso   1.000  N
  K3       1.0000 0.80528  0.48260  0.90870  Biso   1.000  K
  Mo4      1.0000 0.36965  0.48200  0.94849  Biso   1.000  Mo
  Mn4      1.0000 0.35222  0.97970  0.44120  Biso   1.000  Mn
  C22      1.0000 0.42470  0.31300  0.93300  Biso   1.000  C
  C23      1.0000 0.42330  0.66400  0.00600  Biso   1.000  C
  C24      1.0000 0.36070  0.68200  0.13900  Biso   1.000  C
  C25      1.0000 0.36340  0.67900  0.74400  Biso   1.000  C
  C26      1.0000 0.35230  0.29500  0.74200  Biso   1.000  C
  C27      1.0000 0.35350  0.30300  0.14400  Biso   1.000  C
  C28      1.0000 0.29930  0.51300  0.91700  Biso   1.000  C
  N22      1.0000 0.45310  0.20500  0.93470  Biso   1.000  N
  N23      1.0000 0.45110  0.76800  0.02400  Biso   1.000  N
  N24      1.0000 0.35800  0.78600  0.24500  Biso   1.000  N
  N25      1.0000 0.34380  0.77500  0.63350  Biso   1.000  N
  N26      1.0000 0.36080  0.19100  0.63600  Biso   1.000  N
  N27      1.0000 0.34280  0.20400  0.24430  Biso   1.000  N
  N28      1.0000 0.26300  0.45100  0.89940  Biso   1.000  N
  K4       1.0000 0.30528  0.98260  0.90870  Biso   1.000  K
  Mn5      1.0000 0.00000  0.48660  0.00000  Biso   1.000  Mn
  Mn6      1.0000 0.50000  0.98660  0.00000  Biso   1.000  Mn
