data_image0
_cell_length_a       10.039
_cell_length_b       17.3885
_cell_length_c       16.7356
_cell_angle_alpha    90
_cell_angle_beta     90
_cell_angle_gamma    90

_symmetry_space_group_name_H-M    "P 1"
_symmetry_int_tables_number       1

loop_
  _symmetry_equiv_pos_as_xyz
  'x, y, z'

loop_
  _atom_site_label
  _atom_site_occupancy
  _atom_site_fract_x
  _atom_site_fract_y
  _atom_site_fract_z
  _atom_site_thermal_displace_type
  _atom_site_B_iso_or_equiv
  _atom_site_type_symbol
  Ga1      1.0000 0.26470  0.57850  0.91670  Biso   1.000  Ga
  Mn1      1.0000 0.81130  0.72970  0.91670  Biso   1.000  Mn
  P1       1.0000 0.47990  0.69940  0.92420  Biso   1.000  P
  P2       1.0000 0.19080  0.41040  0.90930  Biso   1.000  P
  P3       1.0000 0.78900  0.60980  0.75770  Biso   1.000  P
  O1       1.0000 0.43450  0.61310  0.92520  Biso   1.000  O
  O2       1.0000 0.48370  0.72340  0.83430  Biso   1.000  O
  O3       1.0000 0.61880  0.70230  0.95980  Biso   1.000  O
  O4       1.0000 0.37910  0.74970  0.96560  Biso   1.000  O
  O5       1.0000 0.29700  0.47590  0.90820  Biso   1.000  O
  O6       1.0000 0.15690  0.39670  0.99890  Biso   1.000  O
  O7       1.0000 0.25610  0.34000  0.87320  Biso   1.000  O
  O8       1.0000 0.06590  0.43600  0.86800  Biso   1.000  O
  O9       1.0000 0.63750  0.58930  0.75930  Biso   1.000  O
  O10      1.0000 0.82710  0.61970  0.66760  Biso   1.000  O
  O11      1.0000 0.86200  0.54150  0.79270  Biso   1.000  O
  O12      1.0000 0.81360  0.68550  0.79820  Biso   1.000  O
  Ga2      1.0000 0.76470  0.07850  0.91670  Biso   1.000  Ga
  Mn2      1.0000 0.31130  0.22970  0.91670  Biso   1.000  Mn
  P4       1.0000 0.97990  0.19940  0.92420  Biso   1.000  P
  P5       1.0000 0.69080  0.91040  0.90930  Biso   1.000  P
  P6       1.0000 0.28900  0.10980  0.75770  Biso   1.000  P
  O13      1.0000 0.93450  0.11310  0.92520  Biso   1.000  O
  O14      1.0000 0.98370  0.22340  0.83430  Biso   1.000  O
  O15      1.0000 0.11880  0.20230  0.95980  Biso   1.000  O
  O16      1.0000 0.87910  0.24970  0.96560  Biso   1.000  O
  O17      1.0000 0.79700  0.97590  0.90820  Biso   1.000  O
  O18      1.0000 0.65690  0.89670  0.99890  Biso   1.000  O
  O19      1.0000 0.75610  0.84000  0.87320  Biso   1.000  O
  O20      1.0000 0.56590  0.93600  0.86800  Biso   1.000  O
  O21      1.0000 0.13750  0.08930  0.75930  Biso   1.000  O
  O22      1.0000 0.32710  0.11970  0.66760  Biso   1.000  O
  O23      1.0000 0.36200  0.04150  0.79270  Biso   1.000  O
  O24      1.0000 0.31360  0.18550  0.79820  Biso   1.000  O
  Ga3      1.0000 0.73530  0.42150  0.41670  Biso   1.000  Ga
  Mn3      1.0000 0.18870  0.27030  0.41670  Biso   1.000  Mn
  P7       1.0000 0.52010  0.30060  0.42420  Biso   1.000  P
  P8       1.0000 0.80920  0.58960  0.40930  Biso   1.000  P
  P9       1.0000 0.21100  0.39020  0.25770  Biso   1.000  P
  O25      1.0000 0.56550  0.38690  0.42520  Biso   1.000  O
  O26      1.0000 0.51630  0.27660  0.33430  Biso   1.000  O
  O27      1.0000 0.38120  0.29770  0.45980  Biso   1.000  O
  O28      1.0000 0.62090  0.25030  0.46560  Biso   1.000  O
  O29      1.0000 0.70300  0.52410  0.40820  Biso   1.000  O
  O30      1.0000 0.84310  0.60330  0.49890  Biso   1.000  O
  O31      1.0000 0.74390  0.66000  0.37320  Biso   1.000  O
  O32      1.0000 0.93410  0.56400  0.36800  Biso   1.000  O
  O33      1.0000 0.36250  0.41070  0.25930  Biso   1.000  O
  O34      1.0000 0.17290  0.38030  0.16760  Biso   1.000  O
  O35      1.0000 0.13800  0.45850  0.29270  Biso   1.000  O
  O36      1.0000 0.18640  0.31450  0.29820  Biso   1.000  O
  Ga4      1.0000 0.23530  0.92150  0.41670  Biso   1.000  Ga
  Mn4      1.0000 0.68870  0.77030  0.41670  Biso   1.000  Mn
  P10      1.0000 0.02010  0.80060  0.42420  Biso   1.000  P
  P11      1.0000 0.30920  0.08960  0.40930  Biso   1.000  P
  P12      1.0000 0.71100  0.89020  0.25770  Biso   1.000  P
  O37      1.0000 0.06550  0.88690  0.42520  Biso   1.000  O
  O38      1.0000 0.01630  0.77660  0.33430  Biso   1.000  O
  O39      1.0000 0.88120  0.79770  0.45980  Biso   1.000  O
  O40      1.0000 0.12090  0.75030  0.46560  Biso   1.000  O
  O41      1.0000 0.20300  0.02410  0.40820  Biso   1.000  O
  O42      1.0000 0.34310  0.10330  0.49890  Biso   1.000  O
  O43      1.0000 0.24390  0.16000  0.37320  Biso   1.000  O
  O44      1.0000 0.43410  0.06400  0.36800  Biso   1.000  O
  O45      1.0000 0.86250  0.91070  0.25930  Biso   1.000  O
  O46      1.0000 0.67290  0.88030  0.16760  Biso   1.000  O
  O47      1.0000 0.63800  0.95850  0.29270  Biso   1.000  O
  O48      1.0000 0.68640  0.81450  0.29820  Biso   1.000  O
  Ga5      1.0000 0.73530  0.57850  0.58330  Biso   1.000  Ga
  Mn5      1.0000 0.18870  0.72970  0.58330  Biso   1.000  Mn
  P13      1.0000 0.52010  0.69940  0.57580  Biso   1.000  P
  P14      1.0000 0.80920  0.41040  0.59070  Biso   1.000  P
  P15      1.0000 0.21100  0.60980  0.74230  Biso   1.000  P
  O49      1.0000 0.56550  0.61310  0.57480  Biso   1.000  O
  O50      1.0000 0.51630  0.72340  0.66570  Biso   1.000  O
  O51      1.0000 0.38120  0.70230  0.54020  Biso   1.000  O
  O52      1.0000 0.62090  0.74970  0.53440  Biso   1.000  O
  O53      1.0000 0.70300  0.47590  0.59180  Biso   1.000  O
  O54      1.0000 0.84310  0.39670  0.50110  Biso   1.000  O
  O55      1.0000 0.74390  0.34000  0.62680  Biso   1.000  O
  O56      1.0000 0.93410  0.43600  0.63200  Biso   1.000  O
  O57      1.0000 0.36250  0.58930  0.74070  Biso   1.000  O
  O58      1.0000 0.17290  0.61970  0.83240  Biso   1.000  O
  O59      1.0000 0.13800  0.54150  0.70730  Biso   1.000  O
  O60      1.0000 0.18640  0.68550  0.70180  Biso   1.000  O
  Ga6      1.0000 0.23530  0.07850  0.58330  Biso   1.000  Ga
  Mn6      1.0000 0.68870  0.22970  0.58330  Biso   1.000  Mn
  P16      1.0000 0.02010  0.19940  0.57580  Biso   1.000  P
  P17      1.0000 0.30920  0.91040  0.59070  Biso   1.000  P
  P18      1.0000 0.71100  0.10980  0.74230  Biso   1.000  P
  O61      1.0000 0.06550  0.11310  0.57480  Biso   1.000  O
  O62      1.0000 0.01630  0.22340  0.66570  Biso   1.000  O
  O63      1.0000 0.88120  0.20230  0.54020  Biso   1.000  O
  O64      1.0000 0.12090  0.24970  0.53440  Biso   1.000  O
  O65      1.0000 0.20300  0.97590  0.59180  Biso   1.000  O
  O66      1.0000 0.34310  0.89670  0.50110  Biso   1.000  O
  O67      1.0000 0.24390  0.84000  0.62680  Biso   1.000  O
  O68      1.0000 0.43410  0.93600  0.63200  Biso   1.000  O
  O69      1.0000 0.86250  0.08930  0.74070  Biso   1.000  O
  O70      1.0000 0.67290  0.11970  0.83240  Biso   1.000  O
  O71      1.0000 0.63800  0.04150  0.70730  Biso   1.000  O
  O72      1.0000 0.68640  0.18550  0.70180  Biso   1.000  O
  Ga7      1.0000 0.26470  0.42150  0.08330  Biso   1.000  Ga
  Mn7      1.0000 0.81130  0.27030  0.08330  Biso   1.000  Mn
  P19      1.0000 0.47990  0.30060  0.07580  Biso   1.000  P
  P20      1.0000 0.19080  0.58960  0.09070  Biso   1.000  P
  P21      1.0000 0.78900  0.39020  0.24230  Biso   1.000  P
  O73      1.0000 0.43450  0.38690  0.07480  Biso   1.000  O
  O74      1.0000 0.48370  0.27660  0.16570  Biso   1.000  O
  O75      1.0000 0.61880  0.29770  0.04020  Biso   1.000  O
  O76      1.0000 0.37910  0.25030  0.03440  Biso   1.000  O
  O77      1.0000 0.29700  0.52410  0.09180  Biso   1.000  O
  O78      1.0000 0.15690  0.60330  0.00110  Biso   1.000  O
  O79      1.0000 0.25610  0.66000  0.12680  Biso   1.000  O
  O80      1.0000 0.06590  0.56400  0.13200  Biso   1.000  O
  O81      1.0000 0.63750  0.41070  0.24070  Biso   1.000  O
  O82      1.0000 0.82710  0.38030  0.33240  Biso   1.000  O
  O83      1.0000 0.86200  0.45850  0.20730  Biso   1.000  O
  O84      1.0000 0.81360  0.31450  0.20180  Biso   1.000  O
  Ga8      1.0000 0.76470  0.92150  0.08330  Biso   1.000  Ga
  Mn8      1.0000 0.31130  0.77030  0.08330  Biso   1.000  Mn
  P22      1.0000 0.97990  0.80060  0.07580  Biso   1.000  P
  P23      1.0000 0.69080  0.08960  0.09070  Biso   1.000  P
  P24      1.0000 0.28900  0.89020  0.24230  Biso   1.000  P
  O85      1.0000 0.93450  0.88690  0.07480  Biso   1.000  O
  O86      1.0000 0.98370  0.77660  0.16570  Biso   1.000  O
  O87      1.0000 0.11880  0.79770  0.04020  Biso   1.000  O
  O88      1.0000 0.87910  0.75030  0.03440  Biso   1.000  O
  O89      1.0000 0.79700  0.02410  0.09180  Biso   1.000  O
  O90      1.0000 0.65690  0.10330  0.00110  Biso   1.000  O
  O91      1.0000 0.75610  0.16000  0.12680  Biso   1.000  O
  O92      1.0000 0.56590  0.06400  0.13200  Biso   1.000  O
  O93      1.0000 0.13750  0.91070  0.24070  Biso   1.000  O
  O94      1.0000 0.32710  0.88030  0.33240  Biso   1.000  O
  O95      1.0000 0.36200  0.95850  0.20730  Biso   1.000  O
  O96      1.0000 0.31360  0.81450  0.20180  Biso   1.000  O
  Ga9      1.0000 0.50000  0.65710  0.75000  Biso   1.000  Ga
  Ga10     1.0000 0.00000  0.15710  0.75000  Biso   1.000  Ga
  Ga11     1.0000 0.50000  0.34290  0.25000  Biso   1.000  Ga
  Ga12     1.0000 0.00000  0.84290  0.25000  Biso   1.000  Ga
  Mn9      1.0000 0.00000  0.45920  0.75000  Biso   1.000  Mn
  Mn10     1.0000 0.50000  0.95920  0.75000  Biso   1.000  Mn
  Mn11     1.0000 0.00000  0.54080  0.25000  Biso   1.000  Mn
  Mn12     1.0000 0.50000  0.04080  0.25000  Biso   1.000  Mn
