data_image0
_cell_length_a       10.039
_cell_length_b       17.401
_cell_length_c       16.503
_cell_angle_alpha    90
_cell_angle_beta     90
_cell_angle_gamma    90

_symmetry_space_group_name_H-M    "P 1"
_symmetry_int_tables_number       1

loop_
  _symmetry_equiv_pos_as_xyz
  'x, y, z'

loop_
  _atom_site_label
  _atom_site_occupancy
  _atom_site_fract_x
  _atom_site_fract_y
  _atom_site_fract_z
  _atom_site_thermal_displace_type
  _atom_site_B_iso_or_equiv
  _atom_site_type_symbol
  Ga1      1.0000 0.26070  0.57990  0.91670  Biso   1.000  Ga
  Mn1      1.0000 0.80340  0.73270  0.91650  Biso   1.000  Mn
  P1       1.0000 0.47860  0.70020  0.92650  Biso   1.000  P
  P2       1.0000 0.18860  0.41070  0.90670  Biso   1.000  P
  P3       1.0000 0.78990  0.61100  0.76000  Biso   1.000  P
  O1       1.0000 0.42950  0.61490  0.92720  Biso   1.000  O
  O2       1.0000 0.48020  0.72560  0.83640  Biso   1.000  O
  O3       1.0000 0.61950  0.70110  0.96020  Biso   1.000  O
  O4       1.0000 0.38190  0.75270  0.96790  Biso   1.000  O
  O5       1.0000 0.29290  0.47870  0.90480  Biso   1.000  O
  O6       1.0000 0.15270  0.39740  0.99720  Biso   1.000  O
  O7       1.0000 0.25630  0.34090  0.87090  Biso   1.000  O
  O8       1.0000 0.06360  0.43210  0.86270  Biso   1.000  O
  O9       1.0000 0.63580  0.59420  0.76040  Biso   1.000  O
  O10      1.0000 0.82920  0.62250  0.66960  Biso   1.000  O
  O11      1.0000 0.86020  0.54260  0.79430  Biso   1.000  O
  O12      1.0000 0.82020  0.68450  0.80230  Biso   1.000  O
  Ga2      1.0000 0.76070  0.07990  0.91670  Biso   1.000  Ga
  Mn2      1.0000 0.30340  0.23270  0.91650  Biso   1.000  Mn
  P4       1.0000 0.97860  0.20020  0.92650  Biso   1.000  P
  P5       1.0000 0.68860  0.91070  0.90670  Biso   1.000  P
  P6       1.0000 0.28990  0.11100  0.76000  Biso   1.000  P
  O13      1.0000 0.92950  0.11490  0.92720  Biso   1.000  O
  O14      1.0000 0.98020  0.22560  0.83640  Biso   1.000  O
  O15      1.0000 0.11950  0.20110  0.96020  Biso   1.000  O
  O16      1.0000 0.88190  0.25270  0.96790  Biso   1.000  O
  O17      1.0000 0.79290  0.97870  0.90480  Biso   1.000  O
  O18      1.0000 0.65270  0.89740  0.99720  Biso   1.000  O
  O19      1.0000 0.75630  0.84090  0.87090  Biso   1.000  O
  O20      1.0000 0.56360  0.93210  0.86270  Biso   1.000  O
  O21      1.0000 0.13580  0.09420  0.76040  Biso   1.000  O
  O22      1.0000 0.32920  0.12250  0.66960  Biso   1.000  O
  O23      1.0000 0.36020  0.04260  0.79430  Biso   1.000  O
  O24      1.0000 0.32020  0.18450  0.80230  Biso   1.000  O
  Ga3      1.0000 0.73930  0.42010  0.41670  Biso   1.000  Ga
  Mn3      1.0000 0.19660  0.26730  0.41650  Biso   1.000  Mn
  P7       1.0000 0.52140  0.29980  0.42650  Biso   1.000  P
  P8       1.0000 0.81140  0.58930  0.40670  Biso   1.000  P
  P9       1.0000 0.21010  0.38900  0.26000  Biso   1.000  P
  O25      1.0000 0.57050  0.38510  0.42720  Biso   1.000  O
  O26      1.0000 0.51980  0.27440  0.33640  Biso   1.000  O
  O27      1.0000 0.38050  0.29890  0.46020  Biso   1.000  O
  O28      1.0000 0.61810  0.24730  0.46790  Biso   1.000  O
  O29      1.0000 0.70710  0.52130  0.40480  Biso   1.000  O
  O30      1.0000 0.84730  0.60260  0.49720  Biso   1.000  O
  O31      1.0000 0.74370  0.65910  0.37090  Biso   1.000  O
  O32      1.0000 0.93640  0.56790  0.36270  Biso   1.000  O
  O33      1.0000 0.36420  0.40580  0.26040  Biso   1.000  O
  O34      1.0000 0.17080  0.37750  0.16960  Biso   1.000  O
  O35      1.0000 0.13980  0.45740  0.29430  Biso   1.000  O
  O36      1.0000 0.17980  0.31550  0.30230  Biso   1.000  O
  Ga4      1.0000 0.23930  0.92010  0.41670  Biso   1.000  Ga
  Mn4      1.0000 0.69660  0.76730  0.41650  Biso   1.000  Mn
  P10      1.0000 0.02140  0.79980  0.42650  Biso   1.000  P
  P11      1.0000 0.31140  0.08930  0.40670  Biso   1.000  P
  P12      1.0000 0.71010  0.88900  0.26000  Biso   1.000  P
  O37      1.0000 0.07050  0.88510  0.42720  Biso   1.000  O
  O38      1.0000 0.01980  0.77440  0.33640  Biso   1.000  O
  O39      1.0000 0.88050  0.79890  0.46020  Biso   1.000  O
  O40      1.0000 0.11810  0.74730  0.46790  Biso   1.000  O
  O41      1.0000 0.20710  0.02130  0.40480  Biso   1.000  O
  O42      1.0000 0.34730  0.10260  0.49720  Biso   1.000  O
  O43      1.0000 0.24370  0.15910  0.37090  Biso   1.000  O
  O44      1.0000 0.43640  0.06790  0.36270  Biso   1.000  O
  O45      1.0000 0.86420  0.90580  0.26040  Biso   1.000  O
  O46      1.0000 0.67080  0.87750  0.16960  Biso   1.000  O
  O47      1.0000 0.63980  0.95740  0.29430  Biso   1.000  O
  O48      1.0000 0.67980  0.81550  0.30230  Biso   1.000  O
  Ga5      1.0000 0.73930  0.57990  0.58330  Biso   1.000  Ga
  Mn5      1.0000 0.19660  0.73270  0.58350  Biso   1.000  Mn
  P13      1.0000 0.52140  0.70020  0.57350  Biso   1.000  P
  P14      1.0000 0.81140  0.41070  0.59330  Biso   1.000  P
  P15      1.0000 0.21010  0.61100  0.74000  Biso   1.000  P
  O49      1.0000 0.57050  0.61490  0.57280  Biso   1.000  O
  O50      1.0000 0.51980  0.72560  0.66360  Biso   1.000  O
  O51      1.0000 0.38050  0.70110  0.53980  Biso   1.000  O
  O52      1.0000 0.61810  0.75270  0.53210  Biso   1.000  O
  O53      1.0000 0.70710  0.47870  0.59520  Biso   1.000  O
  O54      1.0000 0.84730  0.39740  0.50280  Biso   1.000  O
  O55      1.0000 0.74370  0.34090  0.62910  Biso   1.000  O
  O56      1.0000 0.93640  0.43210  0.63730  Biso   1.000  O
  O57      1.0000 0.36420  0.59420  0.73960  Biso   1.000  O
  O58      1.0000 0.17080  0.62250  0.83040  Biso   1.000  O
  O59      1.0000 0.13980  0.54260  0.70570  Biso   1.000  O
  O60      1.0000 0.17980  0.68450  0.69770  Biso   1.000  O
  Ga6      1.0000 0.23930  0.07990  0.58330  Biso   1.000  Ga
  Mn6      1.0000 0.69660  0.23270  0.58350  Biso   1.000  Mn
  P16      1.0000 0.02140  0.20020  0.57350  Biso   1.000  P
  P17      1.0000 0.31140  0.91070  0.59330  Biso   1.000  P
  P18      1.0000 0.71010  0.11100  0.74000  Biso   1.000  P
  O61      1.0000 0.07050  0.11490  0.57280  Biso   1.000  O
  O62      1.0000 0.01980  0.22560  0.66360  Biso   1.000  O
  O63      1.0000 0.88050  0.20110  0.53980  Biso   1.000  O
  O64      1.0000 0.11810  0.25270  0.53210  Biso   1.000  O
  O65      1.0000 0.20710  0.97870  0.59520  Biso   1.000  O
  O66      1.0000 0.34730  0.89740  0.50280  Biso   1.000  O
  O67      1.0000 0.24370  0.84090  0.62910  Biso   1.000  O
  O68      1.0000 0.43640  0.93210  0.63730  Biso   1.000  O
  O69      1.0000 0.86420  0.09420  0.73960  Biso   1.000  O
  O70      1.0000 0.67080  0.12250  0.83040  Biso   1.000  O
  O71      1.0000 0.63980  0.04260  0.70570  Biso   1.000  O
  O72      1.0000 0.67980  0.18450  0.69770  Biso   1.000  O
  Ga7      1.0000 0.26070  0.42010  0.08330  Biso   1.000  Ga
  Mn7      1.0000 0.80340  0.26730  0.08350  Biso   1.000  Mn
  P19      1.0000 0.47860  0.29980  0.07350  Biso   1.000  P
  P20      1.0000 0.18860  0.58930  0.09330  Biso   1.000  P
  P21      1.0000 0.78990  0.38900  0.24000  Biso   1.000  P
  O73      1.0000 0.42950  0.38510  0.07280  Biso   1.000  O
  O74      1.0000 0.48020  0.27440  0.16360  Biso   1.000  O
  O75      1.0000 0.61950  0.29890  0.03980  Biso   1.000  O
  O76      1.0000 0.38190  0.24730  0.03210  Biso   1.000  O
  O77      1.0000 0.29290  0.52130  0.09520  Biso   1.000  O
  O78      1.0000 0.15270  0.60260  0.00280  Biso   1.000  O
  O79      1.0000 0.25630  0.65910  0.12910  Biso   1.000  O
  O80      1.0000 0.06360  0.56790  0.13730  Biso   1.000  O
  O81      1.0000 0.63580  0.40580  0.23960  Biso   1.000  O
  O82      1.0000 0.82920  0.37750  0.33040  Biso   1.000  O
  O83      1.0000 0.86020  0.45740  0.20570  Biso   1.000  O
  O84      1.0000 0.82020  0.31550  0.19770  Biso   1.000  O
  Ga8      1.0000 0.76070  0.92010  0.08330  Biso   1.000  Ga
  Mn8      1.0000 0.30340  0.76730  0.08350  Biso   1.000  Mn
  P22      1.0000 0.97860  0.79980  0.07350  Biso   1.000  P
  P23      1.0000 0.68860  0.08930  0.09330  Biso   1.000  P
  P24      1.0000 0.28990  0.88900  0.24000  Biso   1.000  P
  O85      1.0000 0.92950  0.88510  0.07280  Biso   1.000  O
  O86      1.0000 0.98020  0.77440  0.16360  Biso   1.000  O
  O87      1.0000 0.11950  0.79890  0.03980  Biso   1.000  O
  O88      1.0000 0.88190  0.74730  0.03210  Biso   1.000  O
  O89      1.0000 0.79290  0.02130  0.09520  Biso   1.000  O
  O90      1.0000 0.65270  0.10260  0.00280  Biso   1.000  O
  O91      1.0000 0.75630  0.15910  0.12910  Biso   1.000  O
  O92      1.0000 0.56360  0.06790  0.13730  Biso   1.000  O
  O93      1.0000 0.13580  0.90580  0.23960  Biso   1.000  O
  O94      1.0000 0.32920  0.87750  0.33040  Biso   1.000  O
  O95      1.0000 0.36020  0.95740  0.20570  Biso   1.000  O
  O96      1.0000 0.32020  0.81550  0.19770  Biso   1.000  O
  Ga9      1.0000 0.50000  0.65980  0.75000  Biso   1.000  Ga
  Ga10     1.0000 0.00000  0.15980  0.75000  Biso   1.000  Ga
  Ga11     1.0000 0.50000  0.34020  0.25000  Biso   1.000  Ga
  Ga12     1.0000 0.00000  0.84020  0.25000  Biso   1.000  Ga
  Mn9      1.0000 0.00000  0.46490  0.75000  Biso   1.000  Mn
  Mn10     1.0000 0.50000  0.96490  0.75000  Biso   1.000  Mn
  Mn11     1.0000 0.00000  0.53510  0.25000  Biso   1.000  Mn
  Mn12     1.0000 0.50000  0.03510  0.25000  Biso   1.000  Mn
