data_XUWVUG_clean_h
_audit_creation_date              2014-07-02
_audit_creation_method            'Materials Studio'
_symmetry_space_group_name_H-M    'P1'
_symmetry_Int_Tables_number       1
_symmetry_cell_setting            triclinic
loop_
_symmetry_equiv_pos_as_xyz
  x,y,z
_cell_length_a                    3.6890
_cell_length_b                    17.6400
_cell_length_c                    12.3850
_cell_angle_alpha                 91.2470
_cell_angle_beta                  90.0000
_cell_angle_gamma                 90.0000
loop_
_atom_site_label
_atom_site_type_symbol
_atom_site_fract_x
_atom_site_fract_y
_atom_site_fract_z
_atom_site_U_iso_or_equiv
_atom_site_adp_type
_atom_site_occupancy
Eu1    Eu    0.75000   0.90510   0.44850   0.01267  Uiso   1.00
Eu2    Eu    0.25000   0.73270   0.29050   0.01267  Uiso   1.00
Eu3    Eu    0.75000   0.54080   0.36880   0.01267  Uiso   1.00
Eu4    Eu    0.25000   0.09490   0.55150   0.01267  Uiso   1.00
Eu5    Eu    0.75000   0.26730   0.70950   0.01267  Uiso   1.00
Eu6    Eu    0.25000   0.45920   0.63120   0.01267  Uiso   1.00
C1     C     0.64000   0.72600   0.71800   0.01267  Uiso   1.00
C2     C     0.54500   0.58800   0.73300   0.01267  Uiso   1.00
C3     C     0.77000   0.86200   0.69700   0.01267  Uiso   1.00
C4     C     0.83000   0.72600   0.94100   0.01267  Uiso   1.00
C5     C     0.73000   0.66300   0.88600   0.01267  Uiso   1.00
C6     C     0.87000   0.79500   0.87000   0.01267  Uiso   1.00
C7     C     0.85400   0.78700   0.75900   0.01267  Uiso   1.00
C8     C     0.58500   0.66400   0.78100   0.01267  Uiso   1.00
C9     C     0.98000   0.73800   0.04100   0.01267  Uiso   1.00
C10    C     0.14000   0.27400   0.28200   0.01267  Uiso   1.00
C11    C     0.04500   0.41200   0.26700   0.01267  Uiso   1.00
C12    C     0.27000   0.13800   0.30300   0.01267  Uiso   1.00
C13    C     0.33000   0.27400   0.05900   0.01267  Uiso   1.00
C14    C     0.23000   0.33700   0.11400   0.01267  Uiso   1.00
C15    C     0.37000   0.20500   0.13000   0.01267  Uiso   1.00
C16    C     0.35400   0.21300   0.24100   0.01267  Uiso   1.00
C17    C     0.08500   0.33600   0.21900   0.01267  Uiso   1.00
C18    C     0.48000   0.26200   0.95900   0.01267  Uiso   1.00
O1     O     0.73500   0.04800   0.44600   0.01267  Uiso   1.00
O2     O     0.25000   0.59600   0.28100   0.01267  Uiso   1.00
O3     O     0.75500   0.82900   0.28400   0.01267  Uiso   1.00
O4     O     0.23500   0.81300   0.45600   0.01267  Uiso   1.00
O5     O     0.75500   0.68500   0.39400   0.01267  Uiso   1.00
O6     O     0.80500   0.54300   0.70100   0.01267  Uiso   1.00
O7     O     0.24000   0.94900   0.32200   0.01267  Uiso   1.00
O8     O     0.19000   0.79400   0.07500   0.01267  Uiso   1.00
O9     O     0.66000   0.84900   0.60900   0.01267  Uiso   1.00
O10    O     0.28000   0.55300   0.77900   0.01267  Uiso   1.00
O11    O     0.25000   0.56100   0.49600   0.01267  Uiso   1.00
O12    O     0.79500   0.71400   0.13000   0.01267  Uiso   1.00
O13    O     0.60500   0.91200   0.76000   0.01267  Uiso   1.00
O14    O     0.23500   0.95200   0.55400   0.01267  Uiso   1.00
O15    O     0.75000   0.40400   0.71900   0.01267  Uiso   1.00
O16    O     0.25500   0.17100   0.71600   0.01267  Uiso   1.00
O17    O     0.73500   0.18700   0.54400   0.01267  Uiso   1.00
O18    O     0.25500   0.31500   0.60600   0.01267  Uiso   1.00
O19    O     0.30500   0.45700   0.29900   0.01267  Uiso   1.00
O20    O     0.74000   0.05100   0.67800   0.01267  Uiso   1.00
O21    O     0.69000   0.20600   0.92500   0.01267  Uiso   1.00
O22    O     0.16000   0.15100   0.39100   0.01267  Uiso   1.00
O23    O     0.78000   0.44700   0.22100   0.01267  Uiso   1.00
O24    O     0.75000   0.43900   0.50400   0.01267  Uiso   1.00
O25    O     0.29500   0.28600   0.87000   0.01267  Uiso   1.00
O26    O     0.10500   0.08800   0.24000   0.01267  Uiso   1.00
H1     H     0.51656   0.72895   0.63381   0.01267  Uiso   1.00
H2     H     0.76107   0.60516   0.92425   0.01267  Uiso   1.00
H3     H     0.91337   0.85358   0.90853   0.01267  Uiso   1.00
H4     H     0.01656   0.27105   0.36619   0.01267  Uiso   1.00
H5     H     0.26107   0.39484   0.07575   0.01267  Uiso   1.00
H6     H     0.41337   0.14642   0.09147   0.01267  Uiso   1.00
