data_XUYDIF_clean
_audit_creation_date              2014-07-02
_audit_creation_method            'Materials Studio'
_symmetry_space_group_name_H-M    'P1'
_symmetry_Int_Tables_number       1
_symmetry_cell_setting            triclinic
loop_
_symmetry_equiv_pos_as_xyz
  x,y,z
_cell_length_a                    9.5990
_cell_length_b                    11.0250
_cell_length_c                    12.5710
_cell_angle_alpha                 86.3280
_cell_angle_beta                  81.7050
_cell_angle_gamma                 79.8340
loop_
_atom_site_label
_atom_site_type_symbol
_atom_site_fract_x
_atom_site_fract_y
_atom_site_fract_z
_atom_site_U_iso_or_equiv
_atom_site_adp_type
_atom_site_occupancy
Cd1    Cd    0.82571   0.48714   0.97605   0.01267  Uiso   1.00
Cd2    Cd    0.67544   0.64951   0.71479   0.01267  Uiso   1.00
Cd3    Cd    0.17429   0.51286   0.02395   0.01267  Uiso   1.00
Cd4    Cd    0.32456   0.35049   0.28521   0.01267  Uiso   1.00
H1     H     0.93820   0.26000   0.14880   0.01267  Uiso   1.00
H2     H     0.91410   0.06030   0.20410   0.01267  Uiso   1.00
H3     H     0.81570   0.94580   0.10040   0.01267  Uiso   1.00
H4     H     0.72340   0.03670   0.94910   0.01267  Uiso   1.00
H5     H     0.37650   0.41910   0.68640   0.01267  Uiso   1.00
H6     H     0.26890   0.41710   0.53490   0.01267  Uiso   1.00
H7     H     0.62520   0.26830   0.37440   0.01267  Uiso   1.00
H8     H     0.73840   0.25120   0.52560   0.01267  Uiso   1.00
H9     H     0.86860   0.06520   0.69660   0.01267  Uiso   1.00
H10    H     0.85210   0.86760   0.65100   0.01267  Uiso   1.00
H11    H     0.45560   0.90920   0.77330   0.01267  Uiso   1.00
H12    H     0.45290   0.11140   0.81640   0.01267  Uiso   1.00
H13    H     0.06180   0.74000   0.85120   0.01267  Uiso   1.00
H14    H     0.08590   0.93970   0.79590   0.01267  Uiso   1.00
H15    H     0.18430   0.05420   0.89960   0.01267  Uiso   1.00
H16    H     0.27660   0.96330   0.05090   0.01267  Uiso   1.00
H17    H     0.62350   0.58090   0.31360   0.01267  Uiso   1.00
H18    H     0.73110   0.58290   0.46510   0.01267  Uiso   1.00
H19    H     0.37480   0.73170   0.62560   0.01267  Uiso   1.00
H20    H     0.26160   0.74880   0.47440   0.01267  Uiso   1.00
H21    H     0.13140   0.93480   0.30340   0.01267  Uiso   1.00
H22    H     0.14790   0.13240   0.34900   0.01267  Uiso   1.00
H23    H     0.54440   0.09080   0.22670   0.01267  Uiso   1.00
H24    H     0.54710   0.88860   0.18360   0.01267  Uiso   1.00
C1     C     0.89470   0.21470   0.10730   0.01267  Uiso   1.00
C2     C     0.88160   0.09420   0.14070   0.01267  Uiso   1.00
C3     C     0.82160   0.02770   0.08080   0.01267  Uiso   1.00
C4     C     0.76870   0.08110   0.99000   0.01267  Uiso   1.00
C5     C     0.78320   0.19930   0.96040   0.01267  Uiso   1.00
C6     C     0.73430   0.27130   0.86420   0.01267  Uiso   1.00
C7     C     0.64050   0.33410   0.71990   0.01267  Uiso   1.00
C8     C     0.56890   0.33480   0.62260   0.01267  Uiso   1.00
C9     C     0.42910   0.38500   0.62410   0.01267  Uiso   1.00
C10    C     0.36560   0.38500   0.53220   0.01267  Uiso   1.00
C11    C     0.57310   0.29610   0.43910   0.01267  Uiso   1.00
C12    C     0.64300   0.28790   0.52900   0.01267  Uiso   1.00
C13    C     0.66230   0.10800   0.75910   0.01267  Uiso   1.00
C14    C     0.78260   0.03580   0.71170   0.01267  Uiso   1.00
C15    C     0.77240   0.91670   0.68660   0.01267  Uiso   1.00
C16    C     0.53950   0.94180   0.75740   0.01267  Uiso   1.00
C17    C     0.53570   0.06340   0.78390   0.01267  Uiso   1.00
C18    C     0.10530   0.78530   0.89270   0.01267  Uiso   1.00
C19    C     0.11840   0.90580   0.85930   0.01267  Uiso   1.00
C20    C     0.17840   0.97230   0.91920   0.01267  Uiso   1.00
C21    C     0.23130   0.91890   0.01000   0.01267  Uiso   1.00
C22    C     0.21680   0.80070   0.03960   0.01267  Uiso   1.00
C23    C     0.26570   0.72870   0.13580   0.01267  Uiso   1.00
C24    C     0.35950   0.66590   0.28010   0.01267  Uiso   1.00
C25    C     0.43110   0.66520   0.37740   0.01267  Uiso   1.00
C26    C     0.57090   0.61500   0.37590   0.01267  Uiso   1.00
C27    C     0.63440   0.61500   0.46780   0.01267  Uiso   1.00
C28    C     0.42690   0.70390   0.56090   0.01267  Uiso   1.00
C29    C     0.35700   0.71210   0.47100   0.01267  Uiso   1.00
C30    C     0.33770   0.89200   0.24090   0.01267  Uiso   1.00
C31    C     0.21740   0.96420   0.28830   0.01267  Uiso   1.00
C32    C     0.22760   0.08330   0.31340   0.01267  Uiso   1.00
C33    C     0.46050   0.05820   0.24260   0.01267  Uiso   1.00
C34    C     0.46430   0.93660   0.21610   0.01267  Uiso   1.00
N1     N     0.84760   0.26760   0.01840   0.01267  Uiso   1.00
N2     N     0.73580   0.38740   0.84990   0.01267  Uiso   1.00
N3     N     0.67800   0.42850   0.75720   0.01267  Uiso   1.00
N4     N     0.67200   0.23210   0.78420   0.01267  Uiso   1.00
N5     N     0.43620   0.34150   0.44100   0.01267  Uiso   1.00
N6     N     0.65250   0.87120   0.71200   0.01267  Uiso   1.00
N7     N     0.05920   0.43960   0.90030   0.01267  Uiso   1.00
N8     N     0.10220   0.35800   0.84560   0.01267  Uiso   1.00
N9     N     0.14280   0.27340   0.79140   0.01267  Uiso   1.00
N10    N     0.75880   0.66310   0.88120   0.01267  Uiso   1.00
N11    N     0.69210   0.74480   0.93570   0.01267  Uiso   1.00
N12    N     0.62820   0.82220   0.98570   0.01267  Uiso   1.00
N13    N     0.88820   0.61990   0.61350   0.01267  Uiso   1.00
N14    N     0.99490   0.61150   0.63990   0.01267  Uiso   1.00
N15    N     0.10750   0.60800   0.66390   0.01267  Uiso   1.00
N16    N     0.55030   0.33290   0.19000   0.01267  Uiso   1.00
N17    N     0.58750   0.41800   0.14390   0.01267  Uiso   1.00
N18    N     0.62400   0.50640   0.09900   0.01267  Uiso   1.00
N19    N     0.15240   0.73240   0.98160   0.01267  Uiso   1.00
N20    N     0.26420   0.61260   0.15010   0.01267  Uiso   1.00
N21    N     0.32200   0.57150   0.24280   0.01267  Uiso   1.00
N22    N     0.32800   0.76790   0.21580   0.01267  Uiso   1.00
N23    N     0.56380   0.65850   0.55900   0.01267  Uiso   1.00
N24    N     0.34750   0.12880   0.28800   0.01267  Uiso   1.00
N25    N     0.94080   0.56040   0.09970   0.01267  Uiso   1.00
N26    N     0.89780   0.64200   0.15440   0.01267  Uiso   1.00
N27    N     0.85720   0.72660   0.20860   0.01267  Uiso   1.00
N28    N     0.24120   0.33690   0.11880   0.01267  Uiso   1.00
N29    N     0.30790   0.25520   0.06430   0.01267  Uiso   1.00
N30    N     0.37180   0.17780   0.01430   0.01267  Uiso   1.00
N31    N     0.11180   0.38010   0.38650   0.01267  Uiso   1.00
N32    N     0.00510   0.38850   0.36010   0.01267  Uiso   1.00
N33    N     0.89250   0.39200   0.33610   0.01267  Uiso   1.00
N34    N     0.44970   0.66710   0.81000   0.01267  Uiso   1.00
N35    N     0.41250   0.58200   0.85610   0.01267  Uiso   1.00
N36    N     0.37600   0.49360   0.90100   0.01267  Uiso   1.00
