data_image0
_cell_length_a       16.6995
_cell_length_b       16.7106
_cell_length_c       9.7907
_cell_angle_alpha    90
_cell_angle_beta     90
_cell_angle_gamma    90

_symmetry_space_group_name_H-M    "P 1"
_symmetry_int_tables_number       1

loop_
  _symmetry_equiv_pos_as_xyz
  'x, y, z'

loop_
  _atom_site_label
  _atom_site_occupancy
  _atom_site_fract_x
  _atom_site_fract_y
  _atom_site_fract_z
  _atom_site_thermal_displace_type
  _atom_site_B_iso_or_equiv
  _atom_site_type_symbol
  Na1      1.0000 0.86190  0.68650  0.82830  Biso   1.000  Na
  O1       1.0000 0.92580  0.79600  0.70160  Biso   1.000  O
  Na2      1.0000 0.36190  0.18650  0.32830  Biso   1.000  Na
  O2       1.0000 0.42580  0.29600  0.20160  Biso   1.000  O
  Na3      1.0000 0.13810  0.81350  0.82830  Biso   1.000  Na
  O3       1.0000 0.07420  0.70400  0.70160  Biso   1.000  O
  Na4      1.0000 0.63810  0.31350  0.32830  Biso   1.000  Na
  O4       1.0000 0.57420  0.20400  0.20160  Biso   1.000  O
  Na5      1.0000 0.13810  0.18650  0.17170  Biso   1.000  Na
  O5       1.0000 0.07420  0.29600  0.29840  Biso   1.000  O
  Na6      1.0000 0.63810  0.68650  0.67170  Biso   1.000  Na
  O6       1.0000 0.57420  0.79600  0.79840  Biso   1.000  O
  Na7      1.0000 0.86190  0.31350  0.17170  Biso   1.000  Na
  O7       1.0000 0.92580  0.20400  0.29840  Biso   1.000  O
  Na8      1.0000 0.36190  0.81350  0.67170  Biso   1.000  Na
  O8       1.0000 0.42580  0.70400  0.79840  Biso   1.000  O
  Na9      1.0000 0.13810  0.31350  0.17170  Biso   1.000  Na
  O9       1.0000 0.07420  0.20400  0.29840  Biso   1.000  O
  Na10     1.0000 0.63810  0.81350  0.67170  Biso   1.000  Na
  O10      1.0000 0.57420  0.70400  0.79840  Biso   1.000  O
  Na11     1.0000 0.86190  0.18650  0.17170  Biso   1.000  Na
  O11      1.0000 0.92580  0.29600  0.29840  Biso   1.000  O
  Na12     1.0000 0.36190  0.68650  0.67170  Biso   1.000  Na
  O12      1.0000 0.42580  0.79600  0.79840  Biso   1.000  O
  Na13     1.0000 0.86190  0.81350  0.82830  Biso   1.000  Na
  O13      1.0000 0.92580  0.70400  0.70160  Biso   1.000  O
  Na14     1.0000 0.36190  0.31350  0.32830  Biso   1.000  Na
  O14      1.0000 0.42580  0.20400  0.20160  Biso   1.000  O
  Na15     1.0000 0.13810  0.68650  0.82830  Biso   1.000  Na
  O15      1.0000 0.07420  0.79600  0.70160  Biso   1.000  O
  Na16     1.0000 0.63810  0.18650  0.32830  Biso   1.000  Na
  O16      1.0000 0.57420  0.29600  0.20160  Biso   1.000  O
  Ho1      1.0000 0.00000  0.75000  0.11987  Biso   1.000  Ho
  Na17     1.0000 0.00000  0.75000  0.50710  Biso   1.000  Na
  Ho2      1.0000 0.50000  0.25000  0.61987  Biso   1.000  Ho
  Na18     1.0000 0.50000  0.25000  0.00710  Biso   1.000  Na
  Ho3      1.0000 0.00000  0.25000  0.88013  Biso   1.000  Ho
  Na19     1.0000 0.00000  0.25000  0.49290  Biso   1.000  Na
  Ho4      1.0000 0.50000  0.75000  0.38013  Biso   1.000  Ho
  Na20     1.0000 0.50000  0.75000  0.99290  Biso   1.000  Na
  O17      1.0000 0.09020  0.75000  0.31000  Biso   1.000  O
  O18      1.0000 0.13600  0.75000  0.05130  Biso   1.000  O
  C1       1.0000 0.16760  0.75000  0.28780  Biso   1.000  C
  C2       1.0000 0.19280  0.75000  0.14220  Biso   1.000  C
  C3       1.0000 0.22530  0.75000  0.39000  Biso   1.000  C
  H1       1.0000 0.20910  0.75000  0.48300  Biso   1.000  H
  O19      1.0000 0.59020  0.25000  0.81000  Biso   1.000  O
  O20      1.0000 0.63600  0.25000  0.55130  Biso   1.000  O
  C4       1.0000 0.66760  0.25000  0.78780  Biso   1.000  C
  C5       1.0000 0.69280  0.25000  0.64220  Biso   1.000  C
  C6       1.0000 0.72530  0.25000  0.89000  Biso   1.000  C
  H2       1.0000 0.70910  0.25000  0.98300  Biso   1.000  H
  O21      1.0000 0.90980  0.75000  0.31000  Biso   1.000  O
  O22      1.0000 0.86400  0.75000  0.05130  Biso   1.000  O
  C7       1.0000 0.83240  0.75000  0.28780  Biso   1.000  C
  C8       1.0000 0.80720  0.75000  0.14220  Biso   1.000  C
  C9       1.0000 0.77470  0.75000  0.39000  Biso   1.000  C
  H3       1.0000 0.79090  0.75000  0.48300  Biso   1.000  H
  O23      1.0000 0.40980  0.25000  0.81000  Biso   1.000  O
  O24      1.0000 0.36400  0.25000  0.55130  Biso   1.000  O
  C10      1.0000 0.33240  0.25000  0.78780  Biso   1.000  C
  C11      1.0000 0.30720  0.25000  0.64220  Biso   1.000  C
  C12      1.0000 0.27470  0.25000  0.89000  Biso   1.000  C
  H4       1.0000 0.29090  0.25000  0.98300  Biso   1.000  H
  O25      1.0000 0.90980  0.25000  0.69000  Biso   1.000  O
  O26      1.0000 0.86400  0.25000  0.94870  Biso   1.000  O
  C13      1.0000 0.83240  0.25000  0.71220  Biso   1.000  C
  C14      1.0000 0.80720  0.25000  0.85780  Biso   1.000  C
  C15      1.0000 0.77470  0.25000  0.61000  Biso   1.000  C
  H5       1.0000 0.79090  0.25000  0.51700  Biso   1.000  H
  O27      1.0000 0.40980  0.75000  0.19000  Biso   1.000  O
  O28      1.0000 0.36400  0.75000  0.44870  Biso   1.000  O
  C16      1.0000 0.33240  0.75000  0.21220  Biso   1.000  C
  C17      1.0000 0.30720  0.75000  0.35780  Biso   1.000  C
  C18      1.0000 0.27470  0.75000  0.11000  Biso   1.000  C
  H6       1.0000 0.29090  0.75000  0.01700  Biso   1.000  H
  O29      1.0000 0.09020  0.25000  0.69000  Biso   1.000  O
  O30      1.0000 0.13600  0.25000  0.94870  Biso   1.000  O
  C19      1.0000 0.16760  0.25000  0.71220  Biso   1.000  C
  C20      1.0000 0.19280  0.25000  0.85780  Biso   1.000  C
  C21      1.0000 0.22530  0.25000  0.61000  Biso   1.000  C
  H7       1.0000 0.20910  0.25000  0.51700  Biso   1.000  H
  O31      1.0000 0.59020  0.75000  0.19000  Biso   1.000  O
  O32      1.0000 0.63600  0.75000  0.44870  Biso   1.000  O
  C22      1.0000 0.66760  0.75000  0.21220  Biso   1.000  C
  C23      1.0000 0.69280  0.75000  0.35780  Biso   1.000  C
  C24      1.0000 0.72530  0.75000  0.11000  Biso   1.000  C
  H8       1.0000 0.70910  0.75000  0.01700  Biso   1.000  H
  O33      1.0000 0.00000  0.61700  0.19560  Biso   1.000  O
  O34      1.0000 0.00000  0.66030  0.93360  Biso   1.000  O
  C25      1.0000 0.00000  0.47800  0.13840  Biso   1.000  C
  C26      1.0000 0.00000  0.58310  0.96110  Biso   1.000  C
  C27      1.0000 0.00000  0.55850  0.10460  Biso   1.000  C
  H9       1.0000 0.00000  0.46340  0.23220  Biso   1.000  H
  O35      1.0000 0.50000  0.11700  0.69560  Biso   1.000  O
  O36      1.0000 0.50000  0.16030  0.43360  Biso   1.000  O
  C28      1.0000 0.50000  0.97800  0.63840  Biso   1.000  C
  C29      1.0000 0.50000  0.08310  0.46110  Biso   1.000  C
  C30      1.0000 0.50000  0.05850  0.60460  Biso   1.000  C
  H10      1.0000 0.50000  0.96340  0.73220  Biso   1.000  H
  O37      1.0000 0.00000  0.88300  0.19560  Biso   1.000  O
  O38      1.0000 0.00000  0.83970  0.93360  Biso   1.000  O
  C31      1.0000 0.00000  0.02200  0.13840  Biso   1.000  C
  C32      1.0000 0.00000  0.91690  0.96110  Biso   1.000  C
  C33      1.0000 0.00000  0.94150  0.10460  Biso   1.000  C
  H11      1.0000 0.00000  0.03660  0.23220  Biso   1.000  H
  O39      1.0000 0.50000  0.38300  0.69560  Biso   1.000  O
  O40      1.0000 0.50000  0.33970  0.43360  Biso   1.000  O
  C34      1.0000 0.50000  0.52200  0.63840  Biso   1.000  C
  C35      1.0000 0.50000  0.41690  0.46110  Biso   1.000  C
  C36      1.0000 0.50000  0.44150  0.60460  Biso   1.000  C
  H12      1.0000 0.50000  0.53660  0.73220  Biso   1.000  H
  O41      1.0000 0.00000  0.11700  0.80440  Biso   1.000  O
  O42      1.0000 0.00000  0.16030  0.06640  Biso   1.000  O
  C37      1.0000 0.00000  0.97800  0.86160  Biso   1.000  C
  C38      1.0000 0.00000  0.08310  0.03890  Biso   1.000  C
  C39      1.0000 0.00000  0.05850  0.89540  Biso   1.000  C
  H13      1.0000 0.00000  0.96340  0.76780  Biso   1.000  H
  O43      1.0000 0.50000  0.61700  0.30440  Biso   1.000  O
  O44      1.0000 0.50000  0.66030  0.56640  Biso   1.000  O
  C40      1.0000 0.50000  0.47800  0.36160  Biso   1.000  C
  C41      1.0000 0.50000  0.58310  0.53890  Biso   1.000  C
  C42      1.0000 0.50000  0.55850  0.39540  Biso   1.000  C
  H14      1.0000 0.50000  0.46340  0.26780  Biso   1.000  H
  O45      1.0000 0.00000  0.38300  0.80440  Biso   1.000  O
  O46      1.0000 0.00000  0.33970  0.06640  Biso   1.000  O
  C43      1.0000 0.00000  0.52200  0.86160  Biso   1.000  C
  C44      1.0000 0.00000  0.41690  0.03890  Biso   1.000  C
  C45      1.0000 0.00000  0.44150  0.89540  Biso   1.000  C
  H15      1.0000 0.00000  0.53660  0.76780  Biso   1.000  H
  O47      1.0000 0.50000  0.88300  0.30440  Biso   1.000  O
  O48      1.0000 0.50000  0.83970  0.56640  Biso   1.000  O
  C46      1.0000 0.50000  0.02200  0.36160  Biso   1.000  C
  C47      1.0000 0.50000  0.91690  0.53890  Biso   1.000  C
  C48      1.0000 0.50000  0.94150  0.39540  Biso   1.000  C
  H16      1.0000 0.50000  0.03660  0.26780  Biso   1.000  H
  O49      1.0000 0.75000  0.75000  0.75000  Biso   1.000  O
  O50      1.0000 0.25000  0.25000  0.25000  Biso   1.000  O
  O51      1.0000 0.25000  0.75000  0.75000  Biso   1.000  O
  O52      1.0000 0.75000  0.25000  0.25000  Biso   1.000  O
