data_image0
_cell_length_a       12.1584
_cell_length_b       12.1584
_cell_length_c       17.8082
_cell_angle_alpha    90
_cell_angle_beta     90
_cell_angle_gamma    90

_symmetry_space_group_name_H-M    "P 1"
_symmetry_int_tables_number       1

loop_
  _symmetry_equiv_pos_as_xyz
  'x, y, z'

loop_
  _atom_site_label
  _atom_site_occupancy
  _atom_site_fract_x
  _atom_site_fract_y
  _atom_site_fract_z
  _atom_site_thermal_displace_type
  _atom_site_B_iso_or_equiv
  _atom_site_type_symbol
  Np1      1.0000 0.39685  0.42142  0.22130  Biso   1.000  Np
  O1       1.0000 0.24630  0.40280  0.20480  Biso   1.000  O
  O2       1.0000 0.41400  0.52180  0.09870  Biso   1.000  O
  O3       1.0000 0.37880  0.62360  0.19730  Biso   1.000  O
  O4       1.0000 0.48850  0.87380  0.84180  Biso   1.000  O
  O5       1.0000 0.55870  0.71120  0.87210  Biso   1.000  O
  C1       1.0000 0.39900  0.61520  0.12840  Biso   1.000  C
  C2       1.0000 0.40520  0.71640  0.08110  Biso   1.000  C
  C3       1.0000 0.44590  0.70950  0.00780  Biso   1.000  C
  H1       1.0000 0.47070  0.64080  0.98890  Biso   1.000  H
  C4       1.0000 0.45030  0.80180  0.96290  Biso   1.000  C
  C5       1.0000 0.41030  0.90170  0.99020  Biso   1.000  C
  H2       1.0000 0.40860  0.96430  0.95830  Biso   1.000  H
  C6       1.0000 0.37310  0.91020  0.06340  Biso   1.000  C
  H3       1.0000 0.34880  0.97900  0.08250  Biso   1.000  H
  C7       1.0000 0.37180  0.81710  0.10910  Biso   1.000  C
  H4       1.0000 0.34780  0.82280  0.15970  Biso   1.000  H
  C8       1.0000 0.50210  0.79510  0.88640  Biso   1.000  C
  Np2      1.0000 0.10315  0.07858  0.22130  Biso   1.000  Np
  O6       1.0000 0.25370  0.09720  0.20480  Biso   1.000  O
  O7       1.0000 0.08600  0.97820  0.09870  Biso   1.000  O
  O8       1.0000 0.12120  0.87640  0.19730  Biso   1.000  O
  O9       1.0000 0.01150  0.62620  0.84180  Biso   1.000  O
  O10      1.0000 0.94130  0.78880  0.87210  Biso   1.000  O
  C9       1.0000 0.10100  0.88480  0.12840  Biso   1.000  C
  C10      1.0000 0.09480  0.78360  0.08110  Biso   1.000  C
  C11      1.0000 0.05410  0.79050  0.00780  Biso   1.000  C
  H5       1.0000 0.02930  0.85920  0.98890  Biso   1.000  H
  C12      1.0000 0.04970  0.69820  0.96290  Biso   1.000  C
  C13      1.0000 0.08970  0.59830  0.99020  Biso   1.000  C
  H6       1.0000 0.09140  0.53570  0.95830  Biso   1.000  H
  C14      1.0000 0.12690  0.58980  0.06340  Biso   1.000  C
  H7       1.0000 0.15120  0.52100  0.08250  Biso   1.000  H
  C15      1.0000 0.12820  0.68290  0.10910  Biso   1.000  C
  H8       1.0000 0.15220  0.67720  0.15970  Biso   1.000  H
  C16      1.0000 0.99790  0.70490  0.88640  Biso   1.000  C
  Np3      1.0000 0.57858  0.89685  0.72130  Biso   1.000  Np
  O11      1.0000 0.59720  0.74630  0.70480  Biso   1.000  O
  O12      1.0000 0.47820  0.91400  0.59870  Biso   1.000  O
  O13      1.0000 0.37640  0.87880  0.69730  Biso   1.000  O
  O14      1.0000 0.12620  0.98850  0.34180  Biso   1.000  O
  O15      1.0000 0.28880  0.05870  0.37210  Biso   1.000  O
  C17      1.0000 0.38480  0.89900  0.62840  Biso   1.000  C
  C18      1.0000 0.28360  0.90520  0.58110  Biso   1.000  C
  C19      1.0000 0.29050  0.94590  0.50780  Biso   1.000  C
  H9       1.0000 0.35920  0.97070  0.48890  Biso   1.000  H
  C20      1.0000 0.19820  0.95030  0.46290  Biso   1.000  C
  C21      1.0000 0.09830  0.91030  0.49020  Biso   1.000  C
  H10      1.0000 0.03570  0.90860  0.45830  Biso   1.000  H
  C22      1.0000 0.08980  0.87310  0.56340  Biso   1.000  C
  H11      1.0000 0.02100  0.84880  0.58250  Biso   1.000  H
  C23      1.0000 0.18290  0.87180  0.60910  Biso   1.000  C
  H12      1.0000 0.17720  0.84780  0.65970  Biso   1.000  H
  C24      1.0000 0.20490  0.00210  0.38640  Biso   1.000  C
  Np4      1.0000 0.92142  0.60315  0.72130  Biso   1.000  Np
  O16      1.0000 0.90280  0.75370  0.70480  Biso   1.000  O
  O17      1.0000 0.02180  0.58600  0.59870  Biso   1.000  O
  O18      1.0000 0.12360  0.62120  0.69730  Biso   1.000  O
  O19      1.0000 0.37380  0.51150  0.34180  Biso   1.000  O
  O20      1.0000 0.21120  0.44130  0.37210  Biso   1.000  O
  C25      1.0000 0.11520  0.60100  0.62840  Biso   1.000  C
  C26      1.0000 0.21640  0.59480  0.58110  Biso   1.000  C
  C27      1.0000 0.20950  0.55410  0.50780  Biso   1.000  C
  H13      1.0000 0.14080  0.52930  0.48890  Biso   1.000  H
  C28      1.0000 0.30180  0.54970  0.46290  Biso   1.000  C
  C29      1.0000 0.40170  0.58970  0.49020  Biso   1.000  C
  H14      1.0000 0.46430  0.59140  0.45830  Biso   1.000  H
  C30      1.0000 0.41020  0.62690  0.56340  Biso   1.000  C
  H15      1.0000 0.47900  0.65120  0.58250  Biso   1.000  H
  C31      1.0000 0.31710  0.62820  0.60910  Biso   1.000  C
  H16      1.0000 0.32280  0.65220  0.65970  Biso   1.000  H
  C32      1.0000 0.29510  0.49790  0.38640  Biso   1.000  C
  Np5      1.0000 0.60315  0.57858  0.77870  Biso   1.000  Np
  O21      1.0000 0.75370  0.59720  0.79520  Biso   1.000  O
  O22      1.0000 0.58600  0.47820  0.90130  Biso   1.000  O
  O23      1.0000 0.62120  0.37640  0.80270  Biso   1.000  O
  O24      1.0000 0.51150  0.12620  0.15820  Biso   1.000  O
  O25      1.0000 0.44130  0.28880  0.12790  Biso   1.000  O
  C33      1.0000 0.60100  0.38480  0.87160  Biso   1.000  C
  C34      1.0000 0.59480  0.28360  0.91890  Biso   1.000  C
  C35      1.0000 0.55410  0.29050  0.99220  Biso   1.000  C
  H17      1.0000 0.52930  0.35920  0.01110  Biso   1.000  H
  C36      1.0000 0.54970  0.19820  0.03710  Biso   1.000  C
  C37      1.0000 0.58970  0.09830  0.00980  Biso   1.000  C
  H18      1.0000 0.59140  0.03570  0.04170  Biso   1.000  H
  C38      1.0000 0.62690  0.08980  0.93660  Biso   1.000  C
  H19      1.0000 0.65120  0.02100  0.91750  Biso   1.000  H
  C39      1.0000 0.62820  0.18290  0.89090  Biso   1.000  C
  H20      1.0000 0.65220  0.17720  0.84030  Biso   1.000  H
  C40      1.0000 0.49790  0.20490  0.11360  Biso   1.000  C
  Np6      1.0000 0.89685  0.92142  0.77870  Biso   1.000  Np
  O26      1.0000 0.74630  0.90280  0.79520  Biso   1.000  O
  O27      1.0000 0.91400  0.02180  0.90130  Biso   1.000  O
  O28      1.0000 0.87880  0.12360  0.80270  Biso   1.000  O
  O29      1.0000 0.98850  0.37380  0.15820  Biso   1.000  O
  O30      1.0000 0.05870  0.21120  0.12790  Biso   1.000  O
  C41      1.0000 0.89900  0.11520  0.87160  Biso   1.000  C
  C42      1.0000 0.90520  0.21640  0.91890  Biso   1.000  C
  C43      1.0000 0.94590  0.20950  0.99220  Biso   1.000  C
  H21      1.0000 0.97070  0.14080  0.01110  Biso   1.000  H
  C44      1.0000 0.95030  0.30180  0.03710  Biso   1.000  C
  C45      1.0000 0.91030  0.40170  0.00980  Biso   1.000  C
  H22      1.0000 0.90860  0.46430  0.04170  Biso   1.000  H
  C46      1.0000 0.87310  0.41020  0.93660  Biso   1.000  C
  H23      1.0000 0.84880  0.47900  0.91750  Biso   1.000  H
  C47      1.0000 0.87180  0.31710  0.89090  Biso   1.000  C
  H24      1.0000 0.84780  0.32280  0.84030  Biso   1.000  H
  C48      1.0000 0.00210  0.29510  0.11360  Biso   1.000  C
  Np7      1.0000 0.42142  0.10315  0.27870  Biso   1.000  Np
  O31      1.0000 0.40280  0.25370  0.29520  Biso   1.000  O
  O32      1.0000 0.52180  0.08600  0.40130  Biso   1.000  O
  O33      1.0000 0.62360  0.12120  0.30270  Biso   1.000  O
  O34      1.0000 0.87380  0.01150  0.65820  Biso   1.000  O
  O35      1.0000 0.71120  0.94130  0.62790  Biso   1.000  O
  C49      1.0000 0.61520  0.10100  0.37160  Biso   1.000  C
  C50      1.0000 0.71640  0.09480  0.41890  Biso   1.000  C
  C51      1.0000 0.70950  0.05410  0.49220  Biso   1.000  C
  H25      1.0000 0.64080  0.02930  0.51110  Biso   1.000  H
  C52      1.0000 0.80180  0.04970  0.53710  Biso   1.000  C
  C53      1.0000 0.90170  0.08970  0.50980  Biso   1.000  C
  H26      1.0000 0.96430  0.09140  0.54170  Biso   1.000  H
  C54      1.0000 0.91020  0.12690  0.43660  Biso   1.000  C
  H27      1.0000 0.97900  0.15120  0.41750  Biso   1.000  H
  C55      1.0000 0.81710  0.12820  0.39090  Biso   1.000  C
  H28      1.0000 0.82280  0.15220  0.34030  Biso   1.000  H
  C56      1.0000 0.79510  0.99790  0.61360  Biso   1.000  C
  Np8      1.0000 0.07858  0.39685  0.27870  Biso   1.000  Np
  O36      1.0000 0.09720  0.24630  0.29520  Biso   1.000  O
  O37      1.0000 0.97820  0.41400  0.40130  Biso   1.000  O
  O38      1.0000 0.87640  0.37880  0.30270  Biso   1.000  O
  O39      1.0000 0.62620  0.48850  0.65820  Biso   1.000  O
  O40      1.0000 0.78880  0.55870  0.62790  Biso   1.000  O
  C57      1.0000 0.88480  0.39900  0.37160  Biso   1.000  C
  C58      1.0000 0.78360  0.40520  0.41890  Biso   1.000  C
  C59      1.0000 0.79050  0.44590  0.49220  Biso   1.000  C
  H29      1.0000 0.85920  0.47070  0.51110  Biso   1.000  H
  C60      1.0000 0.69820  0.45030  0.53710  Biso   1.000  C
  C61      1.0000 0.59830  0.41030  0.50980  Biso   1.000  C
  H30      1.0000 0.53570  0.40860  0.54170  Biso   1.000  H
  C62      1.0000 0.58980  0.37310  0.43660  Biso   1.000  C
  H31      1.0000 0.52100  0.34880  0.41750  Biso   1.000  H
  C63      1.0000 0.68290  0.37180  0.39090  Biso   1.000  C
  H32      1.0000 0.67720  0.34780  0.34030  Biso   1.000  H
  C64      1.0000 0.70490  0.50210  0.61360  Biso   1.000  C
