data_image0
_cell_length_a       18.757
_cell_length_b       18.757
_cell_length_c       36.092
_cell_angle_alpha    90
_cell_angle_beta     90
_cell_angle_gamma    90

_symmetry_space_group_name_H-M    "P 1"
_symmetry_int_tables_number       1

loop_
  _symmetry_equiv_pos_as_xyz
  'x, y, z'

loop_
  _atom_site_label
  _atom_site_occupancy
  _atom_site_fract_x
  _atom_site_fract_y
  _atom_site_fract_z
  _atom_site_thermal_displace_type
  _atom_site_B_iso_or_equiv
  _atom_site_type_symbol
  O1       1.0000 0.29616  0.80305  0.20531  Biso   1.000  O
  O2       1.0000 0.35305  0.75031  0.25339  Biso   1.000  O
  O3       1.0000 0.61530  0.71982  0.24486  Biso   1.000  O
  O4       1.0000 0.66978  0.77253  0.19638  Biso   1.000  O
  C1       1.0000 0.48273  0.76427  0.21648  Biso   1.000  C
  H1       1.0000 0.48490  0.75800  0.24260  Biso   1.000  H
  C2       1.0000 0.41742  0.77588  0.19931  Biso   1.000  C
  C3       1.0000 0.41419  0.78502  0.16113  Biso   1.000  C
  H2       1.0000 0.36960  0.79300  0.14940  Biso   1.000  H
  C4       1.0000 0.47625  0.78255  0.14012  Biso   1.000  C
  C5       1.0000 0.54155  0.77094  0.15730  Biso   1.000  C
  H3       1.0000 0.58400  0.76930  0.14290  Biso   1.000  H
  C6       1.0000 0.54479  0.76180  0.19548  Biso   1.000  C
  C7       1.0000 0.35035  0.77848  0.22116  Biso   1.000  C
  C8       1.0000 0.61517  0.75215  0.21357  Biso   1.000  C
  C9       1.0000 0.47210  0.78201  0.09829  Biso   1.000  C
  C10      1.0000 0.46460  0.84633  0.07957  Biso   1.000  C
  C11      1.0000 0.46210  0.84724  0.04108  Biso   1.000  C
  H4       1.0000 0.45690  0.89120  0.02830  Biso   1.000  H
  C12      1.0000 0.46710  0.78380  0.02132  Biso   1.000  C
  C13      1.0000 0.47470  0.71953  0.04004  Biso   1.000  C
  H5       1.0000 0.47820  0.67620  0.02650  Biso   1.000  H
  C14      1.0000 0.47720  0.71861  0.07853  Biso   1.000  C
  C15      1.0000 0.44540  0.91830  0.10045  Biso   1.000  C
  H6       1.0000 0.44890  0.91090  0.12730  Biso   1.000  H
  H7       1.0000 0.39670  0.93260  0.09410  Biso   1.000  H
  H8       1.0000 0.47870  0.95580  0.09290  Biso   1.000  H
  C16      1.0000 0.49890  0.65080  0.09884  Biso   1.000  C
  H9       1.0000 0.50100  0.61110  0.08120  Biso   1.000  H
  H10      1.0000 0.46380  0.64010  0.11820  Biso   1.000  H
  H11      1.0000 0.54590  0.65760  0.11020  Biso   1.000  H
  O5       1.0000 0.70384  0.19695  0.20531  Biso   1.000  O
  O6       1.0000 0.64695  0.24969  0.25339  Biso   1.000  O
  O7       1.0000 0.38470  0.28018  0.24486  Biso   1.000  O
  O8       1.0000 0.33022  0.22747  0.19638  Biso   1.000  O
  C17      1.0000 0.51727  0.23573  0.21648  Biso   1.000  C
  H12      1.0000 0.51510  0.24200  0.24260  Biso   1.000  H
  C18      1.0000 0.58258  0.22412  0.19931  Biso   1.000  C
  C19      1.0000 0.58581  0.21498  0.16113  Biso   1.000  C
  H13      1.0000 0.63040  0.20700  0.14940  Biso   1.000  H
  C20      1.0000 0.52375  0.21745  0.14012  Biso   1.000  C
  C21      1.0000 0.45845  0.22906  0.15730  Biso   1.000  C
  H14      1.0000 0.41600  0.23070  0.14290  Biso   1.000  H
  C22      1.0000 0.45521  0.23820  0.19548  Biso   1.000  C
  C23      1.0000 0.64965  0.22152  0.22116  Biso   1.000  C
  C24      1.0000 0.38483  0.24785  0.21357  Biso   1.000  C
  C25      1.0000 0.52790  0.21799  0.09829  Biso   1.000  C
  C26      1.0000 0.53540  0.15367  0.07957  Biso   1.000  C
  C27      1.0000 0.53790  0.15276  0.04108  Biso   1.000  C
  H15      1.0000 0.54310  0.10880  0.02830  Biso   1.000  H
  C28      1.0000 0.53290  0.21620  0.02132  Biso   1.000  C
  C29      1.0000 0.52530  0.28047  0.04004  Biso   1.000  C
  H16      1.0000 0.52180  0.32380  0.02650  Biso   1.000  H
  C30      1.0000 0.52280  0.28139  0.07853  Biso   1.000  C
  C31      1.0000 0.55460  0.08170  0.10045  Biso   1.000  C
  H17      1.0000 0.55110  0.08910  0.12730  Biso   1.000  H
  H18      1.0000 0.60330  0.06740  0.09410  Biso   1.000  H
  H19      1.0000 0.52130  0.04420  0.09290  Biso   1.000  H
  C32      1.0000 0.50110  0.34920  0.09884  Biso   1.000  C
  H20      1.0000 0.49900  0.38890  0.08120  Biso   1.000  H
  H21      1.0000 0.53620  0.35990  0.11820  Biso   1.000  H
  H22      1.0000 0.45410  0.34240  0.11020  Biso   1.000  H
  O9       1.0000 0.69695  0.79616  0.70531  Biso   1.000  O
  O10      1.0000 0.74969  0.85305  0.75339  Biso   1.000  O
  O11      1.0000 0.78018  0.11530  0.74486  Biso   1.000  O
  O12      1.0000 0.72747  0.16978  0.69638  Biso   1.000  O
  C33      1.0000 0.73573  0.98273  0.71648  Biso   1.000  C
  H23      1.0000 0.74200  0.98490  0.74260  Biso   1.000  H
  C34      1.0000 0.72412  0.91742  0.69931  Biso   1.000  C
  C35      1.0000 0.71498  0.91419  0.66113  Biso   1.000  C
  H24      1.0000 0.70700  0.86960  0.64940  Biso   1.000  H
  C36      1.0000 0.71745  0.97625  0.64012  Biso   1.000  C
  C37      1.0000 0.72906  0.04155  0.65730  Biso   1.000  C
  H25      1.0000 0.73070  0.08400  0.64290  Biso   1.000  H
  C38      1.0000 0.73820  0.04479  0.69548  Biso   1.000  C
  C39      1.0000 0.72152  0.85035  0.72116  Biso   1.000  C
  C40      1.0000 0.74785  0.11517  0.71357  Biso   1.000  C
  C41      1.0000 0.71799  0.97210  0.59829  Biso   1.000  C
  C42      1.0000 0.65367  0.96460  0.57957  Biso   1.000  C
  C43      1.0000 0.65276  0.96210  0.54108  Biso   1.000  C
  H26      1.0000 0.60880  0.95690  0.52830  Biso   1.000  H
  C44      1.0000 0.71620  0.96710  0.52132  Biso   1.000  C
  C45      1.0000 0.78047  0.97470  0.54004  Biso   1.000  C
  H27      1.0000 0.82380  0.97820  0.52650  Biso   1.000  H
  C46      1.0000 0.78139  0.97720  0.57853  Biso   1.000  C
  C47      1.0000 0.58170  0.94540  0.60045  Biso   1.000  C
  H28      1.0000 0.58910  0.94890  0.62730  Biso   1.000  H
  H29      1.0000 0.56740  0.89670  0.59410  Biso   1.000  H
  H30      1.0000 0.54420  0.97870  0.59290  Biso   1.000  H
  C48      1.0000 0.84920  0.99890  0.59884  Biso   1.000  C
  H31      1.0000 0.88890  0.00100  0.58120  Biso   1.000  H
  H32      1.0000 0.85990  0.96380  0.61820  Biso   1.000  H
  H33      1.0000 0.84240  0.04590  0.61020  Biso   1.000  H
  O13      1.0000 0.30305  0.20384  0.70531  Biso   1.000  O
  O14      1.0000 0.25031  0.14695  0.75339  Biso   1.000  O
  O15      1.0000 0.21982  0.88470  0.74486  Biso   1.000  O
  O16      1.0000 0.27253  0.83022  0.69638  Biso   1.000  O
  C49      1.0000 0.26427  0.01727  0.71648  Biso   1.000  C
  H34      1.0000 0.25800  0.01510  0.74260  Biso   1.000  H
  C50      1.0000 0.27588  0.08258  0.69931  Biso   1.000  C
  C51      1.0000 0.28502  0.08581  0.66113  Biso   1.000  C
  H35      1.0000 0.29300  0.13040  0.64940  Biso   1.000  H
  C52      1.0000 0.28255  0.02375  0.64012  Biso   1.000  C
  C53      1.0000 0.27094  0.95845  0.65730  Biso   1.000  C
  H36      1.0000 0.26930  0.91600  0.64290  Biso   1.000  H
  C54      1.0000 0.26180  0.95521  0.69548  Biso   1.000  C
  C55      1.0000 0.27848  0.14965  0.72116  Biso   1.000  C
  C56      1.0000 0.25215  0.88483  0.71357  Biso   1.000  C
  C57      1.0000 0.28201  0.02790  0.59829  Biso   1.000  C
  C58      1.0000 0.34633  0.03540  0.57957  Biso   1.000  C
  C59      1.0000 0.34724  0.03790  0.54108  Biso   1.000  C
  H37      1.0000 0.39120  0.04310  0.52830  Biso   1.000  H
  C60      1.0000 0.28380  0.03290  0.52132  Biso   1.000  C
  C61      1.0000 0.21953  0.02530  0.54004  Biso   1.000  C
  H38      1.0000 0.17620  0.02180  0.52650  Biso   1.000  H
  C62      1.0000 0.21861  0.02280  0.57853  Biso   1.000  C
  C63      1.0000 0.41830  0.05460  0.60045  Biso   1.000  C
  H39      1.0000 0.41090  0.05110  0.62730  Biso   1.000  H
  H40      1.0000 0.43260  0.10330  0.59410  Biso   1.000  H
  H41      1.0000 0.45580  0.02130  0.59290  Biso   1.000  H
  C64      1.0000 0.15080  0.00110  0.59884  Biso   1.000  C
  H42      1.0000 0.11110  0.99900  0.58120  Biso   1.000  H
  H43      1.0000 0.14010  0.03620  0.61820  Biso   1.000  H
  H44      1.0000 0.15760  0.95410  0.61020  Biso   1.000  H
  O17      1.0000 0.20384  0.30305  0.29469  Biso   1.000  O
  O18      1.0000 0.14695  0.25031  0.24661  Biso   1.000  O
  O19      1.0000 0.88470  0.21982  0.25514  Biso   1.000  O
  O20      1.0000 0.83022  0.27253  0.30362  Biso   1.000  O
  C65      1.0000 0.01727  0.26427  0.28352  Biso   1.000  C
  H45      1.0000 0.01510  0.25800  0.25740  Biso   1.000  H
  C66      1.0000 0.08258  0.27588  0.30069  Biso   1.000  C
  C67      1.0000 0.08581  0.28502  0.33887  Biso   1.000  C
  H46      1.0000 0.13040  0.29300  0.35060  Biso   1.000  H
  C68      1.0000 0.02375  0.28255  0.35988  Biso   1.000  C
  C69      1.0000 0.95845  0.27094  0.34270  Biso   1.000  C
  H47      1.0000 0.91600  0.26930  0.35710  Biso   1.000  H
  C70      1.0000 0.95521  0.26180  0.30452  Biso   1.000  C
  C71      1.0000 0.14965  0.27848  0.27884  Biso   1.000  C
  C72      1.0000 0.88483  0.25215  0.28643  Biso   1.000  C
  C73      1.0000 0.02790  0.28201  0.40171  Biso   1.000  C
  C74      1.0000 0.03540  0.34633  0.42043  Biso   1.000  C
  C75      1.0000 0.03790  0.34724  0.45892  Biso   1.000  C
  H48      1.0000 0.04310  0.39120  0.47170  Biso   1.000  H
  C76      1.0000 0.03290  0.28380  0.47868  Biso   1.000  C
  C77      1.0000 0.02530  0.21953  0.45996  Biso   1.000  C
  H49      1.0000 0.02180  0.17620  0.47350  Biso   1.000  H
  C78      1.0000 0.02280  0.21861  0.42147  Biso   1.000  C
  C79      1.0000 0.05460  0.41830  0.39955  Biso   1.000  C
  H50      1.0000 0.05110  0.41090  0.37270  Biso   1.000  H
  H51      1.0000 0.10330  0.43260  0.40590  Biso   1.000  H
  H52      1.0000 0.02130  0.45580  0.40710  Biso   1.000  H
  C80      1.0000 0.00110  0.15080  0.40116  Biso   1.000  C
  H53      1.0000 0.99900  0.11110  0.41880  Biso   1.000  H
  H54      1.0000 0.03620  0.14010  0.38180  Biso   1.000  H
  H55      1.0000 0.95410  0.15760  0.38980  Biso   1.000  H
  O21      1.0000 0.79616  0.69695  0.29469  Biso   1.000  O
  O22      1.0000 0.85305  0.74969  0.24661  Biso   1.000  O
  O23      1.0000 0.11530  0.78018  0.25514  Biso   1.000  O
  O24      1.0000 0.16978  0.72747  0.30362  Biso   1.000  O
  C81      1.0000 0.98273  0.73573  0.28352  Biso   1.000  C
  H56      1.0000 0.98490  0.74200  0.25740  Biso   1.000  H
  C82      1.0000 0.91742  0.72412  0.30069  Biso   1.000  C
  C83      1.0000 0.91419  0.71498  0.33887  Biso   1.000  C
  H57      1.0000 0.86960  0.70700  0.35060  Biso   1.000  H
  C84      1.0000 0.97625  0.71745  0.35988  Biso   1.000  C
  C85      1.0000 0.04155  0.72906  0.34270  Biso   1.000  C
  H58      1.0000 0.08400  0.73070  0.35710  Biso   1.000  H
  C86      1.0000 0.04479  0.73820  0.30452  Biso   1.000  C
  C87      1.0000 0.85035  0.72152  0.27884  Biso   1.000  C
  C88      1.0000 0.11517  0.74785  0.28643  Biso   1.000  C
  C89      1.0000 0.97210  0.71799  0.40171  Biso   1.000  C
  C90      1.0000 0.96460  0.65367  0.42043  Biso   1.000  C
  C91      1.0000 0.96210  0.65276  0.45892  Biso   1.000  C
  H59      1.0000 0.95690  0.60880  0.47170  Biso   1.000  H
  C92      1.0000 0.96710  0.71620  0.47868  Biso   1.000  C
  C93      1.0000 0.97470  0.78047  0.45996  Biso   1.000  C
  H60      1.0000 0.97820  0.82380  0.47350  Biso   1.000  H
  C94      1.0000 0.97720  0.78139  0.42147  Biso   1.000  C
  C95      1.0000 0.94540  0.58170  0.39955  Biso   1.000  C
  H61      1.0000 0.94890  0.58910  0.37270  Biso   1.000  H
  H62      1.0000 0.89670  0.56740  0.40590  Biso   1.000  H
  H63      1.0000 0.97870  0.54420  0.40710  Biso   1.000  H
  C96      1.0000 0.99890  0.84920  0.40116  Biso   1.000  C
  H64      1.0000 0.00100  0.88890  0.41880  Biso   1.000  H
  H65      1.0000 0.96380  0.85990  0.38180  Biso   1.000  H
  H66      1.0000 0.04590  0.84240  0.38980  Biso   1.000  H
  O25      1.0000 0.80305  0.29616  0.79469  Biso   1.000  O
  O26      1.0000 0.75031  0.35305  0.74661  Biso   1.000  O
  O27      1.0000 0.71982  0.61530  0.75514  Biso   1.000  O
  O28      1.0000 0.77253  0.66978  0.80362  Biso   1.000  O
  C97      1.0000 0.76427  0.48273  0.78352  Biso   1.000  C
  H67      1.0000 0.75800  0.48490  0.75740  Biso   1.000  H
  C98      1.0000 0.77588  0.41742  0.80069  Biso   1.000  C
  C99      1.0000 0.78502  0.41419  0.83887  Biso   1.000  C
  H68      1.0000 0.79300  0.36960  0.85060  Biso   1.000  H
  C100     1.0000 0.78255  0.47625  0.85988  Biso   1.000  C
  C101     1.0000 0.77094  0.54155  0.84270  Biso   1.000  C
  H69      1.0000 0.76930  0.58400  0.85710  Biso   1.000  H
  C102     1.0000 0.76180  0.54479  0.80452  Biso   1.000  C
  C103     1.0000 0.77848  0.35035  0.77884  Biso   1.000  C
  C104     1.0000 0.75215  0.61517  0.78643  Biso   1.000  C
  C105     1.0000 0.78201  0.47210  0.90171  Biso   1.000  C
  C106     1.0000 0.84633  0.46460  0.92043  Biso   1.000  C
  C107     1.0000 0.84724  0.46210  0.95892  Biso   1.000  C
  H70      1.0000 0.89120  0.45690  0.97170  Biso   1.000  H
  C108     1.0000 0.78380  0.46710  0.97868  Biso   1.000  C
  C109     1.0000 0.71953  0.47470  0.95996  Biso   1.000  C
  H71      1.0000 0.67620  0.47820  0.97350  Biso   1.000  H
  C110     1.0000 0.71861  0.47720  0.92147  Biso   1.000  C
  C111     1.0000 0.91830  0.44540  0.89955  Biso   1.000  C
  H72      1.0000 0.91090  0.44890  0.87270  Biso   1.000  H
  H73      1.0000 0.93260  0.39670  0.90590  Biso   1.000  H
  H74      1.0000 0.95580  0.47870  0.90710  Biso   1.000  H
  C112     1.0000 0.65080  0.49890  0.90116  Biso   1.000  C
  H75      1.0000 0.61110  0.50100  0.91880  Biso   1.000  H
  H76      1.0000 0.64010  0.46380  0.88180  Biso   1.000  H
  H77      1.0000 0.65760  0.54590  0.88980  Biso   1.000  H
  O29      1.0000 0.19695  0.70384  0.79469  Biso   1.000  O
  O30      1.0000 0.24969  0.64695  0.74661  Biso   1.000  O
  O31      1.0000 0.28018  0.38470  0.75514  Biso   1.000  O
  O32      1.0000 0.22747  0.33022  0.80362  Biso   1.000  O
  C113     1.0000 0.23573  0.51727  0.78352  Biso   1.000  C
  H78      1.0000 0.24200  0.51510  0.75740  Biso   1.000  H
  C114     1.0000 0.22412  0.58258  0.80069  Biso   1.000  C
  C115     1.0000 0.21498  0.58581  0.83887  Biso   1.000  C
  H79      1.0000 0.20700  0.63040  0.85060  Biso   1.000  H
  C116     1.0000 0.21745  0.52375  0.85988  Biso   1.000  C
  C117     1.0000 0.22906  0.45845  0.84270  Biso   1.000  C
  H80      1.0000 0.23070  0.41600  0.85710  Biso   1.000  H
  C118     1.0000 0.23820  0.45521  0.80452  Biso   1.000  C
  C119     1.0000 0.22152  0.64965  0.77884  Biso   1.000  C
  C120     1.0000 0.24785  0.38483  0.78643  Biso   1.000  C
  C121     1.0000 0.21799  0.52790  0.90171  Biso   1.000  C
  C122     1.0000 0.15367  0.53540  0.92043  Biso   1.000  C
  C123     1.0000 0.15276  0.53790  0.95892  Biso   1.000  C
  H81      1.0000 0.10880  0.54310  0.97170  Biso   1.000  H
  C124     1.0000 0.21620  0.53290  0.97868  Biso   1.000  C
  C125     1.0000 0.28047  0.52530  0.95996  Biso   1.000  C
  H82      1.0000 0.32380  0.52180  0.97350  Biso   1.000  H
  C126     1.0000 0.28139  0.52280  0.92147  Biso   1.000  C
  C127     1.0000 0.08170  0.55460  0.89955  Biso   1.000  C
  H83      1.0000 0.08910  0.55110  0.87270  Biso   1.000  H
  H84      1.0000 0.06740  0.60330  0.90590  Biso   1.000  H
  H85      1.0000 0.04420  0.52130  0.90710  Biso   1.000  H
  C128     1.0000 0.34920  0.50110  0.90116  Biso   1.000  C
  H86      1.0000 0.38890  0.49900  0.91880  Biso   1.000  H
  H87      1.0000 0.35990  0.53620  0.88180  Biso   1.000  H
  H88      1.0000 0.34240  0.45410  0.88980  Biso   1.000  H
  O33      1.0000 0.70384  0.19695  0.79469  Biso   1.000  O
  O34      1.0000 0.64695  0.24969  0.74661  Biso   1.000  O
  O35      1.0000 0.38470  0.28018  0.75514  Biso   1.000  O
  O36      1.0000 0.33022  0.22747  0.80362  Biso   1.000  O
  C129     1.0000 0.51727  0.23573  0.78352  Biso   1.000  C
  H89      1.0000 0.51510  0.24200  0.75740  Biso   1.000  H
  C130     1.0000 0.58258  0.22412  0.80069  Biso   1.000  C
  C131     1.0000 0.58581  0.21498  0.83887  Biso   1.000  C
  H90      1.0000 0.63040  0.20700  0.85060  Biso   1.000  H
  C132     1.0000 0.52375  0.21745  0.85988  Biso   1.000  C
  C133     1.0000 0.45845  0.22906  0.84270  Biso   1.000  C
  H91      1.0000 0.41600  0.23070  0.85710  Biso   1.000  H
  C134     1.0000 0.45521  0.23820  0.80452  Biso   1.000  C
  C135     1.0000 0.64965  0.22152  0.77884  Biso   1.000  C
  C136     1.0000 0.38483  0.24785  0.78643  Biso   1.000  C
  C137     1.0000 0.52790  0.21799  0.90171  Biso   1.000  C
  C138     1.0000 0.53540  0.15367  0.92043  Biso   1.000  C
  C139     1.0000 0.53790  0.15276  0.95892  Biso   1.000  C
  H92      1.0000 0.54310  0.10880  0.97170  Biso   1.000  H
  C140     1.0000 0.53290  0.21620  0.97868  Biso   1.000  C
  C141     1.0000 0.52530  0.28047  0.95996  Biso   1.000  C
  H93      1.0000 0.52180  0.32380  0.97350  Biso   1.000  H
  C142     1.0000 0.52280  0.28139  0.92147  Biso   1.000  C
  C143     1.0000 0.55460  0.08170  0.89955  Biso   1.000  C
  H94      1.0000 0.55110  0.08910  0.87270  Biso   1.000  H
  H95      1.0000 0.60330  0.06740  0.90590  Biso   1.000  H
  H96      1.0000 0.52130  0.04420  0.90710  Biso   1.000  H
  C144     1.0000 0.50110  0.34920  0.90116  Biso   1.000  C
  H97      1.0000 0.49900  0.38890  0.91880  Biso   1.000  H
  H98      1.0000 0.53620  0.35990  0.88180  Biso   1.000  H
  H99      1.0000 0.45410  0.34240  0.88980  Biso   1.000  H
  O37      1.0000 0.29616  0.80305  0.79469  Biso   1.000  O
  O38      1.0000 0.35305  0.75031  0.74661  Biso   1.000  O
  O39      1.0000 0.61530  0.71982  0.75514  Biso   1.000  O
  O40      1.0000 0.66978  0.77253  0.80362  Biso   1.000  O
  C145     1.0000 0.48273  0.76427  0.78352  Biso   1.000  C
  H100     1.0000 0.48490  0.75800  0.75740  Biso   1.000  H
  C146     1.0000 0.41742  0.77588  0.80069  Biso   1.000  C
  C147     1.0000 0.41419  0.78502  0.83887  Biso   1.000  C
  H101     1.0000 0.36960  0.79300  0.85060  Biso   1.000  H
  C148     1.0000 0.47625  0.78255  0.85988  Biso   1.000  C
  C149     1.0000 0.54155  0.77094  0.84270  Biso   1.000  C
  H102     1.0000 0.58400  0.76930  0.85710  Biso   1.000  H
  C150     1.0000 0.54479  0.76180  0.80452  Biso   1.000  C
  C151     1.0000 0.35035  0.77848  0.77884  Biso   1.000  C
  C152     1.0000 0.61517  0.75215  0.78643  Biso   1.000  C
  C153     1.0000 0.47210  0.78201  0.90171  Biso   1.000  C
  C154     1.0000 0.46460  0.84633  0.92043  Biso   1.000  C
  C155     1.0000 0.46210  0.84724  0.95892  Biso   1.000  C
  H103     1.0000 0.45690  0.89120  0.97170  Biso   1.000  H
  C156     1.0000 0.46710  0.78380  0.97868  Biso   1.000  C
  C157     1.0000 0.47470  0.71953  0.95996  Biso   1.000  C
  H104     1.0000 0.47820  0.67620  0.97350  Biso   1.000  H
  C158     1.0000 0.47720  0.71861  0.92147  Biso   1.000  C
  C159     1.0000 0.44540  0.91830  0.89955  Biso   1.000  C
  H105     1.0000 0.44890  0.91090  0.87270  Biso   1.000  H
  H106     1.0000 0.39670  0.93260  0.90590  Biso   1.000  H
  H107     1.0000 0.47870  0.95580  0.90710  Biso   1.000  H
  C160     1.0000 0.49890  0.65080  0.90116  Biso   1.000  C
  H108     1.0000 0.50100  0.61110  0.91880  Biso   1.000  H
  H109     1.0000 0.46380  0.64010  0.88180  Biso   1.000  H
  H110     1.0000 0.54590  0.65760  0.88980  Biso   1.000  H
  O41      1.0000 0.30305  0.20384  0.29469  Biso   1.000  O
  O42      1.0000 0.25031  0.14695  0.24661  Biso   1.000  O
  O43      1.0000 0.21982  0.88470  0.25514  Biso   1.000  O
  O44      1.0000 0.27253  0.83022  0.30362  Biso   1.000  O
  C161     1.0000 0.26427  0.01727  0.28352  Biso   1.000  C
  H111     1.0000 0.25800  0.01510  0.25740  Biso   1.000  H
  C162     1.0000 0.27588  0.08258  0.30069  Biso   1.000  C
  C163     1.0000 0.28502  0.08581  0.33887  Biso   1.000  C
  H112     1.0000 0.29300  0.13040  0.35060  Biso   1.000  H
  C164     1.0000 0.28255  0.02375  0.35988  Biso   1.000  C
  C165     1.0000 0.27094  0.95845  0.34270  Biso   1.000  C
  H113     1.0000 0.26930  0.91600  0.35710  Biso   1.000  H
  C166     1.0000 0.26180  0.95521  0.30452  Biso   1.000  C
  C167     1.0000 0.27848  0.14965  0.27884  Biso   1.000  C
  C168     1.0000 0.25215  0.88483  0.28643  Biso   1.000  C
  C169     1.0000 0.28201  0.02790  0.40171  Biso   1.000  C
  C170     1.0000 0.34633  0.03540  0.42043  Biso   1.000  C
  C171     1.0000 0.34724  0.03790  0.45892  Biso   1.000  C
  H114     1.0000 0.39120  0.04310  0.47170  Biso   1.000  H
  C172     1.0000 0.28380  0.03290  0.47868  Biso   1.000  C
  C173     1.0000 0.21953  0.02530  0.45996  Biso   1.000  C
  H115     1.0000 0.17620  0.02180  0.47350  Biso   1.000  H
  C174     1.0000 0.21861  0.02280  0.42147  Biso   1.000  C
  C175     1.0000 0.41830  0.05460  0.39955  Biso   1.000  C
  H116     1.0000 0.41090  0.05110  0.37270  Biso   1.000  H
  H117     1.0000 0.43260  0.10330  0.40590  Biso   1.000  H
  H118     1.0000 0.45580  0.02130  0.40710  Biso   1.000  H
  C176     1.0000 0.15080  0.00110  0.40116  Biso   1.000  C
  H119     1.0000 0.11110  0.99900  0.41880  Biso   1.000  H
  H120     1.0000 0.14010  0.03620  0.38180  Biso   1.000  H
  H121     1.0000 0.15760  0.95410  0.38980  Biso   1.000  H
  O45      1.0000 0.69695  0.79616  0.29469  Biso   1.000  O
  O46      1.0000 0.74969  0.85305  0.24661  Biso   1.000  O
  O47      1.0000 0.78018  0.11530  0.25514  Biso   1.000  O
  O48      1.0000 0.72747  0.16978  0.30362  Biso   1.000  O
  C177     1.0000 0.73573  0.98273  0.28352  Biso   1.000  C
  H122     1.0000 0.74200  0.98490  0.25740  Biso   1.000  H
  C178     1.0000 0.72412  0.91742  0.30069  Biso   1.000  C
  C179     1.0000 0.71498  0.91419  0.33887  Biso   1.000  C
  H123     1.0000 0.70700  0.86960  0.35060  Biso   1.000  H
  C180     1.0000 0.71745  0.97625  0.35988  Biso   1.000  C
  C181     1.0000 0.72906  0.04155  0.34270  Biso   1.000  C
  H124     1.0000 0.73070  0.08400  0.35710  Biso   1.000  H
  C182     1.0000 0.73820  0.04479  0.30452  Biso   1.000  C
  C183     1.0000 0.72152  0.85035  0.27884  Biso   1.000  C
  C184     1.0000 0.74785  0.11517  0.28643  Biso   1.000  C
  C185     1.0000 0.71799  0.97210  0.40171  Biso   1.000  C
  C186     1.0000 0.65367  0.96460  0.42043  Biso   1.000  C
  C187     1.0000 0.65276  0.96210  0.45892  Biso   1.000  C
  H125     1.0000 0.60880  0.95690  0.47170  Biso   1.000  H
  C188     1.0000 0.71620  0.96710  0.47868  Biso   1.000  C
  C189     1.0000 0.78047  0.97470  0.45996  Biso   1.000  C
  H126     1.0000 0.82380  0.97820  0.47350  Biso   1.000  H
  C190     1.0000 0.78139  0.97720  0.42147  Biso   1.000  C
  C191     1.0000 0.58170  0.94540  0.39955  Biso   1.000  C
  H127     1.0000 0.58910  0.94890  0.37270  Biso   1.000  H
  H128     1.0000 0.56740  0.89670  0.40590  Biso   1.000  H
  H129     1.0000 0.54420  0.97870  0.40710  Biso   1.000  H
  C192     1.0000 0.84920  0.99890  0.40116  Biso   1.000  C
  H130     1.0000 0.88890  0.00100  0.41880  Biso   1.000  H
  H131     1.0000 0.85990  0.96380  0.38180  Biso   1.000  H
  H132     1.0000 0.84240  0.04590  0.38980  Biso   1.000  H
  O49      1.0000 0.79616  0.69695  0.70531  Biso   1.000  O
  O50      1.0000 0.85305  0.74969  0.75339  Biso   1.000  O
  O51      1.0000 0.11530  0.78018  0.74486  Biso   1.000  O
  O52      1.0000 0.16978  0.72747  0.69638  Biso   1.000  O
  C193     1.0000 0.98273  0.73573  0.71648  Biso   1.000  C
  H133     1.0000 0.98490  0.74200  0.74260  Biso   1.000  H
  C194     1.0000 0.91742  0.72412  0.69931  Biso   1.000  C
  C195     1.0000 0.91419  0.71498  0.66113  Biso   1.000  C
  H134     1.0000 0.86960  0.70700  0.64940  Biso   1.000  H
  C196     1.0000 0.97625  0.71745  0.64012  Biso   1.000  C
  C197     1.0000 0.04155  0.72906  0.65730  Biso   1.000  C
  H135     1.0000 0.08400  0.73070  0.64290  Biso   1.000  H
  C198     1.0000 0.04479  0.73820  0.69548  Biso   1.000  C
  C199     1.0000 0.85035  0.72152  0.72116  Biso   1.000  C
  C200     1.0000 0.11517  0.74785  0.71357  Biso   1.000  C
  C201     1.0000 0.97210  0.71799  0.59829  Biso   1.000  C
  C202     1.0000 0.96460  0.65367  0.57957  Biso   1.000  C
  C203     1.0000 0.96210  0.65276  0.54108  Biso   1.000  C
  H136     1.0000 0.95690  0.60880  0.52830  Biso   1.000  H
  C204     1.0000 0.96710  0.71620  0.52132  Biso   1.000  C
  C205     1.0000 0.97470  0.78047  0.54004  Biso   1.000  C
  H137     1.0000 0.97820  0.82380  0.52650  Biso   1.000  H
  C206     1.0000 0.97720  0.78139  0.57853  Biso   1.000  C
  C207     1.0000 0.94540  0.58170  0.60045  Biso   1.000  C
  H138     1.0000 0.94890  0.58910  0.62730  Biso   1.000  H
  H139     1.0000 0.89670  0.56740  0.59410  Biso   1.000  H
  H140     1.0000 0.97870  0.54420  0.59290  Biso   1.000  H
  C208     1.0000 0.99890  0.84920  0.59884  Biso   1.000  C
  H141     1.0000 0.00100  0.88890  0.58120  Biso   1.000  H
  H142     1.0000 0.96380  0.85990  0.61820  Biso   1.000  H
  H143     1.0000 0.04590  0.84240  0.61020  Biso   1.000  H
  O53      1.0000 0.20384  0.30305  0.70531  Biso   1.000  O
  O54      1.0000 0.14695  0.25031  0.75339  Biso   1.000  O
  O55      1.0000 0.88470  0.21982  0.74486  Biso   1.000  O
  O56      1.0000 0.83022  0.27253  0.69638  Biso   1.000  O
  C209     1.0000 0.01727  0.26427  0.71648  Biso   1.000  C
  H144     1.0000 0.01510  0.25800  0.74260  Biso   1.000  H
  C210     1.0000 0.08258  0.27588  0.69931  Biso   1.000  C
  C211     1.0000 0.08581  0.28502  0.66113  Biso   1.000  C
  H145     1.0000 0.13040  0.29300  0.64940  Biso   1.000  H
  C212     1.0000 0.02375  0.28255  0.64012  Biso   1.000  C
  C213     1.0000 0.95845  0.27094  0.65730  Biso   1.000  C
  H146     1.0000 0.91600  0.26930  0.64290  Biso   1.000  H
  C214     1.0000 0.95521  0.26180  0.69548  Biso   1.000  C
  C215     1.0000 0.14965  0.27848  0.72116  Biso   1.000  C
  C216     1.0000 0.88483  0.25215  0.71357  Biso   1.000  C
  C217     1.0000 0.02790  0.28201  0.59829  Biso   1.000  C
  C218     1.0000 0.03540  0.34633  0.57957  Biso   1.000  C
  C219     1.0000 0.03790  0.34724  0.54108  Biso   1.000  C
  H147     1.0000 0.04310  0.39120  0.52830  Biso   1.000  H
  C220     1.0000 0.03290  0.28380  0.52132  Biso   1.000  C
  C221     1.0000 0.02530  0.21953  0.54004  Biso   1.000  C
  H148     1.0000 0.02180  0.17620  0.52650  Biso   1.000  H
  C222     1.0000 0.02280  0.21861  0.57853  Biso   1.000  C
  C223     1.0000 0.05460  0.41830  0.60045  Biso   1.000  C
  H149     1.0000 0.05110  0.41090  0.62730  Biso   1.000  H
  H150     1.0000 0.10330  0.43260  0.59410  Biso   1.000  H
  H151     1.0000 0.02130  0.45580  0.59290  Biso   1.000  H
  C224     1.0000 0.00110  0.15080  0.59884  Biso   1.000  C
  H152     1.0000 0.99900  0.11110  0.58120  Biso   1.000  H
  H153     1.0000 0.03620  0.14010  0.61820  Biso   1.000  H
  H154     1.0000 0.95410  0.15760  0.61020  Biso   1.000  H
  O57      1.0000 0.19695  0.70384  0.20531  Biso   1.000  O
  O58      1.0000 0.24969  0.64695  0.25339  Biso   1.000  O
  O59      1.0000 0.28018  0.38470  0.24486  Biso   1.000  O
  O60      1.0000 0.22747  0.33022  0.19638  Biso   1.000  O
  C225     1.0000 0.23573  0.51727  0.21648  Biso   1.000  C
  H155     1.0000 0.24200  0.51510  0.24260  Biso   1.000  H
  C226     1.0000 0.22412  0.58258  0.19931  Biso   1.000  C
  C227     1.0000 0.21498  0.58581  0.16113  Biso   1.000  C
  H156     1.0000 0.20700  0.63040  0.14940  Biso   1.000  H
  C228     1.0000 0.21745  0.52375  0.14012  Biso   1.000  C
  C229     1.0000 0.22906  0.45845  0.15730  Biso   1.000  C
  H157     1.0000 0.23070  0.41600  0.14290  Biso   1.000  H
  C230     1.0000 0.23820  0.45521  0.19548  Biso   1.000  C
  C231     1.0000 0.22152  0.64965  0.22116  Biso   1.000  C
  C232     1.0000 0.24785  0.38483  0.21357  Biso   1.000  C
  C233     1.0000 0.21799  0.52790  0.09829  Biso   1.000  C
  C234     1.0000 0.15367  0.53540  0.07957  Biso   1.000  C
  C235     1.0000 0.15276  0.53790  0.04108  Biso   1.000  C
  H158     1.0000 0.10880  0.54310  0.02830  Biso   1.000  H
  C236     1.0000 0.21620  0.53290  0.02132  Biso   1.000  C
  C237     1.0000 0.28047  0.52530  0.04004  Biso   1.000  C
  H159     1.0000 0.32380  0.52180  0.02650  Biso   1.000  H
  C238     1.0000 0.28139  0.52280  0.07853  Biso   1.000  C
  C239     1.0000 0.08170  0.55460  0.10045  Biso   1.000  C
  H160     1.0000 0.08910  0.55110  0.12730  Biso   1.000  H
  H161     1.0000 0.06740  0.60330  0.09410  Biso   1.000  H
  H162     1.0000 0.04420  0.52130  0.09290  Biso   1.000  H
  C240     1.0000 0.34920  0.50110  0.09884  Biso   1.000  C
  H163     1.0000 0.38890  0.49900  0.08120  Biso   1.000  H
  H164     1.0000 0.35990  0.53620  0.11820  Biso   1.000  H
  H165     1.0000 0.34240  0.45410  0.11020  Biso   1.000  H
  O61      1.0000 0.80305  0.29616  0.20531  Biso   1.000  O
  O62      1.0000 0.75031  0.35305  0.25339  Biso   1.000  O
  O63      1.0000 0.71982  0.61530  0.24486  Biso   1.000  O
  O64      1.0000 0.77253  0.66978  0.19638  Biso   1.000  O
  C241     1.0000 0.76427  0.48273  0.21648  Biso   1.000  C
  H166     1.0000 0.75800  0.48490  0.24260  Biso   1.000  H
  C242     1.0000 0.77588  0.41742  0.19931  Biso   1.000  C
  C243     1.0000 0.78502  0.41419  0.16113  Biso   1.000  C
  H167     1.0000 0.79300  0.36960  0.14940  Biso   1.000  H
  C244     1.0000 0.78255  0.47625  0.14012  Biso   1.000  C
  C245     1.0000 0.77094  0.54155  0.15730  Biso   1.000  C
  H168     1.0000 0.76930  0.58400  0.14290  Biso   1.000  H
  C246     1.0000 0.76180  0.54479  0.19548  Biso   1.000  C
  C247     1.0000 0.77848  0.35035  0.22116  Biso   1.000  C
  C248     1.0000 0.75215  0.61517  0.21357  Biso   1.000  C
  C249     1.0000 0.78201  0.47210  0.09829  Biso   1.000  C
  C250     1.0000 0.84633  0.46460  0.07957  Biso   1.000  C
  C251     1.0000 0.84724  0.46210  0.04108  Biso   1.000  C
  H169     1.0000 0.89120  0.45690  0.02830  Biso   1.000  H
  C252     1.0000 0.78380  0.46710  0.02132  Biso   1.000  C
  C253     1.0000 0.71953  0.47470  0.04004  Biso   1.000  C
  H170     1.0000 0.67620  0.47820  0.02650  Biso   1.000  H
  C254     1.0000 0.71861  0.47720  0.07853  Biso   1.000  C
  C255     1.0000 0.91830  0.44540  0.10045  Biso   1.000  C
  H171     1.0000 0.91090  0.44890  0.12730  Biso   1.000  H
  H172     1.0000 0.93260  0.39670  0.09410  Biso   1.000  H
  H173     1.0000 0.95580  0.47870  0.09290  Biso   1.000  H
  C256     1.0000 0.65080  0.49890  0.09884  Biso   1.000  C
  H174     1.0000 0.61110  0.50100  0.08120  Biso   1.000  H
  H175     1.0000 0.64010  0.46380  0.11820  Biso   1.000  H
  H176     1.0000 0.65760  0.54590  0.11020  Biso   1.000  H
  Cu1      1.0000 0.20137  0.79863  0.22637  Biso   1.000  Cu
  Cu2      1.0000 0.26578  0.73422  0.28279  Biso   1.000  Cu
  Cu3      1.0000 0.79863  0.20137  0.22637  Biso   1.000  Cu
  Cu4      1.0000 0.73422  0.26578  0.28279  Biso   1.000  Cu
  Cu5      1.0000 0.70137  0.70137  0.72637  Biso   1.000  Cu
  Cu6      1.0000 0.76578  0.76578  0.78279  Biso   1.000  Cu
  Cu7      1.0000 0.29863  0.29863  0.72637  Biso   1.000  Cu
  Cu8      1.0000 0.23422  0.23422  0.78279  Biso   1.000  Cu
  Cu9      1.0000 0.29863  0.29863  0.27363  Biso   1.000  Cu
  Cu10     1.0000 0.23422  0.23422  0.21721  Biso   1.000  Cu
  Cu11     1.0000 0.70137  0.70137  0.27363  Biso   1.000  Cu
  Cu12     1.0000 0.76578  0.76578  0.21721  Biso   1.000  Cu
  Cu13     1.0000 0.79863  0.20137  0.77363  Biso   1.000  Cu
  Cu14     1.0000 0.73422  0.26578  0.71721  Biso   1.000  Cu
  Cu15     1.0000 0.20137  0.79863  0.77363  Biso   1.000  Cu
  Cu16     1.0000 0.26578  0.73422  0.71721  Biso   1.000  Cu
