data_image0
_cell_length_a       11.0644
_cell_length_b       13.989
_cell_length_c       18.3866
_cell_angle_alpha    90
_cell_angle_beta     103.381
_cell_angle_gamma    90

_symmetry_space_group_name_H-M    "P 1"
_symmetry_int_tables_number       1

loop_
  _symmetry_equiv_pos_as_xyz
  'x, y, z'

loop_
  _atom_site_label
  _atom_site_occupancy
  _atom_site_fract_x
  _atom_site_fract_y
  _atom_site_fract_z
  _atom_site_thermal_displace_type
  _atom_site_B_iso_or_equiv
  _atom_site_type_symbol
  V1       1.0000 0.97910  0.22070  0.27505  Biso   1.000  V
  V2       1.0000 0.21977  0.46372  0.22693  Biso   1.000  V
  P1       1.0000 0.25030  0.31043  0.35998  Biso   1.000  P
  P2       1.0000 0.74095  0.16729  0.14219  Biso   1.000  P
  P3       1.0000 0.03491  0.43901  0.33747  Biso   1.000  P
  P4       1.0000 0.95681  0.03978  0.16414  Biso   1.000  P
  F1       1.0000 0.60990  0.25260  0.43305  Biso   1.000  F
  F2       1.0000 0.38600  0.22641  0.06401  Biso   1.000  F
  O1       1.0000 0.35290  0.25610  0.41243  Biso   1.000  O
  O2       1.0000 0.30330  0.37962  0.31007  Biso   1.000  O
  O3       1.0000 0.09940  0.49788  0.28622  Biso   1.000  O
  O4       1.0000 0.95760  0.50130  0.37574  Biso   1.000  O
  O5       1.0000 0.95790  0.35838  0.29108  Biso   1.000  O
  O6       1.0000 0.16220  0.23777  0.31203  Biso   1.000  O
  O7       1.0000 0.03150  0.11850  0.21339  Biso   1.000  O
  O8       1.0000 0.82710  0.23723  0.19486  Biso   1.000  O
  O9       1.0000 0.03700  0.98019  0.12610  Biso   1.000  O
  O10      1.0000 0.88960  0.97760  0.21187  Biso   1.000  O
  O11      1.0000 0.68300  0.09522  0.18737  Biso   1.000  O
  O12      1.0000 0.64220  0.22510  0.08990  Biso   1.000  O
  O13      1.0000 0.14740  0.39420  0.16281  Biso   1.000  O
  C1       1.0000 0.15880  0.38290  0.40670  Biso   1.000  C
  H1       1.0000 0.21060  0.43160  0.43610  Biso   1.000  H
  H2       1.0000 0.12370  0.34380  0.44020  Biso   1.000  H
  C2       1.0000 0.83780  0.09920  0.09490  Biso   1.000  C
  H3       1.0000 0.87570  0.14130  0.06460  Biso   1.000  H
  H4       1.0000 0.78800  0.05230  0.06220  Biso   1.000  H
  O14      1.0000 0.39600  0.57860  0.28020  Biso   1.000  O
  O15      1.0000 0.06700  0.31100  0.16030  Biso   1.000  O
  V3       1.0000 0.01550  0.25700  0.22730  Biso   1.000  V
  V4       1.0000 0.27380  0.51440  0.27350  Biso   1.000  V
  V5       1.0000 0.47910  0.72070  0.27505  Biso   1.000  V
  V6       1.0000 0.71977  0.96372  0.22693  Biso   1.000  V
  P5       1.0000 0.75030  0.81043  0.35998  Biso   1.000  P
  P6       1.0000 0.24095  0.66729  0.14219  Biso   1.000  P
  P7       1.0000 0.53491  0.93901  0.33747  Biso   1.000  P
  P8       1.0000 0.45681  0.53978  0.16414  Biso   1.000  P
  F3       1.0000 0.10990  0.75260  0.43305  Biso   1.000  F
  F4       1.0000 0.88600  0.72641  0.06401  Biso   1.000  F
  O16      1.0000 0.85290  0.75610  0.41243  Biso   1.000  O
  O17      1.0000 0.80330  0.87962  0.31007  Biso   1.000  O
  O18      1.0000 0.59940  0.99788  0.28622  Biso   1.000  O
  O19      1.0000 0.45760  0.00130  0.37574  Biso   1.000  O
  O20      1.0000 0.45790  0.85838  0.29108  Biso   1.000  O
  O21      1.0000 0.66220  0.73777  0.31203  Biso   1.000  O
  O22      1.0000 0.53150  0.61850  0.21339  Biso   1.000  O
  O23      1.0000 0.32710  0.73723  0.19486  Biso   1.000  O
  O24      1.0000 0.53700  0.48019  0.12610  Biso   1.000  O
  O25      1.0000 0.38960  0.47760  0.21187  Biso   1.000  O
  O26      1.0000 0.18300  0.59522  0.18737  Biso   1.000  O
  O27      1.0000 0.14220  0.72510  0.08990  Biso   1.000  O
  O28      1.0000 0.64740  0.89420  0.16281  Biso   1.000  O
  C3       1.0000 0.65880  0.88290  0.40670  Biso   1.000  C
  H5       1.0000 0.71060  0.93160  0.43610  Biso   1.000  H
  H6       1.0000 0.62370  0.84380  0.44020  Biso   1.000  H
  C4       1.0000 0.33780  0.59920  0.09490  Biso   1.000  C
  H7       1.0000 0.37570  0.64130  0.06460  Biso   1.000  H
  H8       1.0000 0.28800  0.55230  0.06220  Biso   1.000  H
  O29      1.0000 0.89600  0.07860  0.28020  Biso   1.000  O
  O30      1.0000 0.56700  0.81100  0.16030  Biso   1.000  O
  V7       1.0000 0.51550  0.75700  0.22730  Biso   1.000  V
  V8       1.0000 0.77380  0.01440  0.27350  Biso   1.000  V
  V9       1.0000 0.02090  0.22070  0.72495  Biso   1.000  V
  V10      1.0000 0.78023  0.46372  0.77307  Biso   1.000  V
  P9       1.0000 0.74970  0.31043  0.64002  Biso   1.000  P
  P10      1.0000 0.25905  0.16729  0.85781  Biso   1.000  P
  P11      1.0000 0.96509  0.43901  0.66253  Biso   1.000  P
  P12      1.0000 0.04319  0.03978  0.83586  Biso   1.000  P
  F5       1.0000 0.39010  0.25260  0.56695  Biso   1.000  F
  F6       1.0000 0.61400  0.22641  0.93599  Biso   1.000  F
  O31      1.0000 0.64710  0.25610  0.58757  Biso   1.000  O
  O32      1.0000 0.69670  0.37962  0.68993  Biso   1.000  O
  O33      1.0000 0.90060  0.49788  0.71378  Biso   1.000  O
  O34      1.0000 0.04240  0.50130  0.62426  Biso   1.000  O
  O35      1.0000 0.04210  0.35838  0.70892  Biso   1.000  O
  O36      1.0000 0.83780  0.23777  0.68797  Biso   1.000  O
  O37      1.0000 0.96850  0.11850  0.78661  Biso   1.000  O
  O38      1.0000 0.17290  0.23723  0.80514  Biso   1.000  O
  O39      1.0000 0.96300  0.98019  0.87390  Biso   1.000  O
  O40      1.0000 0.11040  0.97760  0.78813  Biso   1.000  O
  O41      1.0000 0.31700  0.09522  0.81263  Biso   1.000  O
  O42      1.0000 0.35780  0.22510  0.91010  Biso   1.000  O
  O43      1.0000 0.85260  0.39420  0.83719  Biso   1.000  O
  C5       1.0000 0.84120  0.38290  0.59330  Biso   1.000  C
  H9       1.0000 0.78940  0.43160  0.56390  Biso   1.000  H
  H10      1.0000 0.87630  0.34380  0.55980  Biso   1.000  H
  C6       1.0000 0.16220  0.09920  0.90510  Biso   1.000  C
  H11      1.0000 0.12430  0.14130  0.93540  Biso   1.000  H
  H12      1.0000 0.21200  0.05230  0.93780  Biso   1.000  H
  O44      1.0000 0.60400  0.57860  0.71980  Biso   1.000  O
  O45      1.0000 0.93300  0.31100  0.83970  Biso   1.000  O
  V11      1.0000 0.98450  0.25700  0.77270  Biso   1.000  V
  V12      1.0000 0.72620  0.51440  0.72650  Biso   1.000  V
  V13      1.0000 0.52090  0.72070  0.72495  Biso   1.000  V
  V14      1.0000 0.28023  0.96372  0.77307  Biso   1.000  V
  P13      1.0000 0.24970  0.81043  0.64002  Biso   1.000  P
  P14      1.0000 0.75905  0.66729  0.85781  Biso   1.000  P
  P15      1.0000 0.46509  0.93901  0.66253  Biso   1.000  P
  P16      1.0000 0.54319  0.53978  0.83586  Biso   1.000  P
  F7       1.0000 0.89010  0.75260  0.56695  Biso   1.000  F
  F8       1.0000 0.11400  0.72641  0.93599  Biso   1.000  F
  O46      1.0000 0.14710  0.75610  0.58757  Biso   1.000  O
  O47      1.0000 0.19670  0.87962  0.68993  Biso   1.000  O
  O48      1.0000 0.40060  0.99788  0.71378  Biso   1.000  O
  O49      1.0000 0.54240  0.00130  0.62426  Biso   1.000  O
  O50      1.0000 0.54210  0.85838  0.70892  Biso   1.000  O
  O51      1.0000 0.33780  0.73777  0.68797  Biso   1.000  O
  O52      1.0000 0.46850  0.61850  0.78661  Biso   1.000  O
  O53      1.0000 0.67290  0.73723  0.80514  Biso   1.000  O
  O54      1.0000 0.46300  0.48019  0.87390  Biso   1.000  O
  O55      1.0000 0.61040  0.47760  0.78813  Biso   1.000  O
  O56      1.0000 0.81700  0.59522  0.81263  Biso   1.000  O
  O57      1.0000 0.85780  0.72510  0.91010  Biso   1.000  O
  O58      1.0000 0.35260  0.89420  0.83719  Biso   1.000  O
  C7       1.0000 0.34120  0.88290  0.59330  Biso   1.000  C
  H13      1.0000 0.28940  0.93160  0.56390  Biso   1.000  H
  H14      1.0000 0.37630  0.84380  0.55980  Biso   1.000  H
  C8       1.0000 0.66220  0.59920  0.90510  Biso   1.000  C
  H15      1.0000 0.62430  0.64130  0.93540  Biso   1.000  H
  H16      1.0000 0.71200  0.55230  0.93780  Biso   1.000  H
  O59      1.0000 0.10400  0.07860  0.71980  Biso   1.000  O
  O60      1.0000 0.43300  0.81100  0.83970  Biso   1.000  O
  V15      1.0000 0.48450  0.75700  0.77270  Biso   1.000  V
  V16      1.0000 0.22620  0.01440  0.72650  Biso   1.000  V
  V17      1.0000 0.50000  0.27460  0.50000  Biso   1.000  V
  V18      1.0000 0.00000  0.77460  0.50000  Biso   1.000  V
  V19      1.0000 0.50000  0.20429  0.00000  Biso   1.000  V
  V20      1.0000 0.00000  0.70429  0.00000  Biso   1.000  V
