data_YACHUH_clean
_audit_creation_date              2014-07-02
_audit_creation_method            'Materials Studio'
_symmetry_space_group_name_H-M    'P1'
_symmetry_Int_Tables_number       1
_symmetry_cell_setting            triclinic
loop_
_symmetry_equiv_pos_as_xyz
  x,y,z
_cell_length_a                    10.0681
_cell_length_b                    10.7454
_cell_length_c                    13.7073
_cell_angle_alpha                 79.1610
_cell_angle_beta                  78.8120
_cell_angle_gamma                 86.5680
loop_
_atom_site_label
_atom_site_type_symbol
_atom_site_fract_x
_atom_site_fract_y
_atom_site_fract_z
_atom_site_U_iso_or_equiv
_atom_site_adp_type
_atom_site_occupancy
Yb1    Yb    0.31943   0.92217   0.79567   0.01267  Uiso   1.00
Yb2    Yb    0.68057   0.07783   0.20433   0.01267  Uiso   1.00
Co1    Co    1.00000   0.50000   0.00000   0.01267  Uiso   1.00
H1     H     0.28090   0.35960   0.86870   0.01267  Uiso   1.00
H2     H     0.34730   0.32680   0.57540   0.01267  Uiso   1.00
H3     H     0.32880   0.67050   0.65150   0.01267  Uiso   1.00
H4     H     0.35610   0.45040   0.24040   0.01267  Uiso   1.00
H5     H     0.36520   0.56830   0.08260   0.01267  Uiso   1.00
H6     H     0.35430   0.88030   0.18520   0.01267  Uiso   1.00
H7     H     0.34660   0.77320   0.34820   0.01267  Uiso   1.00
H8     H     0.82240   0.91410   0.78420   0.01267  Uiso   1.00
H9     H     0.69340   0.85700   0.53730   0.01267  Uiso   1.00
H10    H     0.09090   0.84070   0.54310   0.01267  Uiso   1.00
H11    H     0.00720   0.47630   0.37070   0.01267  Uiso   1.00
H12    H     0.01510   0.40720   0.22170   0.01267  Uiso   1.00
H13    H     0.03370   0.75180   0.07060   0.01267  Uiso   1.00
H14    H     0.01750   0.83220   0.21520   0.01267  Uiso   1.00
H15    H     0.38080   0.64600   0.48030   0.01267  Uiso   1.00
H16    H     0.88070   0.84620   0.38180   0.01267  Uiso   1.00
H17    H     0.71910   0.64040   0.13130   0.01267  Uiso   1.00
H18    H     0.65270   0.67320   0.42460   0.01267  Uiso   1.00
H19    H     0.67120   0.32950   0.34850   0.01267  Uiso   1.00
H20    H     0.64390   0.54960   0.75960   0.01267  Uiso   1.00
H21    H     0.63480   0.43170   0.91740   0.01267  Uiso   1.00
H22    H     0.64570   0.11970   0.81480   0.01267  Uiso   1.00
H23    H     0.65340   0.22680   0.65180   0.01267  Uiso   1.00
H24    H     0.17760   0.08590   0.21580   0.01267  Uiso   1.00
H25    H     0.30660   0.14300   0.46270   0.01267  Uiso   1.00
H26    H     0.90910   0.15930   0.45690   0.01267  Uiso   1.00
H27    H     0.99280   0.52370   0.62930   0.01267  Uiso   1.00
H28    H     0.98490   0.59280   0.77830   0.01267  Uiso   1.00
H29    H     0.96630   0.24820   0.92940   0.01267  Uiso   1.00
H30    H     0.98250   0.16780   0.78480   0.01267  Uiso   1.00
H31    H     0.61920   0.35400   0.51970   0.01267  Uiso   1.00
H32    H     0.11930   0.15380   0.61820   0.01267  Uiso   1.00
C1     C     0.30030   0.52770   0.77210   0.01267  Uiso   1.00
C2     C     0.29640   0.39720   0.80080   0.01267  Uiso   1.00
C3     C     0.31640   0.32310   0.72530   0.01267  Uiso   1.00
C4     C     0.33520   0.37780   0.62440   0.01267  Uiso   1.00
C5     C     0.33610   0.50870   0.59590   0.01267  Uiso   1.00
C6     C     0.32270   0.58290   0.67010   0.01267  Uiso   1.00
C7     C     0.31210   0.18220   0.75230   0.01267  Uiso   1.00
C8     C     0.26900   0.60910   0.85200   0.01267  Uiso   1.00
C9     C     0.33180   0.51600   0.41680   0.01267  Uiso   1.00
C10    C     0.34850   0.59880   0.31450   0.01267  Uiso   1.00
C11    C     0.35550   0.53840   0.23140   0.01267  Uiso   1.00
C12    C     0.36130   0.61010   0.13670   0.01267  Uiso   1.00
C13    C     0.35520   0.79220   0.19690   0.01267  Uiso   1.00
C14    C     0.34960   0.72860   0.29590   0.01267  Uiso   1.00
C15    C     0.09370   0.89150   0.71910   0.01267  Uiso   1.00
C16    C     0.97370   0.88090   0.67060   0.01267  Uiso   1.00
C17    C     0.84060   0.89690   0.71880   0.01267  Uiso   1.00
C18    C     0.73690   0.88750   0.67020   0.01267  Uiso   1.00
C19    C     0.76410   0.86050   0.57130   0.01267  Uiso   1.00
C20    C     0.89480   0.83940   0.52570   0.01267  Uiso   1.00
C21    C     0.00170   0.85190   0.57480   0.01267  Uiso   1.00
C22    C     0.59080   0.90310   0.71670   0.01267  Uiso   1.00
C23    C     0.00570   0.70680   0.40890   0.01267  Uiso   1.00
C24    C     0.00860   0.66450   0.31020   0.01267  Uiso   1.00
C25    C     0.00990   0.53430   0.31080   0.01267  Uiso   1.00
C26    C     0.01530   0.49400   0.22070   0.01267  Uiso   1.00
C27    C     0.02500   0.69620   0.13210   0.01267  Uiso   1.00
C28    C     0.01710   0.74500   0.21850   0.01267  Uiso   1.00
C29    C     0.69970   0.47230   0.22790   0.01267  Uiso   1.00
C30    C     0.70360   0.60280   0.19920   0.01267  Uiso   1.00
C31    C     0.68360   0.67690   0.27470   0.01267  Uiso   1.00
C32    C     0.66480   0.62220   0.37560   0.01267  Uiso   1.00
C33    C     0.66390   0.49130   0.40410   0.01267  Uiso   1.00
C34    C     0.67730   0.41710   0.32990   0.01267  Uiso   1.00
C35    C     0.68790   0.81780   0.24770   0.01267  Uiso   1.00
C36    C     0.73100   0.39090   0.14800   0.01267  Uiso   1.00
C37    C     0.66820   0.48400   0.58320   0.01267  Uiso   1.00
C38    C     0.65150   0.40120   0.68550   0.01267  Uiso   1.00
C39    C     0.64450   0.46160   0.76860   0.01267  Uiso   1.00
C40    C     0.63870   0.38990   0.86330   0.01267  Uiso   1.00
C41    C     0.64480   0.20780   0.80310   0.01267  Uiso   1.00
C42    C     0.65040   0.27140   0.70410   0.01267  Uiso   1.00
C43    C     0.90630   0.10850   0.28090   0.01267  Uiso   1.00
C44    C     0.02630   0.11910   0.32940   0.01267  Uiso   1.00
C45    C     0.15940   0.10310   0.28120   0.01267  Uiso   1.00
C46    C     0.26310   0.11250   0.32980   0.01267  Uiso   1.00
C47    C     0.23590   0.13950   0.42870   0.01267  Uiso   1.00
C48    C     0.10520   0.16060   0.47430   0.01267  Uiso   1.00
C49    C     0.99830   0.14810   0.42520   0.01267  Uiso   1.00
C50    C     0.40920   0.09690   0.28330   0.01267  Uiso   1.00
C51    C     0.99430   0.29320   0.59110   0.01267  Uiso   1.00
C52    C     0.99140   0.33550   0.68980   0.01267  Uiso   1.00
C53    C     0.99010   0.46570   0.68920   0.01267  Uiso   1.00
C54    C     0.98470   0.50600   0.77930   0.01267  Uiso   1.00
C55    C     0.97500   0.30380   0.86790   0.01267  Uiso   1.00
C56    C     0.98290   0.25500   0.78150   0.01267  Uiso   1.00
N1     N     0.35380   0.56910   0.49450   0.01267  Uiso   1.00
N2     N     0.36170   0.73550   0.11830   0.01267  Uiso   1.00
N3     N     0.92030   0.80450   0.42860   0.01267  Uiso   1.00
N4     N     0.02070   0.57080   0.13270   0.01267  Uiso   1.00
N5     N     0.64620   0.43090   0.50550   0.01267  Uiso   1.00
N6     N     0.63830   0.26450   0.88170   0.01267  Uiso   1.00
N7     N     0.07970   0.19550   0.57140   0.01267  Uiso   1.00
N8     N     0.97930   0.42920   0.86730   0.01267  Uiso   1.00
O1     O     0.19360   0.56840   0.93320   0.01267  Uiso   1.00
O2     O     0.32450   0.71660   0.83040   0.01267  Uiso   1.00
O3     O     0.29350   0.11790   0.68940   0.01267  Uiso   1.00
O4     O     0.32920   0.12540   0.83840   0.01267  Uiso   1.00
O5     O     0.30570   0.40570   0.42520   0.01267  Uiso   1.00
O6     O     0.20960   0.88370   0.66940   0.01267  Uiso   1.00
O7     O     0.07640   0.90800   0.81070   0.01267  Uiso   1.00
O8     O     0.55620   0.90330   0.81100   0.01267  Uiso   1.00
O9     O     0.50110   0.91670   0.66470   0.01267  Uiso   1.00
O10    O     0.07730   0.65150   0.46720   0.01267  Uiso   1.00
O11    O     0.80640   0.43160   0.06680   0.01267  Uiso   1.00
O12    O     0.67550   0.28340   0.16960   0.01267  Uiso   1.00
O13    O     0.70650   0.88210   0.31060   0.01267  Uiso   1.00
O14    O     0.67080   0.87460   0.16160   0.01267  Uiso   1.00
O15    O     0.69430   0.59430   0.57480   0.01267  Uiso   1.00
O16    O     0.79040   0.11630   0.33060   0.01267  Uiso   1.00
O17    O     0.92360   0.09200   0.18930   0.01267  Uiso   1.00
O18    O     0.44380   0.09670   0.18900   0.01267  Uiso   1.00
O19    O     0.49890   0.08330   0.33530   0.01267  Uiso   1.00
O20    O     0.92270   0.34850   0.53280   0.01267  Uiso   1.00
