data_YACHIV_clean
_audit_creation_date              2014-07-02
_audit_creation_method            'Materials Studio'
_symmetry_space_group_name_H-M    'P1'
_symmetry_Int_Tables_number       1
_symmetry_cell_setting            triclinic
loop_
_symmetry_equiv_pos_as_xyz
  x,y,z
_cell_length_a                    10.1160
_cell_length_b                    10.8180
_cell_length_c                    13.7310
_cell_angle_alpha                 79.1430
_cell_angle_beta                  78.7930
_cell_angle_gamma                 86.2960
loop_
_atom_site_label
_atom_site_type_symbol
_atom_site_fract_x
_atom_site_fract_y
_atom_site_fract_z
_atom_site_U_iso_or_equiv
_atom_site_adp_type
_atom_site_occupancy
Tb1    Tb    0.31899   0.92252   0.29687   0.01267  Uiso   1.00
Tb2    Tb    0.68101   0.07748   0.70313   0.01267  Uiso   1.00
Co1    Co    0.00000   0.50000   0.50000   0.01267  Uiso   1.00
H1     H     0.32740   0.66960   0.15300   0.01267  Uiso   1.00
H2     H     0.34650   0.32880   0.07660   0.01267  Uiso   1.00
H3     H     0.28150   0.36040   0.36810   0.01267  Uiso   1.00
H4     H     0.34570   0.77370   0.85090   0.01267  Uiso   1.00
H5     H     0.35340   0.88120   0.68990   0.01267  Uiso   1.00
H6     H     0.36530   0.57180   0.58510   0.01267  Uiso   1.00
H7     H     0.35690   0.45440   0.74270   0.01267  Uiso   1.00
H8     H     0.82330   0.91380   0.28140   0.01267  Uiso   1.00
H9     H     0.08950   0.83880   0.04080   0.01267  Uiso   1.00
H10    H     0.69520   0.85340   0.03640   0.01267  Uiso   1.00
H11    H     0.01710   0.82920   0.71590   0.01267  Uiso   1.00
H12    H     0.03280   0.74910   0.57130   0.01267  Uiso   1.00
H13    H     0.01400   0.40720   0.72300   0.01267  Uiso   1.00
H14    H     0.00840   0.47730   0.87080   0.01267  Uiso   1.00
H15    H     0.37940   0.64580   0.98220   0.01267  Uiso   1.00
H16    H     0.88130   0.84280   0.88070   0.01267  Uiso   1.00
H17    H     0.67260   0.33040   0.84700   0.01267  Uiso   1.00
H18    H     0.65350   0.67120   0.92340   0.01267  Uiso   1.00
H19    H     0.71850   0.63960   0.63190   0.01267  Uiso   1.00
H20    H     0.65430   0.22630   0.14910   0.01267  Uiso   1.00
H21    H     0.64660   0.11880   0.31010   0.01267  Uiso   1.00
H22    H     0.63470   0.42820   0.41490   0.01267  Uiso   1.00
H23    H     0.64310   0.54560   0.25730   0.01267  Uiso   1.00
H24    H     0.17670   0.08620   0.71860   0.01267  Uiso   1.00
H25    H     0.91050   0.16120   0.95920   0.01267  Uiso   1.00
H26    H     0.30480   0.14660   0.96360   0.01267  Uiso   1.00
H27    H     0.98290   0.17080   0.28410   0.01267  Uiso   1.00
H28    H     0.96720   0.25090   0.42870   0.01267  Uiso   1.00
H29    H     0.98600   0.59280   0.27700   0.01267  Uiso   1.00
H30    H     0.99160   0.52270   0.12920   0.01267  Uiso   1.00
H31    H     0.62060   0.35420   0.01780   0.01267  Uiso   1.00
H32    H     0.11870   0.15720   0.11930   0.01267  Uiso   1.00
C1     C     0.29840   0.52770   0.27320   0.01267  Uiso   1.00
C2     C     0.32170   0.58260   0.17140   0.01267  Uiso   1.00
C3     C     0.33640   0.50960   0.09750   0.01267  Uiso   1.00
C4     C     0.33480   0.37920   0.12570   0.01267  Uiso   1.00
C5     C     0.31590   0.32490   0.22630   0.01267  Uiso   1.00
C6     C     0.29620   0.39810   0.30040   0.01267  Uiso   1.00
C7     C     0.31270   0.18490   0.25280   0.01267  Uiso   1.00
C8     C     0.26730   0.60600   0.35380   0.01267  Uiso   1.00
C9     C     0.33390   0.51780   0.91810   0.01267  Uiso   1.00
C10    C     0.34790   0.59970   0.81610   0.01267  Uiso   1.00
C11    C     0.34860   0.73010   0.79820   0.01267  Uiso   1.00
C12    C     0.35380   0.79370   0.70090   0.01267  Uiso   1.00
C13    C     0.36060   0.61300   0.63940   0.01267  Uiso   1.00
C14    C     0.35540   0.54180   0.73410   0.01267  Uiso   1.00
C15    C     0.73750   0.88580   0.16810   0.01267  Uiso   1.00
C16    C     0.84140   0.89610   0.21640   0.01267  Uiso   1.00
C17    C     0.97410   0.88000   0.16830   0.01267  Uiso   1.00
C18    C     0.00080   0.85040   0.07270   0.01267  Uiso   1.00
C19    C     0.89580   0.83780   0.02420   0.01267  Uiso   1.00
C20    C     0.76540   0.85810   0.07020   0.01267  Uiso   1.00
C21    C     0.59290   0.90190   0.21500   0.01267  Uiso   1.00
C22    C     0.09110   0.89060   0.21760   0.01267  Uiso   1.00
C23    C     0.00590   0.70500   0.90780   0.01267  Uiso   1.00
C24    C     0.00950   0.66170   0.80970   0.01267  Uiso   1.00
C25    C     0.01700   0.74260   0.71890   0.01267  Uiso   1.00
C26    C     0.02460   0.69360   0.63270   0.01267  Uiso   1.00
C27    C     0.01500   0.49340   0.72140   0.01267  Uiso   1.00
C28    C     0.01060   0.53440   0.81080   0.01267  Uiso   1.00
C29    C     0.70160   0.47230   0.72680   0.01267  Uiso   1.00
C30    C     0.67830   0.41740   0.82860   0.01267  Uiso   1.00
C31    C     0.66360   0.49040   0.90250   0.01267  Uiso   1.00
C32    C     0.66520   0.62080   0.87430   0.01267  Uiso   1.00
C33    C     0.68410   0.67510   0.77370   0.01267  Uiso   1.00
C34    C     0.70380   0.60190   0.69960   0.01267  Uiso   1.00
C35    C     0.68730   0.81510   0.74720   0.01267  Uiso   1.00
C36    C     0.73270   0.39400   0.64620   0.01267  Uiso   1.00
C37    C     0.66610   0.48220   0.08190   0.01267  Uiso   1.00
C38    C     0.65210   0.40030   0.18390   0.01267  Uiso   1.00
C39    C     0.65140   0.26990   0.20180   0.01267  Uiso   1.00
C40    C     0.64620   0.20630   0.29910   0.01267  Uiso   1.00
C41    C     0.63940   0.38700   0.36060   0.01267  Uiso   1.00
C42    C     0.64460   0.45820   0.26590   0.01267  Uiso   1.00
C43    C     0.26250   0.11420   0.83190   0.01267  Uiso   1.00
C44    C     0.15860   0.10390   0.78360   0.01267  Uiso   1.00
C45    C     0.02590   0.12000   0.83170   0.01267  Uiso   1.00
C46    C     0.99920   0.14960   0.92730   0.01267  Uiso   1.00
C47    C     0.10420   0.16220   0.97580   0.01267  Uiso   1.00
C48    C     0.23460   0.14190   0.92980   0.01267  Uiso   1.00
C49    C     0.40710   0.09810   0.78500   0.01267  Uiso   1.00
C50    C     0.90890   0.10940   0.78240   0.01267  Uiso   1.00
C51    C     0.99410   0.29500   0.09220   0.01267  Uiso   1.00
C52    C     0.99050   0.33830   0.19030   0.01267  Uiso   1.00
C53    C     0.98300   0.25740   0.28110   0.01267  Uiso   1.00
C54    C     0.97540   0.30640   0.36730   0.01267  Uiso   1.00
C55    C     0.98500   0.50660   0.27860   0.01267  Uiso   1.00
C56    C     0.98940   0.46560   0.18920   0.01267  Uiso   1.00
N1     N     0.35370   0.56920   0.99600   0.01267  Uiso   1.00
N2     N     0.35930   0.73840   0.62180   0.01267  Uiso   1.00
N3     N     0.92110   0.80180   0.92740   0.01267  Uiso   1.00
N4     N     0.02070   0.57040   0.63210   0.01267  Uiso   1.00
N5     N     0.64630   0.43080   0.00400   0.01267  Uiso   1.00
N6     N     0.64070   0.26160   0.37820   0.01267  Uiso   1.00
N7     N     0.07890   0.19820   0.07260   0.01267  Uiso   1.00
N8     N     0.97930   0.42960   0.36790   0.01267  Uiso   1.00
O1     O     0.19290   0.56440   0.43510   0.01267  Uiso   1.00
O2     O     0.32010   0.71260   0.33560   0.01267  Uiso   1.00
O3     O     0.32930   0.12900   0.33880   0.01267  Uiso   1.00
O4     O     0.29390   0.12280   0.18950   0.01267  Uiso   1.00
O5     O     0.30790   0.40830   0.92600   0.01267  Uiso   1.00
O6     O     0.55900   0.90110   0.30930   0.01267  Uiso   1.00
O7     O     0.50370   0.91590   0.16250   0.01267  Uiso   1.00
O8     O     0.07320   0.90520   0.30920   0.01267  Uiso   1.00
O9     O     0.20820   0.88540   0.16740   0.01267  Uiso   1.00
O10    O     0.07540   0.64870   0.96690   0.01267  Uiso   1.00
O11    O     0.80710   0.43560   0.56490   0.01267  Uiso   1.00
O12    O     0.67990   0.28740   0.66440   0.01267  Uiso   1.00
O13    O     0.67070   0.87100   0.66120   0.01267  Uiso   1.00
O14    O     0.70610   0.87720   0.81050   0.01267  Uiso   1.00
O15    O     0.69210   0.59170   0.07400   0.01267  Uiso   1.00
O16    O     0.44100   0.09890   0.69070   0.01267  Uiso   1.00
O17    O     0.49630   0.08410   0.83750   0.01267  Uiso   1.00
O18    O     0.92680   0.09480   0.69080   0.01267  Uiso   1.00
O19    O     0.79180   0.11460   0.83260   0.01267  Uiso   1.00
O20    O     0.92460   0.35130   0.03310   0.01267  Uiso   1.00
