data_YADMIB_clean
_audit_creation_date              2014-07-02
_audit_creation_method            'Materials Studio'
_symmetry_space_group_name_H-M    'P1'
_symmetry_Int_Tables_number       1
_symmetry_cell_setting            triclinic
loop_
_symmetry_equiv_pos_as_xyz
  x,y,z
_cell_length_a                    10.0816
_cell_length_b                    10.7844
_cell_length_c                    13.7316
_cell_angle_alpha                 79.1740
_cell_angle_beta                  78.7710
_cell_angle_gamma                 86.3550
loop_
_atom_site_label
_atom_site_type_symbol
_atom_site_fract_x
_atom_site_fract_y
_atom_site_fract_z
_atom_site_U_iso_or_equiv
_atom_site_adp_type
_atom_site_occupancy
Er1    Er    0.18176   0.07776   0.20374   0.01267  Uiso   1.00
Er2    Er    0.81824   0.92224   0.79626   0.01267  Uiso   1.00
Co1    Co    0.50000   0.50000   0.00000   0.01267  Uiso   1.00
H1     H     0.17120   0.32930   0.34720   0.01267  Uiso   1.00
H2     H     0.15430   0.67340   0.42380   0.01267  Uiso   1.00
H3     H     0.21970   0.64060   0.13180   0.01267  Uiso   1.00
H4     H     0.14160   0.54740   0.75940   0.01267  Uiso   1.00
H5     H     0.13380   0.43020   0.91570   0.01267  Uiso   1.00
H6     H     0.14420   0.11840   0.81120   0.01267  Uiso   1.00
H7     H     0.15430   0.22700   0.65090   0.01267  Uiso   1.00
H8     H     0.80540   0.14730   0.46250   0.01267  Uiso   1.00
H9     H     0.41040   0.15800   0.45870   0.01267  Uiso   1.00
H10    H     0.67630   0.08530   0.21650   0.01267  Uiso   1.00
H11    H     0.49230   0.52170   0.62910   0.01267  Uiso   1.00
H12    H     0.48500   0.59320   0.77750   0.01267  Uiso   1.00
H13    H     0.46460   0.25030   0.92970   0.01267  Uiso   1.00
H14    H     0.48330   0.16700   0.78490   0.01267  Uiso   1.00
H15    H     0.11990   0.35370   0.51810   0.01267  Uiso   1.00
H16    H     0.61690   0.15400   0.61940   0.01267  Uiso   1.00
H17    H     0.82880   0.67070   0.65280   0.01267  Uiso   1.00
H18    H     0.84570   0.32660   0.57620   0.01267  Uiso   1.00
H19    H     0.78030   0.35940   0.86820   0.01267  Uiso   1.00
H20    H     0.85840   0.45260   0.24060   0.01267  Uiso   1.00
H21    H     0.86620   0.56980   0.08430   0.01267  Uiso   1.00
H22    H     0.85580   0.88160   0.18880   0.01267  Uiso   1.00
H23    H     0.84570   0.77300   0.34910   0.01267  Uiso   1.00
H24    H     0.19460   0.85270   0.53750   0.01267  Uiso   1.00
H25    H     0.58960   0.84200   0.54130   0.01267  Uiso   1.00
H26    H     0.32370   0.91470   0.78350   0.01267  Uiso   1.00
H27    H     0.50770   0.47830   0.37090   0.01267  Uiso   1.00
H28    H     0.51500   0.40680   0.22250   0.01267  Uiso   1.00
H29    H     0.53540   0.74970   0.07030   0.01267  Uiso   1.00
H30    H     0.51670   0.83300   0.21510   0.01267  Uiso   1.00
H31    H     0.88010   0.64630   0.48190   0.01267  Uiso   1.00
H32    H     0.38310   0.84600   0.38060   0.01267  Uiso   1.00
C1     C     0.20100   0.47260   0.22770   0.01267  Uiso   1.00
C2     C     0.17770   0.41650   0.32910   0.01267  Uiso   1.00
C3     C     0.16400   0.49090   0.40410   0.01267  Uiso   1.00
C4     C     0.16550   0.62230   0.37510   0.01267  Uiso   1.00
C5     C     0.18330   0.67570   0.27500   0.01267  Uiso   1.00
C6     C     0.20410   0.60280   0.19960   0.01267  Uiso   1.00
C7     C     0.18690   0.81630   0.24820   0.01267  Uiso   1.00
C8     C     0.23180   0.39260   0.14740   0.01267  Uiso   1.00
C9     C     0.16510   0.48310   0.58300   0.01267  Uiso   1.00
C10    C     0.15060   0.40000   0.68580   0.01267  Uiso   1.00
C11    C     0.14320   0.45970   0.76820   0.01267  Uiso   1.00
C12    C     0.13850   0.38840   0.86170   0.01267  Uiso   1.00
C13    C     0.14480   0.20610   0.80040   0.01267  Uiso   1.00
C14    C     0.15050   0.27060   0.70370   0.01267  Uiso   1.00
C15    C     0.76400   0.11290   0.33100   0.01267  Uiso   1.00
C16    C     0.73510   0.14140   0.42890   0.01267  Uiso   1.00
C17    C     0.60570   0.16030   0.47430   0.01267  Uiso   1.00
C18    C     0.49940   0.14790   0.42620   0.01267  Uiso   1.00
C19    C     0.52620   0.12040   0.33020   0.01267  Uiso   1.00
C20    C     0.65860   0.10320   0.28150   0.01267  Uiso   1.00
C21    C     0.90920   0.09810   0.28300   0.01267  Uiso   1.00
C22    C     0.40730   0.10840   0.28230   0.01267  Uiso   1.00
C23    C     0.49420   0.29350   0.59020   0.01267  Uiso   1.00
C24    C     0.49060   0.33640   0.69000   0.01267  Uiso   1.00
C25    C     0.48960   0.46450   0.68920   0.01267  Uiso   1.00
C26    C     0.48450   0.50670   0.77890   0.01267  Uiso   1.00
C27    C     0.47420   0.30510   0.86790   0.01267  Uiso   1.00
C28    C     0.48280   0.25400   0.78160   0.01267  Uiso   1.00
C29    C     0.79900   0.52740   0.77230   0.01267  Uiso   1.00
C30    C     0.82230   0.58350   0.67090   0.01267  Uiso   1.00
C31    C     0.83600   0.50910   0.59590   0.01267  Uiso   1.00
C32    C     0.83450   0.37770   0.62490   0.01267  Uiso   1.00
C33    C     0.81670   0.32430   0.72500   0.01267  Uiso   1.00
C34    C     0.79590   0.39720   0.80040   0.01267  Uiso   1.00
C35    C     0.81310   0.18370   0.75180   0.01267  Uiso   1.00
C36    C     0.76820   0.60740   0.85260   0.01267  Uiso   1.00
C37    C     0.83490   0.51690   0.41700   0.01267  Uiso   1.00
C38    C     0.84940   0.60000   0.31420   0.01267  Uiso   1.00
C39    C     0.85680   0.54030   0.23180   0.01267  Uiso   1.00
C40    C     0.86150   0.61160   0.13830   0.01267  Uiso   1.00
C41    C     0.85520   0.79390   0.19960   0.01267  Uiso   1.00
C42    C     0.84950   0.72940   0.29630   0.01267  Uiso   1.00
C43    C     0.23600   0.88710   0.66900   0.01267  Uiso   1.00
C44    C     0.26490   0.85860   0.57110   0.01267  Uiso   1.00
C45    C     0.39430   0.83970   0.52570   0.01267  Uiso   1.00
C46    C     0.50060   0.85210   0.57380   0.01267  Uiso   1.00
C47    C     0.47380   0.87960   0.66980   0.01267  Uiso   1.00
C48    C     0.34140   0.89680   0.71850   0.01267  Uiso   1.00
C49    C     0.09080   0.90190   0.71700   0.01267  Uiso   1.00
C50    C     0.59270   0.89160   0.71770   0.01267  Uiso   1.00
C51    C     0.50580   0.70650   0.40980   0.01267  Uiso   1.00
C52    C     0.50940   0.66360   0.31000   0.01267  Uiso   1.00
C53    C     0.51040   0.53550   0.31080   0.01267  Uiso   1.00
C54    C     0.51550   0.49330   0.22110   0.01267  Uiso   1.00
C55    C     0.52580   0.69490   0.13210   0.01267  Uiso   1.00
C56    C     0.51720   0.74600   0.21840   0.01267  Uiso   1.00
N1     N     0.14570   0.43060   0.50460   0.01267  Uiso   1.00
N2     N     0.14000   0.26240   0.88090   0.01267  Uiso   1.00
N3     N     0.57870   0.19570   0.57200   0.01267  Uiso   1.00
N4     N     0.47880   0.42900   0.86770   0.01267  Uiso   1.00
N5     N     0.85430   0.56940   0.49540   0.01267  Uiso   1.00
N6     N     0.86000   0.73760   0.11910   0.01267  Uiso   1.00
N7     N     0.42130   0.80430   0.42800   0.01267  Uiso   1.00
N8     N     0.52120   0.57100   0.13230   0.01267  Uiso   1.00
O1     O     0.30590   0.43440   0.06540   0.01267  Uiso   1.00
O2     O     0.17930   0.28530   0.16650   0.01267  Uiso   1.00
O3     O     0.17030   0.87290   0.16210   0.01267  Uiso   1.00
O4     O     0.20750   0.88000   0.31020   0.01267  Uiso   1.00
O5     O     0.19260   0.59300   0.57490   0.01267  Uiso   1.00
O6     O     0.94390   0.09850   0.18920   0.01267  Uiso   1.00
O7     O     0.99840   0.08410   0.33560   0.01267  Uiso   1.00
O8     O     0.42420   0.09210   0.19100   0.01267  Uiso   1.00
O9     O     0.29050   0.11560   0.33140   0.01267  Uiso   1.00
O10    O     0.42480   0.35030   0.53320   0.01267  Uiso   1.00
O11    O     0.69410   0.56560   0.93460   0.01267  Uiso   1.00
O12    O     0.82070   0.71470   0.83350   0.01267  Uiso   1.00
O13    O     0.82970   0.12710   0.83790   0.01267  Uiso   1.00
O14    O     0.79250   0.12000   0.68980   0.01267  Uiso   1.00
O15    O     0.80740   0.40700   0.42510   0.01267  Uiso   1.00
O16    O     0.05610   0.90150   0.81080   0.01267  Uiso   1.00
O17    O     0.00160   0.91590   0.66440   0.01267  Uiso   1.00
O18    O     0.57580   0.90790   0.80900   0.01267  Uiso   1.00
O19    O     0.70950   0.88440   0.66860   0.01267  Uiso   1.00
O20    O     0.57520   0.64970   0.46680   0.01267  Uiso   1.00
