data_YAFGAP_clean
_audit_creation_date              2014-07-02
_audit_creation_method            'Materials Studio'
_symmetry_space_group_name_H-M    'P1'
_symmetry_Int_Tables_number       1
_symmetry_cell_setting            triclinic
loop_
_symmetry_equiv_pos_as_xyz
  x,y,z
_cell_length_a                    8.9121
_cell_length_b                    9.1697
_cell_length_c                    9.1697
_cell_angle_alpha                 76.3404
_cell_angle_beta                  60.9249
_cell_angle_gamma                 60.9249
loop_
_atom_site_label
_atom_site_type_symbol
_atom_site_fract_x
_atom_site_fract_y
_atom_site_fract_z
_atom_site_U_iso_or_equiv
_atom_site_adp_type
_atom_site_occupancy
K1     K     0.87500   0.25000   0.25000   0.01267  Uiso   1.00
K2     K     0.12500   0.75000   0.75000   0.01267  Uiso   1.00
Lu1    Lu    0.37500   0.25000   0.25000   0.01267  Uiso   1.00
Lu2    Lu    0.62500   0.75000   0.75000   0.01267  Uiso   1.00
C1     C     0.39580   0.02110   0.02670   0.01267  Uiso   1.00
C2     C     0.94360   0.47890   0.47330   0.01267  Uiso   1.00
C3     C     0.42250   0.97330   0.52110   0.01267  Uiso   1.00
C4     C     0.41690   0.52670   0.97890   0.01267  Uiso   1.00
C5     C     0.60420   0.97890   0.97330   0.01267  Uiso   1.00
C6     C     0.05640   0.52110   0.52670   0.01267  Uiso   1.00
C7     C     0.57750   0.02670   0.47890   0.01267  Uiso   1.00
C8     C     0.58310   0.47330   0.02110   0.01267  Uiso   1.00
O1     O     0.27334   0.12546   0.14026   0.01267  Uiso   1.00
O2     O     0.36826   0.94384   0.95124   0.01267  Uiso   1.00
O3     O     0.03906   0.37454   0.35974   0.01267  Uiso   1.00
O4     O     0.76334   0.55616   0.54876   0.01267  Uiso   1.00
O5     O     0.41360   0.85974   0.62546   0.01267  Uiso   1.00
O6     O     0.31950   0.04876   0.44384   0.01267  Uiso   1.00
O7     O     0.39880   0.64026   0.87454   0.01267  Uiso   1.00
O8     O     0.31210   0.45124   0.05616   0.01267  Uiso   1.00
O9     O     0.72666   0.87454   0.85974   0.01267  Uiso   1.00
O10    O     0.63174   0.05616   0.04876   0.01267  Uiso   1.00
O11    O     0.96094   0.62546   0.64026   0.01267  Uiso   1.00
O12    O     0.23666   0.44384   0.45124   0.01267  Uiso   1.00
O13    O     0.58640   0.14026   0.37454   0.01267  Uiso   1.00
O14    O     0.68050   0.95124   0.55616   0.01267  Uiso   1.00
O15    O     0.60120   0.35974   0.12546   0.01267  Uiso   1.00
O16    O     0.68790   0.54876   0.94384   0.01267  Uiso   1.00
