data_image0
_cell_length_a       11.6714
_cell_length_b       11.9186
_cell_length_c       12.1094
_cell_angle_alpha    65.096
_cell_angle_beta     79.897
_cell_angle_gamma    72.275

_symmetry_space_group_name_H-M    "P 1"
_symmetry_int_tables_number       1

loop_
  _symmetry_equiv_pos_as_xyz
  'x, y, z'

loop_
  _atom_site_label
  _atom_site_occupancy
  _atom_site_fract_x
  _atom_site_fract_y
  _atom_site_fract_z
  _atom_site_thermal_displace_type
  _atom_site_B_iso_or_equiv
  _atom_site_type_symbol
  O1       1.0000 0.94760  0.09590  0.12550  Biso   1.000  O
  O2       1.0000 0.95800  0.07240  0.31440  Biso   1.000  O
  O3       1.0000 0.94950  0.64310  0.58060  Biso   1.000  O
  O4       1.0000 0.91320  0.84890  0.54490  Biso   1.000  O
  N1       1.0000 0.01060  0.84510  0.18010  Biso   1.000  N
  N2       1.0000 0.02430  0.72010  0.22740  Biso   1.000  N
  N3       1.0000 0.00350  0.68080  0.34690  Biso   1.000  N
  N4       1.0000 0.19490  0.99960  0.00710  Biso   1.000  N
  N5       1.0000 0.79710  0.54110  0.48120  Biso   1.000  N
  N6       1.0000 0.18050  0.86780  0.47050  Biso   1.000  N
  C1       1.0000 0.97900  0.88800  0.27310  Biso   1.000  C
  C2       1.0000 0.97410  0.78280  0.37730  Biso   1.000  C
  C3       1.0000 0.95970  0.02920  0.23780  Biso   1.000  C
  C4       1.0000 0.94430  0.75780  0.51160  Biso   1.000  C
  C5       1.0000 0.28370  0.89500  0.02700  Biso   1.000  C
  H1       1.0000 0.26480  0.81890  0.04330  Biso   1.000  H
  C6       1.0000 0.40160  0.89200  0.02500  Biso   1.000  C
  H2       1.0000 0.45990  0.81490  0.03950  Biso   1.000  H
  C7       1.0000 0.43630  0.00070  0.00220  Biso   1.000  C
  C8       1.0000 0.34340  0.10840  0.98440  Biso   1.000  C
  H3       1.0000 0.35920  0.18500  0.97170  Biso   1.000  H
  C9       1.0000 0.22690  0.10400  0.98510  Biso   1.000  C
  H4       1.0000 0.16660  0.18000  0.96900  Biso   1.000  H
  C10      1.0000 0.72510  0.52540  0.58050  Biso   1.000  C
  H5       1.0000 0.75940  0.47510  0.65540  Biso   1.000  H
  C11      1.0000 0.60310  0.57830  0.58070  Biso   1.000  C
  H6       1.0000 0.55730  0.56370  0.65410  Biso   1.000  H
  C12      1.0000 0.54850  0.65310  0.47180  Biso   1.000  C
  C13      1.0000 0.62370  0.66630  0.36680  Biso   1.000  C
  H7       1.0000 0.59210  0.71400  0.29040  Biso   1.000  H
  C14      1.0000 0.74540  0.60830  0.37670  Biso   1.000  C
  H8       1.0000 0.79370  0.61720  0.30530  Biso   1.000  H
  C15      1.0000 0.41910  0.72320  0.46740  Biso   1.000  C
  C16      1.0000 0.33790  0.68030  0.56340  Biso   1.000  C
  H9       1.0000 0.36230  0.60230  0.62830  Biso   1.000  H
  C17      1.0000 0.22130  0.75350  0.56230  Biso   1.000  C
  H10      1.0000 0.16810  0.72330  0.62760  Biso   1.000  H
  C18      1.0000 0.25700  0.90540  0.37880  Biso   1.000  C
  H11      1.0000 0.23000  0.98250  0.31380  Biso   1.000  H
  C19      1.0000 0.37590  0.83720  0.37300  Biso   1.000  C
  H12      1.0000 0.42630  0.86850  0.30520  Biso   1.000  H
  O5       1.0000 0.05240  0.90410  0.87450  Biso   1.000  O
  O6       1.0000 0.04200  0.92760  0.68560  Biso   1.000  O
  O7       1.0000 0.05050  0.35690  0.41940  Biso   1.000  O
  O8       1.0000 0.08680  0.15110  0.45510  Biso   1.000  O
  N7       1.0000 0.98940  0.15490  0.81990  Biso   1.000  N
  N8       1.0000 0.97570  0.27990  0.77260  Biso   1.000  N
  N9       1.0000 0.99650  0.31920  0.65310  Biso   1.000  N
  N10      1.0000 0.80510  0.00040  0.99290  Biso   1.000  N
  N11      1.0000 0.20290  0.45890  0.51880  Biso   1.000  N
  N12      1.0000 0.81950  0.13220  0.52950  Biso   1.000  N
  C20      1.0000 0.02100  0.11200  0.72690  Biso   1.000  C
  C21      1.0000 0.02590  0.21720  0.62270  Biso   1.000  C
  C22      1.0000 0.04030  0.97080  0.76220  Biso   1.000  C
  C23      1.0000 0.05570  0.24220  0.48840  Biso   1.000  C
  C24      1.0000 0.71630  0.10500  0.97300  Biso   1.000  C
  H13      1.0000 0.73520  0.18110  0.95670  Biso   1.000  H
  C25      1.0000 0.59840  0.10800  0.97500  Biso   1.000  C
  H14      1.0000 0.54010  0.18510  0.96050  Biso   1.000  H
  C26      1.0000 0.56370  0.99930  0.99780  Biso   1.000  C
  C27      1.0000 0.65660  0.89160  0.01560  Biso   1.000  C
  H15      1.0000 0.64080  0.81500  0.02830  Biso   1.000  H
  C28      1.0000 0.77310  0.89600  0.01490  Biso   1.000  C
  H16      1.0000 0.83340  0.82000  0.03100  Biso   1.000  H
  C29      1.0000 0.27490  0.47460  0.41950  Biso   1.000  C
  H17      1.0000 0.24060  0.52490  0.34460  Biso   1.000  H
  C30      1.0000 0.39690  0.42170  0.41930  Biso   1.000  C
  H18      1.0000 0.44270  0.43630  0.34590  Biso   1.000  H
  C31      1.0000 0.45150  0.34690  0.52820  Biso   1.000  C
  C32      1.0000 0.37630  0.33370  0.63320  Biso   1.000  C
  H19      1.0000 0.40790  0.28600  0.70960  Biso   1.000  H
  C33      1.0000 0.25460  0.39170  0.62330  Biso   1.000  C
  H20      1.0000 0.20630  0.38280  0.69470  Biso   1.000  H
  C34      1.0000 0.58090  0.27680  0.53260  Biso   1.000  C
  C35      1.0000 0.66210  0.31970  0.43660  Biso   1.000  C
  H21      1.0000 0.63770  0.39770  0.37170  Biso   1.000  H
  C36      1.0000 0.77870  0.24650  0.43770  Biso   1.000  C
  H22      1.0000 0.83190  0.27670  0.37240  Biso   1.000  H
  C37      1.0000 0.74300  0.09460  0.62120  Biso   1.000  C
  H23      1.0000 0.77000  0.01750  0.68620  Biso   1.000  H
  C38      1.0000 0.62410  0.16280  0.62700  Biso   1.000  C
  H24      1.0000 0.57370  0.13150  0.69480  Biso   1.000  H
  Mn1      1.0000 0.00000  0.00000  0.00000  Biso   1.000  Mn
  Mn2      1.0000 0.00000  0.50000  0.50000  Biso   1.000  Mn
  Mn3      1.0000 0.00000  0.00000  0.50000  Biso   1.000  Mn
