data_image0
_cell_length_a       17.983
_cell_length_b       9.859
_cell_length_c       19.84
_cell_angle_alpha    90
_cell_angle_beta     106.24
_cell_angle_gamma    90

_symmetry_space_group_name_H-M    "P 1"
_symmetry_int_tables_number       1

loop_
  _symmetry_equiv_pos_as_xyz
  'x, y, z'

loop_
  _atom_site_label
  _atom_site_occupancy
  _atom_site_fract_x
  _atom_site_fract_y
  _atom_site_fract_z
  _atom_site_thermal_displace_type
  _atom_site_B_iso_or_equiv
  _atom_site_type_symbol
  Ga1      1.0000 0.07520  0.07190  0.50110  Biso   1.000  Ga
  Ga2      1.0000 0.19060  0.57910  0.66120  Biso   1.000  Ga
  Ga3      1.0000 0.19030  0.81750  0.75940  Biso   1.000  Ga
  P1       1.0000 0.08120  0.82770  0.60490  Biso   1.000  P
  P2       1.0000 0.14090  0.27200  0.63160  Biso   1.000  P
  P3       1.0000 0.16560  0.01960  0.38490  Biso   1.000  P
  F1       1.0000 0.00830  0.92270  0.44990  Biso   1.000  F
  F2       1.0000 0.14580  0.63770  0.73970  Biso   1.000  F
  F3       1.0000 0.24440  0.75350  0.69090  Biso   1.000  F
  O1       1.0000 0.11310  0.68580  0.59940  Biso   1.000  O
  O2       1.0000 0.11850  0.93020  0.56660  Biso   1.000  O
  O3       1.0000 0.99240  0.81840  0.57170  Biso   1.000  O
  O4       1.0000 0.09800  0.87070  0.68310  Biso   1.000  O
  O5       1.0000 0.15240  0.05800  0.45380  Biso   1.000  O
  O6       1.0000 0.12140  0.22760  0.55510  Biso   1.000  O
  O7       1.0000 0.14550  0.13960  0.33280  Biso   1.000  O
  O8       1.0000 0.22270  0.23310  0.67110  Biso   1.000  O
  O9       1.0000 0.08310  0.19700  0.66750  Biso   1.000  O
  O10      1.0000 0.12480  0.42270  0.63840  Biso   1.000  O
  O11      1.0000 0.24860  0.96160  0.40070  Biso   1.000  O
  O12      1.0000 0.10970  0.90070  0.35020  Biso   1.000  O
  O13      1.0000 0.26350  0.49110  0.73850  Biso   1.000  O
  H1       1.0000 0.28000  0.46000  0.21000  Biso   1.000  H
  Ga4      1.0000 0.57520  0.57190  0.50110  Biso   1.000  Ga
  Ga5      1.0000 0.69060  0.07910  0.66120  Biso   1.000  Ga
  Ga6      1.0000 0.69030  0.31750  0.75940  Biso   1.000  Ga
  P4       1.0000 0.58120  0.32770  0.60490  Biso   1.000  P
  P5       1.0000 0.64090  0.77200  0.63160  Biso   1.000  P
  P6       1.0000 0.66560  0.51960  0.38490  Biso   1.000  P
  F4       1.0000 0.50830  0.42270  0.44990  Biso   1.000  F
  F5       1.0000 0.64580  0.13770  0.73970  Biso   1.000  F
  F6       1.0000 0.74440  0.25350  0.69090  Biso   1.000  F
  O14      1.0000 0.61310  0.18580  0.59940  Biso   1.000  O
  O15      1.0000 0.61850  0.43020  0.56660  Biso   1.000  O
  O16      1.0000 0.49240  0.31840  0.57170  Biso   1.000  O
  O17      1.0000 0.59800  0.37070  0.68310  Biso   1.000  O
  O18      1.0000 0.65240  0.55800  0.45380  Biso   1.000  O
  O19      1.0000 0.62140  0.72760  0.55510  Biso   1.000  O
  O20      1.0000 0.64550  0.63960  0.33280  Biso   1.000  O
  O21      1.0000 0.72270  0.73310  0.67110  Biso   1.000  O
  O22      1.0000 0.58310  0.69700  0.66750  Biso   1.000  O
  O23      1.0000 0.62480  0.92270  0.63840  Biso   1.000  O
  O24      1.0000 0.74860  0.46160  0.40070  Biso   1.000  O
  O25      1.0000 0.60970  0.40070  0.35020  Biso   1.000  O
  O26      1.0000 0.76350  0.99110  0.73850  Biso   1.000  O
  H2       1.0000 0.78000  0.96000  0.21000  Biso   1.000  H
  Ga7      1.0000 0.92480  0.07190  0.99890  Biso   1.000  Ga
  Ga8      1.0000 0.80940  0.57910  0.83880  Biso   1.000  Ga
  Ga9      1.0000 0.80970  0.81750  0.74060  Biso   1.000  Ga
  P7       1.0000 0.91880  0.82770  0.89510  Biso   1.000  P
  P8       1.0000 0.85910  0.27200  0.86840  Biso   1.000  P
  P9       1.0000 0.83440  0.01960  0.11510  Biso   1.000  P
  F7       1.0000 0.99170  0.92270  0.05010  Biso   1.000  F
  F8       1.0000 0.85420  0.63770  0.76030  Biso   1.000  F
  F9       1.0000 0.75560  0.75350  0.80910  Biso   1.000  F
  O27      1.0000 0.88690  0.68580  0.90060  Biso   1.000  O
  O28      1.0000 0.88150  0.93020  0.93340  Biso   1.000  O
  O29      1.0000 0.00760  0.81840  0.92830  Biso   1.000  O
  O30      1.0000 0.90200  0.87070  0.81690  Biso   1.000  O
  O31      1.0000 0.84760  0.05800  0.04620  Biso   1.000  O
  O32      1.0000 0.87860  0.22760  0.94490  Biso   1.000  O
  O33      1.0000 0.85450  0.13960  0.16720  Biso   1.000  O
  O34      1.0000 0.77730  0.23310  0.82890  Biso   1.000  O
  O35      1.0000 0.91690  0.19700  0.83250  Biso   1.000  O
  O36      1.0000 0.87520  0.42270  0.86160  Biso   1.000  O
  O37      1.0000 0.75140  0.96160  0.09930  Biso   1.000  O
  O38      1.0000 0.89030  0.90070  0.14980  Biso   1.000  O
  O39      1.0000 0.73650  0.49110  0.76150  Biso   1.000  O
  H3       1.0000 0.72000  0.46000  0.29000  Biso   1.000  H
  Ga10     1.0000 0.42480  0.57190  0.99890  Biso   1.000  Ga
  Ga11     1.0000 0.30940  0.07910  0.83880  Biso   1.000  Ga
  Ga12     1.0000 0.30970  0.31750  0.74060  Biso   1.000  Ga
  P10      1.0000 0.41880  0.32770  0.89510  Biso   1.000  P
  P11      1.0000 0.35910  0.77200  0.86840  Biso   1.000  P
  P12      1.0000 0.33440  0.51960  0.11510  Biso   1.000  P
  F10      1.0000 0.49170  0.42270  0.05010  Biso   1.000  F
  F11      1.0000 0.35420  0.13770  0.76030  Biso   1.000  F
  F12      1.0000 0.25560  0.25350  0.80910  Biso   1.000  F
  O40      1.0000 0.38690  0.18580  0.90060  Biso   1.000  O
  O41      1.0000 0.38150  0.43020  0.93340  Biso   1.000  O
  O42      1.0000 0.50760  0.31840  0.92830  Biso   1.000  O
  O43      1.0000 0.40200  0.37070  0.81690  Biso   1.000  O
  O44      1.0000 0.34760  0.55800  0.04620  Biso   1.000  O
  O45      1.0000 0.37860  0.72760  0.94490  Biso   1.000  O
  O46      1.0000 0.35450  0.63960  0.16720  Biso   1.000  O
  O47      1.0000 0.27730  0.73310  0.82890  Biso   1.000  O
  O48      1.0000 0.41690  0.69700  0.83250  Biso   1.000  O
  O49      1.0000 0.37520  0.92270  0.86160  Biso   1.000  O
  O50      1.0000 0.25140  0.46160  0.09930  Biso   1.000  O
  O51      1.0000 0.39030  0.40070  0.14980  Biso   1.000  O
  O52      1.0000 0.23650  0.99110  0.76150  Biso   1.000  O
  H4       1.0000 0.22000  0.96000  0.29000  Biso   1.000  H
  Ga13     1.0000 0.92480  0.92810  0.49890  Biso   1.000  Ga
  Ga14     1.0000 0.80940  0.42090  0.33880  Biso   1.000  Ga
  Ga15     1.0000 0.80970  0.18250  0.24060  Biso   1.000  Ga
  P13      1.0000 0.91880  0.17230  0.39510  Biso   1.000  P
  P14      1.0000 0.85910  0.72800  0.36840  Biso   1.000  P
  P15      1.0000 0.83440  0.98040  0.61510  Biso   1.000  P
  F13      1.0000 0.99170  0.07730  0.55010  Biso   1.000  F
  F14      1.0000 0.85420  0.36230  0.26030  Biso   1.000  F
  F15      1.0000 0.75560  0.24650  0.30910  Biso   1.000  F
  O53      1.0000 0.88690  0.31420  0.40060  Biso   1.000  O
  O54      1.0000 0.88150  0.06980  0.43340  Biso   1.000  O
  O55      1.0000 0.00760  0.18160  0.42830  Biso   1.000  O
  O56      1.0000 0.90200  0.12930  0.31690  Biso   1.000  O
  O57      1.0000 0.84760  0.94200  0.54620  Biso   1.000  O
  O58      1.0000 0.87860  0.77240  0.44490  Biso   1.000  O
  O59      1.0000 0.85450  0.86040  0.66720  Biso   1.000  O
  O60      1.0000 0.77730  0.76690  0.32890  Biso   1.000  O
  O61      1.0000 0.91690  0.80300  0.33250  Biso   1.000  O
  O62      1.0000 0.87520  0.57730  0.36160  Biso   1.000  O
  O63      1.0000 0.75140  0.03840  0.59930  Biso   1.000  O
  O64      1.0000 0.89030  0.09930  0.64980  Biso   1.000  O
  O65      1.0000 0.73650  0.50890  0.26150  Biso   1.000  O
  H5       1.0000 0.72000  0.54000  0.79000  Biso   1.000  H
  Ga16     1.0000 0.42480  0.42810  0.49890  Biso   1.000  Ga
  Ga17     1.0000 0.30940  0.92090  0.33880  Biso   1.000  Ga
  Ga18     1.0000 0.30970  0.68250  0.24060  Biso   1.000  Ga
  P16      1.0000 0.41880  0.67230  0.39510  Biso   1.000  P
  P17      1.0000 0.35910  0.22800  0.36840  Biso   1.000  P
  P18      1.0000 0.33440  0.48040  0.61510  Biso   1.000  P
  F16      1.0000 0.49170  0.57730  0.55010  Biso   1.000  F
  F17      1.0000 0.35420  0.86230  0.26030  Biso   1.000  F
  F18      1.0000 0.25560  0.74650  0.30910  Biso   1.000  F
  O66      1.0000 0.38690  0.81420  0.40060  Biso   1.000  O
  O67      1.0000 0.38150  0.56980  0.43340  Biso   1.000  O
  O68      1.0000 0.50760  0.68160  0.42830  Biso   1.000  O
  O69      1.0000 0.40200  0.62930  0.31690  Biso   1.000  O
  O70      1.0000 0.34760  0.44200  0.54620  Biso   1.000  O
  O71      1.0000 0.37860  0.27240  0.44490  Biso   1.000  O
  O72      1.0000 0.35450  0.36040  0.66720  Biso   1.000  O
  O73      1.0000 0.27730  0.26690  0.32890  Biso   1.000  O
  O74      1.0000 0.41690  0.30300  0.33250  Biso   1.000  O
  O75      1.0000 0.37520  0.07730  0.36160  Biso   1.000  O
  O76      1.0000 0.25140  0.53840  0.59930  Biso   1.000  O
  O77      1.0000 0.39030  0.59930  0.64980  Biso   1.000  O
  O78      1.0000 0.23650  0.00890  0.26150  Biso   1.000  O
  H6       1.0000 0.22000  0.04000  0.79000  Biso   1.000  H
  Ga19     1.0000 0.07520  0.92810  0.00110  Biso   1.000  Ga
  Ga20     1.0000 0.19060  0.42090  0.16120  Biso   1.000  Ga
  Ga21     1.0000 0.19030  0.18250  0.25940  Biso   1.000  Ga
  P19      1.0000 0.08120  0.17230  0.10490  Biso   1.000  P
  P20      1.0000 0.14090  0.72800  0.13160  Biso   1.000  P
  P21      1.0000 0.16560  0.98040  0.88490  Biso   1.000  P
  F19      1.0000 0.00830  0.07730  0.94990  Biso   1.000  F
  F20      1.0000 0.14580  0.36230  0.23970  Biso   1.000  F
  F21      1.0000 0.24440  0.24650  0.19090  Biso   1.000  F
  O79      1.0000 0.11310  0.31420  0.09940  Biso   1.000  O
  O80      1.0000 0.11850  0.06980  0.06660  Biso   1.000  O
  O81      1.0000 0.99240  0.18160  0.07170  Biso   1.000  O
  O82      1.0000 0.09800  0.12930  0.18310  Biso   1.000  O
  O83      1.0000 0.15240  0.94200  0.95380  Biso   1.000  O
  O84      1.0000 0.12140  0.77240  0.05510  Biso   1.000  O
  O85      1.0000 0.14550  0.86040  0.83280  Biso   1.000  O
  O86      1.0000 0.22270  0.76690  0.17110  Biso   1.000  O
  O87      1.0000 0.08310  0.80300  0.16750  Biso   1.000  O
  O88      1.0000 0.12480  0.57730  0.13840  Biso   1.000  O
  O89      1.0000 0.24860  0.03840  0.90070  Biso   1.000  O
  O90      1.0000 0.10970  0.09930  0.85020  Biso   1.000  O
  O91      1.0000 0.26350  0.50890  0.23850  Biso   1.000  O
  H7       1.0000 0.28000  0.54000  0.71000  Biso   1.000  H
  Ga22     1.0000 0.57520  0.42810  0.00110  Biso   1.000  Ga
  Ga23     1.0000 0.69060  0.92090  0.16120  Biso   1.000  Ga
  Ga24     1.0000 0.69030  0.68250  0.25940  Biso   1.000  Ga
  P22      1.0000 0.58120  0.67230  0.10490  Biso   1.000  P
  P23      1.0000 0.64090  0.22800  0.13160  Biso   1.000  P
  P24      1.0000 0.66560  0.48040  0.88490  Biso   1.000  P
  F22      1.0000 0.50830  0.57730  0.94990  Biso   1.000  F
  F23      1.0000 0.64580  0.86230  0.23970  Biso   1.000  F
  F24      1.0000 0.74440  0.74650  0.19090  Biso   1.000  F
  O92      1.0000 0.61310  0.81420  0.09940  Biso   1.000  O
  O93      1.0000 0.61850  0.56980  0.06660  Biso   1.000  O
  O94      1.0000 0.49240  0.68160  0.07170  Biso   1.000  O
  O95      1.0000 0.59800  0.62930  0.18310  Biso   1.000  O
  O96      1.0000 0.65240  0.44200  0.95380  Biso   1.000  O
  O97      1.0000 0.62140  0.27240  0.05510  Biso   1.000  O
  O98      1.0000 0.64550  0.36040  0.83280  Biso   1.000  O
  O99      1.0000 0.72270  0.26690  0.17110  Biso   1.000  O
  O100     1.0000 0.58310  0.30300  0.16750  Biso   1.000  O
  O101     1.0000 0.62480  0.07730  0.13840  Biso   1.000  O
  O102     1.0000 0.74860  0.53840  0.90070  Biso   1.000  O
  O103     1.0000 0.60970  0.59930  0.85020  Biso   1.000  O
  O104     1.0000 0.76350  0.00890  0.23850  Biso   1.000  O
  H8       1.0000 0.78000  0.04000  0.71000  Biso   1.000  H
