data_YAHPED_clean
_audit_creation_date              2014-07-02
_audit_creation_method            'Materials Studio'
_symmetry_space_group_name_H-M    'P1'
_symmetry_Int_Tables_number       1
_symmetry_cell_setting            triclinic
loop_
_symmetry_equiv_pos_as_xyz
  x,y,z
_cell_length_a                    11.2480
_cell_length_b                    14.9450
_cell_length_c                    16.8010
_cell_angle_alpha                 90.0000
_cell_angle_beta                  90.0000
_cell_angle_gamma                 103.7320
loop_
_atom_site_label
_atom_site_type_symbol
_atom_site_fract_x
_atom_site_fract_y
_atom_site_fract_z
_atom_site_U_iso_or_equiv
_atom_site_adp_type
_atom_site_occupancy
Ni1    Ni    0.01458   0.86709   0.04010   0.01267  Uiso   1.00
Ni2    Ni    0.98542   0.63291   0.54010   0.01267  Uiso   1.00
Ni3    Ni    0.98542   0.13291   0.95990   0.01267  Uiso   1.00
Ni4    Ni    0.01458   0.36709   0.45990   0.01267  Uiso   1.00
H1     H     0.96920   0.34040   0.04120   0.01267  Uiso   1.00
H2     H     0.82720   0.92280   0.14590   0.01267  Uiso   1.00
H3     H     0.78840   0.79000   0.94230   0.01267  Uiso   1.00
H4     H     0.62570   0.93270   0.14410   0.01267  Uiso   1.00
H5     H     0.58380   0.79660   0.93510   0.01267  Uiso   1.00
H6     H     0.44840   0.93800   0.14180   0.01267  Uiso   1.00
H7     H     0.40650   0.81120   0.92940   0.01267  Uiso   1.00
H8     H     0.24380   0.94030   0.13710   0.01267  Uiso   1.00
H9     H     0.20070   0.81400   0.93350   0.01267  Uiso   1.00
H10    H     0.00910   0.56290   0.07220   0.01267  Uiso   1.00
H11    H     0.00130   0.69690   0.28120   0.01267  Uiso   1.00
H12    H     0.05040   0.43670   0.28130   0.01267  Uiso   1.00
H13    H     0.03080   0.15960   0.54120   0.01267  Uiso   1.00
H14    H     0.17280   0.57720   0.64590   0.01267  Uiso   1.00
H15    H     0.21160   0.71000   0.44230   0.01267  Uiso   1.00
H16    H     0.37430   0.56730   0.64410   0.01267  Uiso   1.00
H17    H     0.41620   0.70340   0.43510   0.01267  Uiso   1.00
H18    H     0.55160   0.56200   0.64180   0.01267  Uiso   1.00
H19    H     0.59350   0.68880   0.42940   0.01267  Uiso   1.00
H20    H     0.75620   0.55970   0.63710   0.01267  Uiso   1.00
H21    H     0.79930   0.68600   0.43350   0.01267  Uiso   1.00
H22    H     0.99090   0.93710   0.57220   0.01267  Uiso   1.00
H23    H     0.99870   0.80310   0.78120   0.01267  Uiso   1.00
H24    H     0.94960   0.06330   0.78130   0.01267  Uiso   1.00
H25    H     0.03080   0.65960   0.95880   0.01267  Uiso   1.00
H26    H     0.17280   0.07720   0.85410   0.01267  Uiso   1.00
H27    H     0.21160   0.21000   0.05770   0.01267  Uiso   1.00
H28    H     0.37430   0.06730   0.85590   0.01267  Uiso   1.00
H29    H     0.41620   0.20340   0.06490   0.01267  Uiso   1.00
H30    H     0.55160   0.06200   0.85820   0.01267  Uiso   1.00
H31    H     0.59350   0.18880   0.07060   0.01267  Uiso   1.00
H32    H     0.75620   0.05970   0.86290   0.01267  Uiso   1.00
H33    H     0.79930   0.18600   0.06650   0.01267  Uiso   1.00
H34    H     0.99090   0.43710   0.92780   0.01267  Uiso   1.00
H35    H     0.99870   0.30310   0.71880   0.01267  Uiso   1.00
H36    H     0.94960   0.56330   0.71870   0.01267  Uiso   1.00
H37    H     0.96920   0.84040   0.45880   0.01267  Uiso   1.00
H38    H     0.82720   0.42280   0.35410   0.01267  Uiso   1.00
H39    H     0.78840   0.29000   0.55770   0.01267  Uiso   1.00
H40    H     0.62570   0.43270   0.35590   0.01267  Uiso   1.00
H41    H     0.58380   0.29660   0.56490   0.01267  Uiso   1.00
H42    H     0.44840   0.43800   0.35820   0.01267  Uiso   1.00
H43    H     0.40650   0.31120   0.57060   0.01267  Uiso   1.00
H44    H     0.24380   0.44030   0.36290   0.01267  Uiso   1.00
H45    H     0.20070   0.31400   0.56650   0.01267  Uiso   1.00
H46    H     0.00910   0.06290   0.42780   0.01267  Uiso   1.00
H47    H     0.00130   0.19690   0.21880   0.01267  Uiso   1.00
H48    H     0.05040   0.93670   0.21870   0.01267  Uiso   1.00
C1     C     0.77730   0.89740   0.10200   0.01267  Uiso   1.00
C2     C     0.75510   0.82010   0.98360   0.01267  Uiso   1.00
C3     C     0.65730   0.90370   0.10140   0.01267  Uiso   1.00
C4     C     0.63260   0.82390   0.97880   0.01267  Uiso   1.00
C5     C     0.58300   0.86720   0.03780   0.01267  Uiso   1.00
C6     C     0.45120   0.87140   0.03720   0.01267  Uiso   1.00
C7     C     0.39990   0.91110   0.09770   0.01267  Uiso   1.00
C8     C     0.37520   0.83680   0.97420   0.01267  Uiso   1.00
C9     C     0.27650   0.91190   0.09450   0.01267  Uiso   1.00
C10    C     0.25150   0.83960   0.97690   0.01267  Uiso   1.00
C11    C     0.02200   0.56210   0.38400   0.01267  Uiso   1.00
C12    C     0.00790   0.64330   0.16910   0.01267  Uiso   1.00
C13    C     0.01440   0.56420   0.12870   0.01267  Uiso   1.00
C14    C     0.00950   0.64380   0.25270   0.01267  Uiso   1.00
C15    C     0.02860   0.48610   0.16960   0.01267  Uiso   1.00
C16    C     0.02310   0.56590   0.29310   0.01267  Uiso   1.00
C17    C     0.03630   0.48810   0.25290   0.01267  Uiso   1.00
C18    C     0.03780   0.40170   0.12660   0.01267  Uiso   1.00
C19    C     0.00000   0.72700   0.12350   0.01267  Uiso   1.00
C20    C     0.22270   0.60260   0.60200   0.01267  Uiso   1.00
C21    C     0.24490   0.67990   0.48360   0.01267  Uiso   1.00
C22    C     0.34270   0.59630   0.60140   0.01267  Uiso   1.00
C23    C     0.36740   0.67610   0.47880   0.01267  Uiso   1.00
C24    C     0.41700   0.63280   0.53780   0.01267  Uiso   1.00
C25    C     0.54880   0.62860   0.53720   0.01267  Uiso   1.00
C26    C     0.60010   0.58890   0.59770   0.01267  Uiso   1.00
C27    C     0.62480   0.66320   0.47420   0.01267  Uiso   1.00
C28    C     0.72350   0.58810   0.59450   0.01267  Uiso   1.00
C29    C     0.74850   0.66040   0.47690   0.01267  Uiso   1.00
C30    C     0.97800   0.93790   0.88400   0.01267  Uiso   1.00
C31    C     0.99210   0.85670   0.66910   0.01267  Uiso   1.00
C32    C     0.98560   0.93580   0.62870   0.01267  Uiso   1.00
C33    C     0.99050   0.85620   0.75270   0.01267  Uiso   1.00
C34    C     0.97140   0.01390   0.66960   0.01267  Uiso   1.00
C35    C     0.97690   0.93410   0.79310   0.01267  Uiso   1.00
C36    C     0.96370   0.01190   0.75290   0.01267  Uiso   1.00
C37    C     0.96220   0.09830   0.62660   0.01267  Uiso   1.00
C38    C     0.00000   0.77300   0.62350   0.01267  Uiso   1.00
C39    C     0.22270   0.10260   0.89800   0.01267  Uiso   1.00
C40    C     0.24490   0.17990   0.01640   0.01267  Uiso   1.00
C41    C     0.34270   0.09630   0.89860   0.01267  Uiso   1.00
C42    C     0.36740   0.17610   0.02120   0.01267  Uiso   1.00
C43    C     0.41700   0.13280   0.96220   0.01267  Uiso   1.00
C44    C     0.54880   0.12860   0.96280   0.01267  Uiso   1.00
C45    C     0.60010   0.08890   0.90230   0.01267  Uiso   1.00
C46    C     0.62480   0.16320   0.02580   0.01267  Uiso   1.00
C47    C     0.72350   0.08810   0.90550   0.01267  Uiso   1.00
C48    C     0.74850   0.16040   0.02310   0.01267  Uiso   1.00
C49    C     0.97800   0.43790   0.61600   0.01267  Uiso   1.00
C50    C     0.99210   0.35670   0.83090   0.01267  Uiso   1.00
C51    C     0.98560   0.43580   0.87130   0.01267  Uiso   1.00
C52    C     0.99050   0.35620   0.74730   0.01267  Uiso   1.00
C53    C     0.97140   0.51390   0.83040   0.01267  Uiso   1.00
C54    C     0.97690   0.43410   0.70690   0.01267  Uiso   1.00
C55    C     0.96370   0.51190   0.74710   0.01267  Uiso   1.00
C56    C     0.96220   0.59830   0.87340   0.01267  Uiso   1.00
C57    C     0.00000   0.27300   0.87650   0.01267  Uiso   1.00
C58    C     0.77730   0.39740   0.39800   0.01267  Uiso   1.00
C59    C     0.75510   0.32010   0.51640   0.01267  Uiso   1.00
C60    C     0.65730   0.40370   0.39860   0.01267  Uiso   1.00
C61    C     0.63260   0.32390   0.52120   0.01267  Uiso   1.00
C62    C     0.58300   0.36720   0.46220   0.01267  Uiso   1.00
C63    C     0.45120   0.37140   0.46280   0.01267  Uiso   1.00
C64    C     0.39990   0.41110   0.40230   0.01267  Uiso   1.00
C65    C     0.37520   0.33680   0.52580   0.01267  Uiso   1.00
C66    C     0.27650   0.41190   0.40550   0.01267  Uiso   1.00
C67    C     0.25150   0.33960   0.52310   0.01267  Uiso   1.00
C68    C     0.02200   0.06210   0.11600   0.01267  Uiso   1.00
C69    C     0.00790   0.14330   0.33090   0.01267  Uiso   1.00
C70    C     0.01440   0.06420   0.37130   0.01267  Uiso   1.00
C71    C     0.00950   0.14380   0.24730   0.01267  Uiso   1.00
C72    C     0.02860   0.98610   0.33040   0.01267  Uiso   1.00
C73    C     0.02310   0.06590   0.20690   0.01267  Uiso   1.00
C74    C     0.03630   0.98810   0.24710   0.01267  Uiso   1.00
C75    C     0.03780   0.90170   0.37340   0.01267  Uiso   1.00
C76    C     0.00000   0.22700   0.37650   0.01267  Uiso   1.00
N1     N     0.82740   0.85730   0.04400   0.01267  Uiso   1.00
N2     N     0.20150   0.87550   0.03580   0.01267  Uiso   1.00
N3     N     0.17260   0.64270   0.54400   0.01267  Uiso   1.00
N4     N     0.79850   0.62450   0.53580   0.01267  Uiso   1.00
N5     N     0.17260   0.14270   0.95600   0.01267  Uiso   1.00
N6     N     0.79850   0.12450   0.96420   0.01267  Uiso   1.00
N7     N     0.82740   0.35730   0.45600   0.01267  Uiso   1.00
N8     N     0.20150   0.37550   0.46420   0.01267  Uiso   1.00
O1     O     0.00910   0.80210   0.15730   0.01267  Uiso   1.00
O2     O     0.98720   0.72250   0.04730   0.01267  Uiso   1.00
O3     O     0.98520   0.62370   0.42030   0.01267  Uiso   1.00
O4     O     0.05660   0.49660   0.41530   0.01267  Uiso   1.00
O5     O     0.09180   0.34720   0.15060   0.01267  Uiso   1.00
O6     O     0.97690   0.39380   0.05940   0.01267  Uiso   1.00
O7     O     0.99090   0.69790   0.65730   0.01267  Uiso   1.00
O8     O     0.01280   0.77750   0.54730   0.01267  Uiso   1.00
O9     O     0.01480   0.87630   0.92030   0.01267  Uiso   1.00
O10    O     0.94340   0.00340   0.91530   0.01267  Uiso   1.00
O11    O     0.90820   0.15280   0.65060   0.01267  Uiso   1.00
O12    O     0.02310   0.10620   0.55940   0.01267  Uiso   1.00
O13    O     0.99090   0.19790   0.84270   0.01267  Uiso   1.00
O14    O     0.01280   0.27750   0.95270   0.01267  Uiso   1.00
O15    O     0.01480   0.37630   0.57970   0.01267  Uiso   1.00
O16    O     0.94340   0.50340   0.58470   0.01267  Uiso   1.00
O17    O     0.90820   0.65280   0.84940   0.01267  Uiso   1.00
O18    O     0.02310   0.60620   0.94060   0.01267  Uiso   1.00
O19    O     0.00910   0.30210   0.34270   0.01267  Uiso   1.00
O20    O     0.98720   0.22250   0.45270   0.01267  Uiso   1.00
O21    O     0.98520   0.12370   0.07970   0.01267  Uiso   1.00
O22    O     0.05660   0.99660   0.08470   0.01267  Uiso   1.00
O23    O     0.09180   0.84720   0.34940   0.01267  Uiso   1.00
O24    O     0.97690   0.89380   0.44060   0.01267  Uiso   1.00
