data_image0
_cell_length_a       17.4301
_cell_length_b       26.27
_cell_length_c       15.4596
_cell_angle_alpha    90
_cell_angle_beta     113.498
_cell_angle_gamma    90

_symmetry_space_group_name_H-M    "P 1"
_symmetry_int_tables_number       1

loop_
  _symmetry_equiv_pos_as_xyz
  'x, y, z'

loop_
  _atom_site_label
  _atom_site_occupancy
  _atom_site_fract_x
  _atom_site_fract_y
  _atom_site_fract_z
  _atom_site_thermal_displace_type
  _atom_site_B_iso_or_equiv
  _atom_site_type_symbol
  U1       1.0000 0.14958  0.73791  0.58417  Biso   1.000  U
  Zn1      1.0000 0.26599  0.46999  0.50064  Biso   1.000  Zn
  N1       1.0000 0.38990  0.44385  0.56350  Biso   1.000  N
  N2       1.0000 0.33640  0.53793  0.56410  Biso   1.000  N
  C1       1.0000 0.14150  0.68650  0.74100  Biso   1.000  C
  N3       1.0000 0.20110  0.59796  0.94630  Biso   1.000  N
  C2       1.0000 0.14210  0.66197  0.82810  Biso   1.000  C
  N4       1.0000 0.21560  0.54772  0.09920  Biso   1.000  N
  C3       1.0000 0.47170  0.57449  0.61840  Biso   1.000  C
  H1       1.0000 0.52950  0.57060  0.64280  Biso   1.000  H
  C4       1.0000 0.19290  0.61987  0.86500  Biso   1.000  C
  H2       1.0000 0.22250  0.60640  0.83180  Biso   1.000  H
  C5       1.0000 0.49290  0.37923  0.59310  Biso   1.000  C
  C6       1.0000 0.30770  0.67838  0.55260  Biso   1.000  C
  C7       1.0000 0.17410  0.59220  0.08540  Biso   1.000  C
  C8       1.0000 0.43570  0.62336  0.60430  Biso   1.000  C
  H3       1.0000 0.46910  0.65230  0.61640  Biso   1.000  H
  C9       1.0000 0.30280  0.58374  0.55340  Biso   1.000  C
  H4       1.0000 0.24500  0.58670  0.53230  Biso   1.000  H
  C10      1.0000 0.45080  0.47934  0.59980  Biso   1.000  C
  C11      1.0000 0.42030  0.53277  0.59570  Biso   1.000  C
  C12      1.0000 0.41120  0.39543  0.56080  Biso   1.000  C
  H5       1.0000 0.36890  0.37140  0.53590  Biso   1.000  H
  C13      1.0000 0.35080  0.62742  0.57260  Biso   1.000  C
  C14      1.0000 0.14810  0.61150  0.15220  Biso   1.000  C
  H6       1.0000 0.11780  0.64170  0.14120  Biso   1.000  H
  C15      1.0000 0.55610  0.41530  0.63010  Biso   1.000  C
  H7       1.0000 0.61200  0.40580  0.65230  Biso   1.000  H
  C16      1.0000 0.15870  0.61780  0.99460  Biso   1.000  C
  C17      1.0000 0.20970  0.54070  0.25100  Biso   1.000  C
  C18      1.0000 0.16790  0.58530  0.23580  Biso   1.000  C
  H8       1.0000 0.15220  0.59850  0.28220  Biso   1.000  H
  C19      1.0000 0.53370  0.46600  0.63330  Biso   1.000  C
  H9       1.0000 0.57490  0.49080  0.65800  Biso   1.000  H
  C20      1.0000 0.23270  0.52269  0.18040  Biso   1.000  C
  H10      1.0000 0.26120  0.49190  0.18970  Biso   1.000  H
  C21      1.0000 0.23240  0.51040  0.34000  Biso   1.000  C
  C22      1.0000 0.10540  0.65850  0.96140  Biso   1.000  C
  H11      1.0000 0.07470  0.67060  0.99440  Biso   1.000  H
  C23      1.0000 0.09850  0.68120  0.87780  Biso   1.000  C
  H12      1.0000 0.06440  0.70950  0.85530  Biso   1.000  H
  C24      1.0000 0.51030  0.32390  0.58190  Biso   1.000  C
  O1       1.0000 0.23250  0.67925  0.54300  Biso   1.000  O
  O2       1.0000 0.34850  0.71646  0.54580  Biso   1.000  O
  O3       1.0000 0.29240  0.47995  0.36100  Biso   1.000  O
  O4       1.0000 0.10350  0.72842  0.71440  Biso   1.000  O
  O5       1.0000 0.17770  0.66566  0.69480  Biso   1.000  O
  O6       1.0000 0.19280  0.51738  0.39100  Biso   1.000  O
  O7       1.0000 0.58530  0.31414  0.59500  Biso   1.000  O
  O8       1.0000 0.45490  0.29325  0.56410  Biso   1.000  O
  U2       1.0000 0.64958  0.23791  0.58417  Biso   1.000  U
  Zn2      1.0000 0.76599  0.96999  0.50064  Biso   1.000  Zn
  N5       1.0000 0.88990  0.94385  0.56350  Biso   1.000  N
  N6       1.0000 0.83640  0.03793  0.56410  Biso   1.000  N
  C25      1.0000 0.64150  0.18650  0.74100  Biso   1.000  C
  N7       1.0000 0.70110  0.09796  0.94630  Biso   1.000  N
  C26      1.0000 0.64210  0.16197  0.82810  Biso   1.000  C
  N8       1.0000 0.71560  0.04772  0.09920  Biso   1.000  N
  C27      1.0000 0.97170  0.07449  0.61840  Biso   1.000  C
  H13      1.0000 0.02950  0.07060  0.64280  Biso   1.000  H
  C28      1.0000 0.69290  0.11987  0.86500  Biso   1.000  C
  H14      1.0000 0.72250  0.10640  0.83180  Biso   1.000  H
  C29      1.0000 0.99290  0.87923  0.59310  Biso   1.000  C
  C30      1.0000 0.80770  0.17838  0.55260  Biso   1.000  C
  C31      1.0000 0.67410  0.09220  0.08540  Biso   1.000  C
  C32      1.0000 0.93570  0.12336  0.60430  Biso   1.000  C
  H15      1.0000 0.96910  0.15230  0.61640  Biso   1.000  H
  C33      1.0000 0.80280  0.08374  0.55340  Biso   1.000  C
  H16      1.0000 0.74500  0.08670  0.53230  Biso   1.000  H
  C34      1.0000 0.95080  0.97934  0.59980  Biso   1.000  C
  C35      1.0000 0.92030  0.03277  0.59570  Biso   1.000  C
  C36      1.0000 0.91120  0.89543  0.56080  Biso   1.000  C
  H17      1.0000 0.86890  0.87140  0.53590  Biso   1.000  H
  C37      1.0000 0.85080  0.12742  0.57260  Biso   1.000  C
  C38      1.0000 0.64810  0.11150  0.15220  Biso   1.000  C
  H18      1.0000 0.61780  0.14170  0.14120  Biso   1.000  H
  C39      1.0000 0.05610  0.91530  0.63010  Biso   1.000  C
  H19      1.0000 0.11200  0.90580  0.65230  Biso   1.000  H
  C40      1.0000 0.65870  0.11780  0.99460  Biso   1.000  C
  C41      1.0000 0.70970  0.04070  0.25100  Biso   1.000  C
  C42      1.0000 0.66790  0.08530  0.23580  Biso   1.000  C
  H20      1.0000 0.65220  0.09850  0.28220  Biso   1.000  H
  C43      1.0000 0.03370  0.96600  0.63330  Biso   1.000  C
  H21      1.0000 0.07490  0.99080  0.65800  Biso   1.000  H
  C44      1.0000 0.73270  0.02269  0.18040  Biso   1.000  C
  H22      1.0000 0.76120  0.99190  0.18970  Biso   1.000  H
  C45      1.0000 0.73240  0.01040  0.34000  Biso   1.000  C
  C46      1.0000 0.60540  0.15850  0.96140  Biso   1.000  C
  H23      1.0000 0.57470  0.17060  0.99440  Biso   1.000  H
  C47      1.0000 0.59850  0.18120  0.87780  Biso   1.000  C
  H24      1.0000 0.56440  0.20950  0.85530  Biso   1.000  H
  C48      1.0000 0.01030  0.82390  0.58190  Biso   1.000  C
  O9       1.0000 0.73250  0.17925  0.54300  Biso   1.000  O
  O10      1.0000 0.84850  0.21646  0.54580  Biso   1.000  O
  O11      1.0000 0.79240  0.97995  0.36100  Biso   1.000  O
  O12      1.0000 0.60350  0.22842  0.71440  Biso   1.000  O
  O13      1.0000 0.67770  0.16566  0.69480  Biso   1.000  O
  O14      1.0000 0.69280  0.01738  0.39100  Biso   1.000  O
  O15      1.0000 0.08530  0.81414  0.59500  Biso   1.000  O
  O16      1.0000 0.95490  0.79325  0.56410  Biso   1.000  O
  U3       1.0000 0.85042  0.73791  0.91583  Biso   1.000  U
  Zn3      1.0000 0.73401  0.46999  0.99936  Biso   1.000  Zn
  N9       1.0000 0.61010  0.44385  0.93650  Biso   1.000  N
  N10      1.0000 0.66360  0.53793  0.93590  Biso   1.000  N
  C49      1.0000 0.85850  0.68650  0.75900  Biso   1.000  C
  N11      1.0000 0.79890  0.59796  0.55370  Biso   1.000  N
  C50      1.0000 0.85790  0.66197  0.67190  Biso   1.000  C
  N12      1.0000 0.78440  0.54772  0.40080  Biso   1.000  N
  C51      1.0000 0.52830  0.57449  0.88160  Biso   1.000  C
  H25      1.0000 0.47050  0.57060  0.85720  Biso   1.000  H
  C52      1.0000 0.80710  0.61987  0.63500  Biso   1.000  C
  H26      1.0000 0.77750  0.60640  0.66820  Biso   1.000  H
  C53      1.0000 0.50710  0.37923  0.90690  Biso   1.000  C
  C54      1.0000 0.69230  0.67838  0.94740  Biso   1.000  C
  C55      1.0000 0.82590  0.59220  0.41460  Biso   1.000  C
  C56      1.0000 0.56430  0.62336  0.89570  Biso   1.000  C
  H27      1.0000 0.53090  0.65230  0.88360  Biso   1.000  H
  C57      1.0000 0.69720  0.58374  0.94660  Biso   1.000  C
  H28      1.0000 0.75500  0.58670  0.96770  Biso   1.000  H
  C58      1.0000 0.54920  0.47934  0.90020  Biso   1.000  C
  C59      1.0000 0.57970  0.53277  0.90430  Biso   1.000  C
  C60      1.0000 0.58880  0.39543  0.93920  Biso   1.000  C
  H29      1.0000 0.63110  0.37140  0.96410  Biso   1.000  H
  C61      1.0000 0.64920  0.62742  0.92740  Biso   1.000  C
  C62      1.0000 0.85190  0.61150  0.34780  Biso   1.000  C
  H30      1.0000 0.88220  0.64170  0.35880  Biso   1.000  H
  C63      1.0000 0.44390  0.41530  0.86990  Biso   1.000  C
  H31      1.0000 0.38800  0.40580  0.84770  Biso   1.000  H
  C64      1.0000 0.84130  0.61780  0.50540  Biso   1.000  C
  C65      1.0000 0.79030  0.54070  0.24900  Biso   1.000  C
  C66      1.0000 0.83210  0.58530  0.26420  Biso   1.000  C
  H32      1.0000 0.84780  0.59850  0.21780  Biso   1.000  H
  C67      1.0000 0.46630  0.46600  0.86670  Biso   1.000  C
  H33      1.0000 0.42510  0.49080  0.84200  Biso   1.000  H
  C68      1.0000 0.76730  0.52269  0.31960  Biso   1.000  C
  H34      1.0000 0.73880  0.49190  0.31030  Biso   1.000  H
  C69      1.0000 0.76760  0.51040  0.16000  Biso   1.000  C
  C70      1.0000 0.89460  0.65850  0.53860  Biso   1.000  C
  H35      1.0000 0.92530  0.67060  0.50560  Biso   1.000  H
  C71      1.0000 0.90150  0.68120  0.62220  Biso   1.000  C
  H36      1.0000 0.93560  0.70950  0.64470  Biso   1.000  H
  C72      1.0000 0.48970  0.32390  0.91810  Biso   1.000  C
  O17      1.0000 0.76750  0.67925  0.95700  Biso   1.000  O
  O18      1.0000 0.65150  0.71646  0.95420  Biso   1.000  O
  O19      1.0000 0.70760  0.47995  0.13900  Biso   1.000  O
  O20      1.0000 0.89650  0.72842  0.78560  Biso   1.000  O
  O21      1.0000 0.82230  0.66566  0.80520  Biso   1.000  O
  O22      1.0000 0.80720  0.51738  0.10900  Biso   1.000  O
  O23      1.0000 0.41470  0.31414  0.90500  Biso   1.000  O
  O24      1.0000 0.54510  0.29325  0.93590  Biso   1.000  O
  U4       1.0000 0.35042  0.23791  0.91583  Biso   1.000  U
  Zn4      1.0000 0.23401  0.96999  0.99936  Biso   1.000  Zn
  N13      1.0000 0.11010  0.94385  0.93650  Biso   1.000  N
  N14      1.0000 0.16360  0.03793  0.93590  Biso   1.000  N
  C73      1.0000 0.35850  0.18650  0.75900  Biso   1.000  C
  N15      1.0000 0.29890  0.09796  0.55370  Biso   1.000  N
  C74      1.0000 0.35790  0.16197  0.67190  Biso   1.000  C
  N16      1.0000 0.28440  0.04772  0.40080  Biso   1.000  N
  C75      1.0000 0.02830  0.07449  0.88160  Biso   1.000  C
  H37      1.0000 0.97050  0.07060  0.85720  Biso   1.000  H
  C76      1.0000 0.30710  0.11987  0.63500  Biso   1.000  C
  H38      1.0000 0.27750  0.10640  0.66820  Biso   1.000  H
  C77      1.0000 0.00710  0.87923  0.90690  Biso   1.000  C
  C78      1.0000 0.19230  0.17838  0.94740  Biso   1.000  C
  C79      1.0000 0.32590  0.09220  0.41460  Biso   1.000  C
  C80      1.0000 0.06430  0.12336  0.89570  Biso   1.000  C
  H39      1.0000 0.03090  0.15230  0.88360  Biso   1.000  H
  C81      1.0000 0.19720  0.08374  0.94660  Biso   1.000  C
  H40      1.0000 0.25500  0.08670  0.96770  Biso   1.000  H
  C82      1.0000 0.04920  0.97934  0.90020  Biso   1.000  C
  C83      1.0000 0.07970  0.03277  0.90430  Biso   1.000  C
  C84      1.0000 0.08880  0.89543  0.93920  Biso   1.000  C
  H41      1.0000 0.13110  0.87140  0.96410  Biso   1.000  H
  C85      1.0000 0.14920  0.12742  0.92740  Biso   1.000  C
  C86      1.0000 0.35190  0.11150  0.34780  Biso   1.000  C
  H42      1.0000 0.38220  0.14170  0.35880  Biso   1.000  H
  C87      1.0000 0.94390  0.91530  0.86990  Biso   1.000  C
  H43      1.0000 0.88800  0.90580  0.84770  Biso   1.000  H
  C88      1.0000 0.34130  0.11780  0.50540  Biso   1.000  C
  C89      1.0000 0.29030  0.04070  0.24900  Biso   1.000  C
  C90      1.0000 0.33210  0.08530  0.26420  Biso   1.000  C
  H44      1.0000 0.34780  0.09850  0.21780  Biso   1.000  H
  C91      1.0000 0.96630  0.96600  0.86670  Biso   1.000  C
  H45      1.0000 0.92510  0.99080  0.84200  Biso   1.000  H
  C92      1.0000 0.26730  0.02269  0.31960  Biso   1.000  C
  H46      1.0000 0.23880  0.99190  0.31030  Biso   1.000  H
  C93      1.0000 0.26760  0.01040  0.16000  Biso   1.000  C
  C94      1.0000 0.39460  0.15850  0.53860  Biso   1.000  C
  H47      1.0000 0.42530  0.17060  0.50560  Biso   1.000  H
  C95      1.0000 0.40150  0.18120  0.62220  Biso   1.000  C
  H48      1.0000 0.43560  0.20950  0.64470  Biso   1.000  H
  C96      1.0000 0.98970  0.82390  0.91810  Biso   1.000  C
  O25      1.0000 0.26750  0.17925  0.95700  Biso   1.000  O
  O26      1.0000 0.15150  0.21646  0.95420  Biso   1.000  O
  O27      1.0000 0.20760  0.97995  0.13900  Biso   1.000  O
  O28      1.0000 0.39650  0.22842  0.78560  Biso   1.000  O
  O29      1.0000 0.32230  0.16566  0.80520  Biso   1.000  O
  O30      1.0000 0.30720  0.01738  0.10900  Biso   1.000  O
  O31      1.0000 0.91470  0.81414  0.90500  Biso   1.000  O
  O32      1.0000 0.04510  0.79325  0.93590  Biso   1.000  O
  U5       1.0000 0.85042  0.26209  0.41583  Biso   1.000  U
  Zn5      1.0000 0.73401  0.53001  0.49936  Biso   1.000  Zn
  N17      1.0000 0.61010  0.55615  0.43650  Biso   1.000  N
  N18      1.0000 0.66360  0.46207  0.43590  Biso   1.000  N
  C97      1.0000 0.85850  0.31350  0.25900  Biso   1.000  C
  N19      1.0000 0.79890  0.40204  0.05370  Biso   1.000  N
  C98      1.0000 0.85790  0.33803  0.17190  Biso   1.000  C
  N20      1.0000 0.78440  0.45228  0.90080  Biso   1.000  N
  C99      1.0000 0.52830  0.42551  0.38160  Biso   1.000  C
  H49      1.0000 0.47050  0.42940  0.35720  Biso   1.000  H
  C100     1.0000 0.80710  0.38013  0.13500  Biso   1.000  C
  H50      1.0000 0.77750  0.39360  0.16820  Biso   1.000  H
  C101     1.0000 0.50710  0.62077  0.40690  Biso   1.000  C
  C102     1.0000 0.69230  0.32162  0.44740  Biso   1.000  C
  C103     1.0000 0.82590  0.40780  0.91460  Biso   1.000  C
  C104     1.0000 0.56430  0.37664  0.39570  Biso   1.000  C
  H51      1.0000 0.53090  0.34770  0.38360  Biso   1.000  H
  C105     1.0000 0.69720  0.41626  0.44660  Biso   1.000  C
  H52      1.0000 0.75500  0.41330  0.46770  Biso   1.000  H
  C106     1.0000 0.54920  0.52066  0.40020  Biso   1.000  C
  C107     1.0000 0.57970  0.46723  0.40430  Biso   1.000  C
  C108     1.0000 0.58880  0.60457  0.43920  Biso   1.000  C
  H53      1.0000 0.63110  0.62860  0.46410  Biso   1.000  H
  C109     1.0000 0.64920  0.37258  0.42740  Biso   1.000  C
  C110     1.0000 0.85190  0.38850  0.84780  Biso   1.000  C
  H54      1.0000 0.88220  0.35830  0.85880  Biso   1.000  H
  C111     1.0000 0.44390  0.58470  0.36990  Biso   1.000  C
  H55      1.0000 0.38800  0.59420  0.34770  Biso   1.000  H
  C112     1.0000 0.84130  0.38220  0.00540  Biso   1.000  C
  C113     1.0000 0.79030  0.45930  0.74900  Biso   1.000  C
  C114     1.0000 0.83210  0.41470  0.76420  Biso   1.000  C
  H56      1.0000 0.84780  0.40150  0.71780  Biso   1.000  H
  C115     1.0000 0.46630  0.53400  0.36670  Biso   1.000  C
  H57      1.0000 0.42510  0.50920  0.34200  Biso   1.000  H
  C116     1.0000 0.76730  0.47731  0.81960  Biso   1.000  C
  H58      1.0000 0.73880  0.50810  0.81030  Biso   1.000  H
  C117     1.0000 0.76760  0.48960  0.66000  Biso   1.000  C
  C118     1.0000 0.89460  0.34150  0.03860  Biso   1.000  C
  H59      1.0000 0.92530  0.32940  0.00560  Biso   1.000  H
  C119     1.0000 0.90150  0.31880  0.12220  Biso   1.000  C
  H60      1.0000 0.93560  0.29050  0.14470  Biso   1.000  H
  C120     1.0000 0.48970  0.67610  0.41810  Biso   1.000  C
  O33      1.0000 0.76750  0.32075  0.45700  Biso   1.000  O
  O34      1.0000 0.65150  0.28354  0.45420  Biso   1.000  O
  O35      1.0000 0.70760  0.52005  0.63900  Biso   1.000  O
  O36      1.0000 0.89650  0.27158  0.28560  Biso   1.000  O
  O37      1.0000 0.82230  0.33434  0.30520  Biso   1.000  O
  O38      1.0000 0.80720  0.48262  0.60900  Biso   1.000  O
  O39      1.0000 0.41470  0.68586  0.40500  Biso   1.000  O
  O40      1.0000 0.54510  0.70675  0.43590  Biso   1.000  O
  U6       1.0000 0.35042  0.76209  0.41583  Biso   1.000  U
  Zn6      1.0000 0.23401  0.03001  0.49936  Biso   1.000  Zn
  N21      1.0000 0.11010  0.05615  0.43650  Biso   1.000  N
  N22      1.0000 0.16360  0.96207  0.43590  Biso   1.000  N
  C121     1.0000 0.35850  0.81350  0.25900  Biso   1.000  C
  N23      1.0000 0.29890  0.90204  0.05370  Biso   1.000  N
  C122     1.0000 0.35790  0.83803  0.17190  Biso   1.000  C
  N24      1.0000 0.28440  0.95228  0.90080  Biso   1.000  N
  C123     1.0000 0.02830  0.92551  0.38160  Biso   1.000  C
  H61      1.0000 0.97050  0.92940  0.35720  Biso   1.000  H
  C124     1.0000 0.30710  0.88013  0.13500  Biso   1.000  C
  H62      1.0000 0.27750  0.89360  0.16820  Biso   1.000  H
  C125     1.0000 0.00710  0.12077  0.40690  Biso   1.000  C
  C126     1.0000 0.19230  0.82162  0.44740  Biso   1.000  C
  C127     1.0000 0.32590  0.90780  0.91460  Biso   1.000  C
  C128     1.0000 0.06430  0.87664  0.39570  Biso   1.000  C
  H63      1.0000 0.03090  0.84770  0.38360  Biso   1.000  H
  C129     1.0000 0.19720  0.91626  0.44660  Biso   1.000  C
  H64      1.0000 0.25500  0.91330  0.46770  Biso   1.000  H
  C130     1.0000 0.04920  0.02066  0.40020  Biso   1.000  C
  C131     1.0000 0.07970  0.96723  0.40430  Biso   1.000  C
  C132     1.0000 0.08880  0.10457  0.43920  Biso   1.000  C
  H65      1.0000 0.13110  0.12860  0.46410  Biso   1.000  H
  C133     1.0000 0.14920  0.87258  0.42740  Biso   1.000  C
  C134     1.0000 0.35190  0.88850  0.84780  Biso   1.000  C
  H66      1.0000 0.38220  0.85830  0.85880  Biso   1.000  H
  C135     1.0000 0.94390  0.08470  0.36990  Biso   1.000  C
  H67      1.0000 0.88800  0.09420  0.34770  Biso   1.000  H
  C136     1.0000 0.34130  0.88220  0.00540  Biso   1.000  C
  C137     1.0000 0.29030  0.95930  0.74900  Biso   1.000  C
  C138     1.0000 0.33210  0.91470  0.76420  Biso   1.000  C
  H68      1.0000 0.34780  0.90150  0.71780  Biso   1.000  H
  C139     1.0000 0.96630  0.03400  0.36670  Biso   1.000  C
  H69      1.0000 0.92510  0.00920  0.34200  Biso   1.000  H
  C140     1.0000 0.26730  0.97731  0.81960  Biso   1.000  C
  H70      1.0000 0.23880  0.00810  0.81030  Biso   1.000  H
  C141     1.0000 0.26760  0.98960  0.66000  Biso   1.000  C
  C142     1.0000 0.39460  0.84150  0.03860  Biso   1.000  C
  H71      1.0000 0.42530  0.82940  0.00560  Biso   1.000  H
  C143     1.0000 0.40150  0.81880  0.12220  Biso   1.000  C
  H72      1.0000 0.43560  0.79050  0.14470  Biso   1.000  H
  C144     1.0000 0.98970  0.17610  0.41810  Biso   1.000  C
  O41      1.0000 0.26750  0.82075  0.45700  Biso   1.000  O
  O42      1.0000 0.15150  0.78354  0.45420  Biso   1.000  O
  O43      1.0000 0.20760  0.02005  0.63900  Biso   1.000  O
  O44      1.0000 0.39650  0.77158  0.28560  Biso   1.000  O
  O45      1.0000 0.32230  0.83434  0.30520  Biso   1.000  O
  O46      1.0000 0.30720  0.98262  0.60900  Biso   1.000  O
  O47      1.0000 0.91470  0.18586  0.40500  Biso   1.000  O
  O48      1.0000 0.04510  0.20675  0.43590  Biso   1.000  O
  U7       1.0000 0.14958  0.26209  0.08417  Biso   1.000  U
  Zn7      1.0000 0.26599  0.53001  0.00064  Biso   1.000  Zn
  N25      1.0000 0.38990  0.55615  0.06350  Biso   1.000  N
  N26      1.0000 0.33640  0.46207  0.06410  Biso   1.000  N
  C145     1.0000 0.14150  0.31350  0.24100  Biso   1.000  C
  N27      1.0000 0.20110  0.40204  0.44630  Biso   1.000  N
  C146     1.0000 0.14210  0.33803  0.32810  Biso   1.000  C
  N28      1.0000 0.21560  0.45228  0.59920  Biso   1.000  N
  C147     1.0000 0.47170  0.42551  0.11840  Biso   1.000  C
  H73      1.0000 0.52950  0.42940  0.14280  Biso   1.000  H
  C148     1.0000 0.19290  0.38013  0.36500  Biso   1.000  C
  H74      1.0000 0.22250  0.39360  0.33180  Biso   1.000  H
  C149     1.0000 0.49290  0.62077  0.09310  Biso   1.000  C
  C150     1.0000 0.30770  0.32162  0.05260  Biso   1.000  C
  C151     1.0000 0.17410  0.40780  0.58540  Biso   1.000  C
  C152     1.0000 0.43570  0.37664  0.10430  Biso   1.000  C
  H75      1.0000 0.46910  0.34770  0.11640  Biso   1.000  H
  C153     1.0000 0.30280  0.41626  0.05340  Biso   1.000  C
  H76      1.0000 0.24500  0.41330  0.03230  Biso   1.000  H
  C154     1.0000 0.45080  0.52066  0.09980  Biso   1.000  C
  C155     1.0000 0.42030  0.46723  0.09570  Biso   1.000  C
  C156     1.0000 0.41120  0.60457  0.06080  Biso   1.000  C
  H77      1.0000 0.36890  0.62860  0.03590  Biso   1.000  H
  C157     1.0000 0.35080  0.37258  0.07260  Biso   1.000  C
  C158     1.0000 0.14810  0.38850  0.65220  Biso   1.000  C
  H78      1.0000 0.11780  0.35830  0.64120  Biso   1.000  H
  C159     1.0000 0.55610  0.58470  0.13010  Biso   1.000  C
  H79      1.0000 0.61200  0.59420  0.15230  Biso   1.000  H
  C160     1.0000 0.15870  0.38220  0.49460  Biso   1.000  C
  C161     1.0000 0.20970  0.45930  0.75100  Biso   1.000  C
  C162     1.0000 0.16790  0.41470  0.73580  Biso   1.000  C
  H80      1.0000 0.15220  0.40150  0.78220  Biso   1.000  H
  C163     1.0000 0.53370  0.53400  0.13330  Biso   1.000  C
  H81      1.0000 0.57490  0.50920  0.15800  Biso   1.000  H
  C164     1.0000 0.23270  0.47731  0.68040  Biso   1.000  C
  H82      1.0000 0.26120  0.50810  0.68970  Biso   1.000  H
  C165     1.0000 0.23240  0.48960  0.84000  Biso   1.000  C
  C166     1.0000 0.10540  0.34150  0.46140  Biso   1.000  C
  H83      1.0000 0.07470  0.32940  0.49440  Biso   1.000  H
  C167     1.0000 0.09850  0.31880  0.37780  Biso   1.000  C
  H84      1.0000 0.06440  0.29050  0.35530  Biso   1.000  H
  C168     1.0000 0.51030  0.67610  0.08190  Biso   1.000  C
  O49      1.0000 0.23250  0.32075  0.04300  Biso   1.000  O
  O50      1.0000 0.34850  0.28354  0.04580  Biso   1.000  O
  O51      1.0000 0.29240  0.52005  0.86100  Biso   1.000  O
  O52      1.0000 0.10350  0.27158  0.21440  Biso   1.000  O
  O53      1.0000 0.17770  0.33434  0.19480  Biso   1.000  O
  O54      1.0000 0.19280  0.48262  0.89100  Biso   1.000  O
  O55      1.0000 0.58530  0.68586  0.09500  Biso   1.000  O
  O56      1.0000 0.45490  0.70675  0.06410  Biso   1.000  O
  U8       1.0000 0.64958  0.76209  0.08417  Biso   1.000  U
  Zn8      1.0000 0.76599  0.03001  0.00064  Biso   1.000  Zn
  N29      1.0000 0.88990  0.05615  0.06350  Biso   1.000  N
  N30      1.0000 0.83640  0.96207  0.06410  Biso   1.000  N
  C169     1.0000 0.64150  0.81350  0.24100  Biso   1.000  C
  N31      1.0000 0.70110  0.90204  0.44630  Biso   1.000  N
  C170     1.0000 0.64210  0.83803  0.32810  Biso   1.000  C
  N32      1.0000 0.71560  0.95228  0.59920  Biso   1.000  N
  C171     1.0000 0.97170  0.92551  0.11840  Biso   1.000  C
  H85      1.0000 0.02950  0.92940  0.14280  Biso   1.000  H
  C172     1.0000 0.69290  0.88013  0.36500  Biso   1.000  C
  H86      1.0000 0.72250  0.89360  0.33180  Biso   1.000  H
  C173     1.0000 0.99290  0.12077  0.09310  Biso   1.000  C
  C174     1.0000 0.80770  0.82162  0.05260  Biso   1.000  C
  C175     1.0000 0.67410  0.90780  0.58540  Biso   1.000  C
  C176     1.0000 0.93570  0.87664  0.10430  Biso   1.000  C
  H87      1.0000 0.96910  0.84770  0.11640  Biso   1.000  H
  C177     1.0000 0.80280  0.91626  0.05340  Biso   1.000  C
  H88      1.0000 0.74500  0.91330  0.03230  Biso   1.000  H
  C178     1.0000 0.95080  0.02066  0.09980  Biso   1.000  C
  C179     1.0000 0.92030  0.96723  0.09570  Biso   1.000  C
  C180     1.0000 0.91120  0.10457  0.06080  Biso   1.000  C
  H89      1.0000 0.86890  0.12860  0.03590  Biso   1.000  H
  C181     1.0000 0.85080  0.87258  0.07260  Biso   1.000  C
  C182     1.0000 0.64810  0.88850  0.65220  Biso   1.000  C
  H90      1.0000 0.61780  0.85830  0.64120  Biso   1.000  H
  C183     1.0000 0.05610  0.08470  0.13010  Biso   1.000  C
  H91      1.0000 0.11200  0.09420  0.15230  Biso   1.000  H
  C184     1.0000 0.65870  0.88220  0.49460  Biso   1.000  C
  C185     1.0000 0.70970  0.95930  0.75100  Biso   1.000  C
  C186     1.0000 0.66790  0.91470  0.73580  Biso   1.000  C
  H92      1.0000 0.65220  0.90150  0.78220  Biso   1.000  H
  C187     1.0000 0.03370  0.03400  0.13330  Biso   1.000  C
  H93      1.0000 0.07490  0.00920  0.15800  Biso   1.000  H
  C188     1.0000 0.73270  0.97731  0.68040  Biso   1.000  C
  H94      1.0000 0.76120  0.00810  0.68970  Biso   1.000  H
  C189     1.0000 0.73240  0.98960  0.84000  Biso   1.000  C
  C190     1.0000 0.60540  0.84150  0.46140  Biso   1.000  C
  H95      1.0000 0.57470  0.82940  0.49440  Biso   1.000  H
  C191     1.0000 0.59850  0.81880  0.37780  Biso   1.000  C
  H96      1.0000 0.56440  0.79050  0.35530  Biso   1.000  H
  C192     1.0000 0.01030  0.17610  0.08190  Biso   1.000  C
  O57      1.0000 0.73250  0.82075  0.04300  Biso   1.000  O
  O58      1.0000 0.84850  0.78354  0.04580  Biso   1.000  O
  O59      1.0000 0.79240  0.02005  0.86100  Biso   1.000  O
  O60      1.0000 0.60350  0.77158  0.21440  Biso   1.000  O
  O61      1.0000 0.67770  0.83434  0.19480  Biso   1.000  O
  O62      1.0000 0.69280  0.98262  0.89100  Biso   1.000  O
  O63      1.0000 0.08530  0.18586  0.09500  Biso   1.000  O
  O64      1.0000 0.95490  0.20675  0.06410  Biso   1.000  O
