data_image0
_cell_length_a       17.4935
_cell_length_b       26.0116
_cell_length_c       15.8081
_cell_angle_alpha    90
_cell_angle_beta     114.995
_cell_angle_gamma    90

_symmetry_space_group_name_H-M    "P 1"
_symmetry_int_tables_number       1

loop_
  _symmetry_equiv_pos_as_xyz
  'x, y, z'

loop_
  _atom_site_label
  _atom_site_occupancy
  _atom_site_fract_x
  _atom_site_fract_y
  _atom_site_fract_z
  _atom_site_thermal_displace_type
  _atom_site_B_iso_or_equiv
  _atom_site_type_symbol
  U1       1.0000 0.64677  0.73470  0.57713  Biso   1.000  U
  Cu1      1.0000 0.75966  0.47113  0.48597  Biso   1.000  Cu
  C1       1.0000 0.93210  0.61960  0.60050  Biso   1.000  C
  H1       1.0000 0.96710  0.64830  0.61740  Biso   1.000  H
  N1       1.0000 0.69510  0.40690  0.43210  Biso   1.000  N
  C2       1.0000 0.96520  0.57080  0.61370  Biso   1.000  C
  H2       1.0000 0.02340  0.56610  0.64310  Biso   1.000  H
  N2       1.0000 0.71690  0.45470  0.58570  Biso   1.000  N
  C3       1.0000 0.79650  0.58170  0.53400  Biso   1.000  C
  H3       1.0000 0.73810  0.58540  0.50730  Biso   1.000  H
  N3       1.0000 0.88300  0.43990  0.54830  Biso   1.000  N
  C4       1.0000 0.02880  0.46100  0.62800  Biso   1.000  C
  H4       1.0000 0.07060  0.48540  0.65660  Biso   1.000  H
  N4       1.0000 0.82950  0.53420  0.54430  Biso   1.000  N
  C5       1.0000 0.63900  0.34270  0.31620  Biso   1.000  C
  C6       1.0000 0.80320  0.67670  0.54510  Biso   1.000  C
  C7       1.0000 0.67280  0.40980  0.57030  Biso   1.000  C
  C8       1.0000 0.73980  0.47950  0.66610  Biso   1.000  C
  H5       1.0000 0.77150  0.50950  0.67630  Biso   1.000  H
  C9       1.0000 0.84550  0.62470  0.56140  Biso   1.000  C
  C10      1.0000 0.68770  0.38690  0.35260  Biso   1.000  C
  H6       1.0000 0.71520  0.40230  0.32010  Biso   1.000  H
  C11      1.0000 0.98680  0.37570  0.58350  Biso   1.000  C
  C12      1.0000 0.59650  0.32080  0.36340  Biso   1.000  C
  H7       1.0000 0.56240  0.29210  0.33900  Biso   1.000  H
  C13      1.0000 0.90600  0.39140  0.54720  Biso   1.000  C
  H8       1.0000 0.86400  0.36690  0.51970  Biso   1.000  H
  C14      1.0000 0.67230  0.41950  0.71910  Biso   1.000  C
  H9       1.0000 0.65480  0.40820  0.76390  Biso   1.000  H
  C15      1.0000 0.91240  0.52840  0.58340  Biso   1.000  C
  C16      1.0000 0.60520  0.34170  0.44690  Biso   1.000  C
  H10      1.0000 0.57720  0.32730  0.47970  Biso   1.000  H
  C17      1.0000 0.04820  0.41130  0.62360  Biso   1.000  C
  H11      1.0000 0.10440  0.40120  0.64850  Biso   1.000  H
  C18      1.0000 0.65650  0.38480  0.48200  Biso   1.000  C
  C19      1.0000 0.94370  0.47440  0.58800  Biso   1.000  C
  C20      1.0000 0.00600  0.31880  0.57430  Biso   1.000  C
  O1       1.0000 0.84590  0.71460  0.54340  Biso   1.000  O
  O2       1.0000 0.72840  0.67720  0.53410  Biso   1.000  O
  O3       1.0000 0.67620  0.33920  0.18630  Biso   1.000  O
  O4       1.0000 0.59970  0.27600  0.20240  Biso   1.000  O
  O5       1.0000 0.08020  0.30950  0.58560  Biso   1.000  O
  C21      1.0000 0.63840  0.31810  0.22990  Biso   1.000  C
  O6       1.0000 0.94980  0.28650  0.55560  Biso   1.000  O
  C22      1.0000 0.64880  0.39010  0.63560  Biso   1.000  C
  H12      1.0000 0.61900  0.35940  0.62620  Biso   1.000  H
  C23      1.0000 0.74730  0.49540  0.82690  Biso   1.000  C
  C24      1.0000 0.71740  0.46160  0.73550  Biso   1.000  C
  O7       1.0000 0.70230  0.48880  0.86850  Biso   1.000  O
  O8       1.0000 0.80560  0.52350  0.84330  Biso   1.000  O
  U2       1.0000 0.14677  0.23470  0.57713  Biso   1.000  U
  Cu2      1.0000 0.25966  0.97113  0.48597  Biso   1.000  Cu
  C25      1.0000 0.43210  0.11960  0.60050  Biso   1.000  C
  H13      1.0000 0.46710  0.14830  0.61740  Biso   1.000  H
  N5       1.0000 0.19510  0.90690  0.43210  Biso   1.000  N
  C26      1.0000 0.46520  0.07080  0.61370  Biso   1.000  C
  H14      1.0000 0.52340  0.06610  0.64310  Biso   1.000  H
  N6       1.0000 0.21690  0.95470  0.58570  Biso   1.000  N
  C27      1.0000 0.29650  0.08170  0.53400  Biso   1.000  C
  H15      1.0000 0.23810  0.08540  0.50730  Biso   1.000  H
  N7       1.0000 0.38300  0.93990  0.54830  Biso   1.000  N
  C28      1.0000 0.52880  0.96100  0.62800  Biso   1.000  C
  H16      1.0000 0.57060  0.98540  0.65660  Biso   1.000  H
  N8       1.0000 0.32950  0.03420  0.54430  Biso   1.000  N
  C29      1.0000 0.13900  0.84270  0.31620  Biso   1.000  C
  C30      1.0000 0.30320  0.17670  0.54510  Biso   1.000  C
  C31      1.0000 0.17280  0.90980  0.57030  Biso   1.000  C
  C32      1.0000 0.23980  0.97950  0.66610  Biso   1.000  C
  H17      1.0000 0.27150  0.00950  0.67630  Biso   1.000  H
  C33      1.0000 0.34550  0.12470  0.56140  Biso   1.000  C
  C34      1.0000 0.18770  0.88690  0.35260  Biso   1.000  C
  H18      1.0000 0.21520  0.90230  0.32010  Biso   1.000  H
  C35      1.0000 0.48680  0.87570  0.58350  Biso   1.000  C
  C36      1.0000 0.09650  0.82080  0.36340  Biso   1.000  C
  H19      1.0000 0.06240  0.79210  0.33900  Biso   1.000  H
  C37      1.0000 0.40600  0.89140  0.54720  Biso   1.000  C
  H20      1.0000 0.36400  0.86690  0.51970  Biso   1.000  H
  C38      1.0000 0.17230  0.91950  0.71910  Biso   1.000  C
  H21      1.0000 0.15480  0.90820  0.76390  Biso   1.000  H
  C39      1.0000 0.41240  0.02840  0.58340  Biso   1.000  C
  C40      1.0000 0.10520  0.84170  0.44690  Biso   1.000  C
  H22      1.0000 0.07720  0.82730  0.47970  Biso   1.000  H
  C41      1.0000 0.54820  0.91130  0.62360  Biso   1.000  C
  H23      1.0000 0.60440  0.90120  0.64850  Biso   1.000  H
  C42      1.0000 0.15650  0.88480  0.48200  Biso   1.000  C
  C43      1.0000 0.44370  0.97440  0.58800  Biso   1.000  C
  C44      1.0000 0.50600  0.81880  0.57430  Biso   1.000  C
  O9       1.0000 0.34590  0.21460  0.54340  Biso   1.000  O
  O10      1.0000 0.22840  0.17720  0.53410  Biso   1.000  O
  O11      1.0000 0.17620  0.83920  0.18630  Biso   1.000  O
  O12      1.0000 0.09970  0.77600  0.20240  Biso   1.000  O
  O13      1.0000 0.58020  0.80950  0.58560  Biso   1.000  O
  C45      1.0000 0.13840  0.81810  0.22990  Biso   1.000  C
  O14      1.0000 0.44980  0.78650  0.55560  Biso   1.000  O
  C46      1.0000 0.14880  0.89010  0.63560  Biso   1.000  C
  H24      1.0000 0.11900  0.85940  0.62620  Biso   1.000  H
  C47      1.0000 0.24730  0.99540  0.82690  Biso   1.000  C
  C48      1.0000 0.21740  0.96160  0.73550  Biso   1.000  C
  O15      1.0000 0.20230  0.98880  0.86850  Biso   1.000  O
  O16      1.0000 0.30560  0.02350  0.84330  Biso   1.000  O
  U3       1.0000 0.35323  0.73470  0.92287  Biso   1.000  U
  Cu3      1.0000 0.24034  0.47113  0.01403  Biso   1.000  Cu
  C49      1.0000 0.06790  0.61960  0.89950  Biso   1.000  C
  H25      1.0000 0.03290  0.64830  0.88260  Biso   1.000  H
  N9       1.0000 0.30490  0.40690  0.06790  Biso   1.000  N
  C50      1.0000 0.03480  0.57080  0.88630  Biso   1.000  C
  H26      1.0000 0.97660  0.56610  0.85690  Biso   1.000  H
  N10      1.0000 0.28310  0.45470  0.91430  Biso   1.000  N
  C51      1.0000 0.20350  0.58170  0.96600  Biso   1.000  C
  H27      1.0000 0.26190  0.58540  0.99270  Biso   1.000  H
  N11      1.0000 0.11700  0.43990  0.95170  Biso   1.000  N
  C52      1.0000 0.97120  0.46100  0.87200  Biso   1.000  C
  H28      1.0000 0.92940  0.48540  0.84340  Biso   1.000  H
  N12      1.0000 0.17050  0.53420  0.95570  Biso   1.000  N
  C53      1.0000 0.36100  0.34270  0.18380  Biso   1.000  C
  C54      1.0000 0.19680  0.67670  0.95490  Biso   1.000  C
  C55      1.0000 0.32720  0.40980  0.92970  Biso   1.000  C
  C56      1.0000 0.26020  0.47950  0.83390  Biso   1.000  C
  H29      1.0000 0.22850  0.50950  0.82370  Biso   1.000  H
  C57      1.0000 0.15450  0.62470  0.93860  Biso   1.000  C
  C58      1.0000 0.31230  0.38690  0.14740  Biso   1.000  C
  H30      1.0000 0.28480  0.40230  0.17990  Biso   1.000  H
  C59      1.0000 0.01320  0.37570  0.91650  Biso   1.000  C
  C60      1.0000 0.40350  0.32080  0.13660  Biso   1.000  C
  H31      1.0000 0.43760  0.29210  0.16100  Biso   1.000  H
  C61      1.0000 0.09400  0.39140  0.95280  Biso   1.000  C
  H32      1.0000 0.13600  0.36690  0.98030  Biso   1.000  H
  C62      1.0000 0.32770  0.41950  0.78090  Biso   1.000  C
  H33      1.0000 0.34520  0.40820  0.73610  Biso   1.000  H
  C63      1.0000 0.08760  0.52840  0.91660  Biso   1.000  C
  C64      1.0000 0.39480  0.34170  0.05310  Biso   1.000  C
  H34      1.0000 0.42280  0.32730  0.02030  Biso   1.000  H
  C65      1.0000 0.95180  0.41130  0.87640  Biso   1.000  C
  H35      1.0000 0.89560  0.40120  0.85150  Biso   1.000  H
  C66      1.0000 0.34350  0.38480  0.01800  Biso   1.000  C
  C67      1.0000 0.05630  0.47440  0.91200  Biso   1.000  C
  C68      1.0000 0.99400  0.31880  0.92570  Biso   1.000  C
  O17      1.0000 0.15410  0.71460  0.95660  Biso   1.000  O
  O18      1.0000 0.27160  0.67720  0.96590  Biso   1.000  O
  O19      1.0000 0.32380  0.33920  0.31370  Biso   1.000  O
  O20      1.0000 0.40030  0.27600  0.29760  Biso   1.000  O
  O21      1.0000 0.91980  0.30950  0.91440  Biso   1.000  O
  C69      1.0000 0.36160  0.31810  0.27010  Biso   1.000  C
  O22      1.0000 0.05020  0.28650  0.94440  Biso   1.000  O
  C70      1.0000 0.35120  0.39010  0.86440  Biso   1.000  C
  H36      1.0000 0.38100  0.35940  0.87380  Biso   1.000  H
  C71      1.0000 0.25270  0.49540  0.67310  Biso   1.000  C
  C72      1.0000 0.28260  0.46160  0.76450  Biso   1.000  C
  O23      1.0000 0.29770  0.48880  0.63150  Biso   1.000  O
  O24      1.0000 0.19440  0.52350  0.65670  Biso   1.000  O
  U4       1.0000 0.85323  0.23470  0.92287  Biso   1.000  U
  Cu4      1.0000 0.74034  0.97113  0.01403  Biso   1.000  Cu
  C73      1.0000 0.56790  0.11960  0.89950  Biso   1.000  C
  H37      1.0000 0.53290  0.14830  0.88260  Biso   1.000  H
  N13      1.0000 0.80490  0.90690  0.06790  Biso   1.000  N
  C74      1.0000 0.53480  0.07080  0.88630  Biso   1.000  C
  H38      1.0000 0.47660  0.06610  0.85690  Biso   1.000  H
  N14      1.0000 0.78310  0.95470  0.91430  Biso   1.000  N
  C75      1.0000 0.70350  0.08170  0.96600  Biso   1.000  C
  H39      1.0000 0.76190  0.08540  0.99270  Biso   1.000  H
  N15      1.0000 0.61700  0.93990  0.95170  Biso   1.000  N
  C76      1.0000 0.47120  0.96100  0.87200  Biso   1.000  C
  H40      1.0000 0.42940  0.98540  0.84340  Biso   1.000  H
  N16      1.0000 0.67050  0.03420  0.95570  Biso   1.000  N
  C77      1.0000 0.86100  0.84270  0.18380  Biso   1.000  C
  C78      1.0000 0.69680  0.17670  0.95490  Biso   1.000  C
  C79      1.0000 0.82720  0.90980  0.92970  Biso   1.000  C
  C80      1.0000 0.76020  0.97950  0.83390  Biso   1.000  C
  H41      1.0000 0.72850  0.00950  0.82370  Biso   1.000  H
  C81      1.0000 0.65450  0.12470  0.93860  Biso   1.000  C
  C82      1.0000 0.81230  0.88690  0.14740  Biso   1.000  C
  H42      1.0000 0.78480  0.90230  0.17990  Biso   1.000  H
  C83      1.0000 0.51320  0.87570  0.91650  Biso   1.000  C
  C84      1.0000 0.90350  0.82080  0.13660  Biso   1.000  C
  H43      1.0000 0.93760  0.79210  0.16100  Biso   1.000  H
  C85      1.0000 0.59400  0.89140  0.95280  Biso   1.000  C
  H44      1.0000 0.63600  0.86690  0.98030  Biso   1.000  H
  C86      1.0000 0.82770  0.91950  0.78090  Biso   1.000  C
  H45      1.0000 0.84520  0.90820  0.73610  Biso   1.000  H
  C87      1.0000 0.58760  0.02840  0.91660  Biso   1.000  C
  C88      1.0000 0.89480  0.84170  0.05310  Biso   1.000  C
  H46      1.0000 0.92280  0.82730  0.02030  Biso   1.000  H
  C89      1.0000 0.45180  0.91130  0.87640  Biso   1.000  C
  H47      1.0000 0.39560  0.90120  0.85150  Biso   1.000  H
  C90      1.0000 0.84350  0.88480  0.01800  Biso   1.000  C
  C91      1.0000 0.55630  0.97440  0.91200  Biso   1.000  C
  C92      1.0000 0.49400  0.81880  0.92570  Biso   1.000  C
  O25      1.0000 0.65410  0.21460  0.95660  Biso   1.000  O
  O26      1.0000 0.77160  0.17720  0.96590  Biso   1.000  O
  O27      1.0000 0.82380  0.83920  0.31370  Biso   1.000  O
  O28      1.0000 0.90030  0.77600  0.29760  Biso   1.000  O
  O29      1.0000 0.41980  0.80950  0.91440  Biso   1.000  O
  C93      1.0000 0.86160  0.81810  0.27010  Biso   1.000  C
  O30      1.0000 0.55020  0.78650  0.94440  Biso   1.000  O
  C94      1.0000 0.85120  0.89010  0.86440  Biso   1.000  C
  H48      1.0000 0.88100  0.85940  0.87380  Biso   1.000  H
  C95      1.0000 0.75270  0.99540  0.67310  Biso   1.000  C
  C96      1.0000 0.78260  0.96160  0.76450  Biso   1.000  C
  O31      1.0000 0.79770  0.98880  0.63150  Biso   1.000  O
  O32      1.0000 0.69440  0.02350  0.65670  Biso   1.000  O
  U5       1.0000 0.35323  0.26530  0.42287  Biso   1.000  U
  Cu5      1.0000 0.24034  0.52887  0.51403  Biso   1.000  Cu
  C97      1.0000 0.06790  0.38040  0.39950  Biso   1.000  C
  H49      1.0000 0.03290  0.35170  0.38260  Biso   1.000  H
  N17      1.0000 0.30490  0.59310  0.56790  Biso   1.000  N
  C98      1.0000 0.03480  0.42920  0.38630  Biso   1.000  C
  H50      1.0000 0.97660  0.43390  0.35690  Biso   1.000  H
  N18      1.0000 0.28310  0.54530  0.41430  Biso   1.000  N
  C99      1.0000 0.20350  0.41830  0.46600  Biso   1.000  C
  H51      1.0000 0.26190  0.41460  0.49270  Biso   1.000  H
  N19      1.0000 0.11700  0.56010  0.45170  Biso   1.000  N
  C100     1.0000 0.97120  0.53900  0.37200  Biso   1.000  C
  H52      1.0000 0.92940  0.51460  0.34340  Biso   1.000  H
  N20      1.0000 0.17050  0.46580  0.45570  Biso   1.000  N
  C101     1.0000 0.36100  0.65730  0.68380  Biso   1.000  C
  C102     1.0000 0.19680  0.32330  0.45490  Biso   1.000  C
  C103     1.0000 0.32720  0.59020  0.42970  Biso   1.000  C
  C104     1.0000 0.26020  0.52050  0.33390  Biso   1.000  C
  H53      1.0000 0.22850  0.49050  0.32370  Biso   1.000  H
  C105     1.0000 0.15450  0.37530  0.43860  Biso   1.000  C
  C106     1.0000 0.31230  0.61310  0.64740  Biso   1.000  C
  H54      1.0000 0.28480  0.59770  0.67990  Biso   1.000  H
  C107     1.0000 0.01320  0.62430  0.41650  Biso   1.000  C
  C108     1.0000 0.40350  0.67920  0.63660  Biso   1.000  C
  H55      1.0000 0.43760  0.70790  0.66100  Biso   1.000  H
  C109     1.0000 0.09400  0.60860  0.45280  Biso   1.000  C
  H56      1.0000 0.13600  0.63310  0.48030  Biso   1.000  H
  C110     1.0000 0.32770  0.58050  0.28090  Biso   1.000  C
  H57      1.0000 0.34520  0.59180  0.23610  Biso   1.000  H
  C111     1.0000 0.08760  0.47160  0.41660  Biso   1.000  C
  C112     1.0000 0.39480  0.65830  0.55310  Biso   1.000  C
  H58      1.0000 0.42280  0.67270  0.52030  Biso   1.000  H
  C113     1.0000 0.95180  0.58870  0.37640  Biso   1.000  C
  H59      1.0000 0.89560  0.59880  0.35150  Biso   1.000  H
  C114     1.0000 0.34350  0.61520  0.51800  Biso   1.000  C
  C115     1.0000 0.05630  0.52560  0.41200  Biso   1.000  C
  C116     1.0000 0.99400  0.68120  0.42570  Biso   1.000  C
  O33      1.0000 0.15410  0.28540  0.45660  Biso   1.000  O
  O34      1.0000 0.27160  0.32280  0.46590  Biso   1.000  O
  O35      1.0000 0.32380  0.66080  0.81370  Biso   1.000  O
  O36      1.0000 0.40030  0.72400  0.79760  Biso   1.000  O
  O37      1.0000 0.91980  0.69050  0.41440  Biso   1.000  O
  C117     1.0000 0.36160  0.68190  0.77010  Biso   1.000  C
  O38      1.0000 0.05020  0.71350  0.44440  Biso   1.000  O
  C118     1.0000 0.35120  0.60990  0.36440  Biso   1.000  C
  H60      1.0000 0.38100  0.64060  0.37380  Biso   1.000  H
  C119     1.0000 0.25270  0.50460  0.17310  Biso   1.000  C
  C120     1.0000 0.28260  0.53840  0.26450  Biso   1.000  C
  O39      1.0000 0.29770  0.51120  0.13150  Biso   1.000  O
  O40      1.0000 0.19440  0.47650  0.15670  Biso   1.000  O
  U6       1.0000 0.85323  0.76530  0.42287  Biso   1.000  U
  Cu6      1.0000 0.74034  0.02887  0.51403  Biso   1.000  Cu
  C121     1.0000 0.56790  0.88040  0.39950  Biso   1.000  C
  H61      1.0000 0.53290  0.85170  0.38260  Biso   1.000  H
  N21      1.0000 0.80490  0.09310  0.56790  Biso   1.000  N
  C122     1.0000 0.53480  0.92920  0.38630  Biso   1.000  C
  H62      1.0000 0.47660  0.93390  0.35690  Biso   1.000  H
  N22      1.0000 0.78310  0.04530  0.41430  Biso   1.000  N
  C123     1.0000 0.70350  0.91830  0.46600  Biso   1.000  C
  H63      1.0000 0.76190  0.91460  0.49270  Biso   1.000  H
  N23      1.0000 0.61700  0.06010  0.45170  Biso   1.000  N
  C124     1.0000 0.47120  0.03900  0.37200  Biso   1.000  C
  H64      1.0000 0.42940  0.01460  0.34340  Biso   1.000  H
  N24      1.0000 0.67050  0.96580  0.45570  Biso   1.000  N
  C125     1.0000 0.86100  0.15730  0.68380  Biso   1.000  C
  C126     1.0000 0.69680  0.82330  0.45490  Biso   1.000  C
  C127     1.0000 0.82720  0.09020  0.42970  Biso   1.000  C
  C128     1.0000 0.76020  0.02050  0.33390  Biso   1.000  C
  H65      1.0000 0.72850  0.99050  0.32370  Biso   1.000  H
  C129     1.0000 0.65450  0.87530  0.43860  Biso   1.000  C
  C130     1.0000 0.81230  0.11310  0.64740  Biso   1.000  C
  H66      1.0000 0.78480  0.09770  0.67990  Biso   1.000  H
  C131     1.0000 0.51320  0.12430  0.41650  Biso   1.000  C
  C132     1.0000 0.90350  0.17920  0.63660  Biso   1.000  C
  H67      1.0000 0.93760  0.20790  0.66100  Biso   1.000  H
  C133     1.0000 0.59400  0.10860  0.45280  Biso   1.000  C
  H68      1.0000 0.63600  0.13310  0.48030  Biso   1.000  H
  C134     1.0000 0.82770  0.08050  0.28090  Biso   1.000  C
  H69      1.0000 0.84520  0.09180  0.23610  Biso   1.000  H
  C135     1.0000 0.58760  0.97160  0.41660  Biso   1.000  C
  C136     1.0000 0.89480  0.15830  0.55310  Biso   1.000  C
  H70      1.0000 0.92280  0.17270  0.52030  Biso   1.000  H
  C137     1.0000 0.45180  0.08870  0.37640  Biso   1.000  C
  H71      1.0000 0.39560  0.09880  0.35150  Biso   1.000  H
  C138     1.0000 0.84350  0.11520  0.51800  Biso   1.000  C
  C139     1.0000 0.55630  0.02560  0.41200  Biso   1.000  C
  C140     1.0000 0.49400  0.18120  0.42570  Biso   1.000  C
  O41      1.0000 0.65410  0.78540  0.45660  Biso   1.000  O
  O42      1.0000 0.77160  0.82280  0.46590  Biso   1.000  O
  O43      1.0000 0.82380  0.16080  0.81370  Biso   1.000  O
  O44      1.0000 0.90030  0.22400  0.79760  Biso   1.000  O
  O45      1.0000 0.41980  0.19050  0.41440  Biso   1.000  O
  C141     1.0000 0.86160  0.18190  0.77010  Biso   1.000  C
  O46      1.0000 0.55020  0.21350  0.44440  Biso   1.000  O
  C142     1.0000 0.85120  0.10990  0.36440  Biso   1.000  C
  H72      1.0000 0.88100  0.14060  0.37380  Biso   1.000  H
  C143     1.0000 0.75270  0.00460  0.17310  Biso   1.000  C
  C144     1.0000 0.78260  0.03840  0.26450  Biso   1.000  C
  O47      1.0000 0.79770  0.01120  0.13150  Biso   1.000  O
  O48      1.0000 0.69440  0.97650  0.15670  Biso   1.000  O
  U7       1.0000 0.64677  0.26530  0.07713  Biso   1.000  U
  Cu7      1.0000 0.75966  0.52887  0.98597  Biso   1.000  Cu
  C145     1.0000 0.93210  0.38040  0.10050  Biso   1.000  C
  H73      1.0000 0.96710  0.35170  0.11740  Biso   1.000  H
  N25      1.0000 0.69510  0.59310  0.93210  Biso   1.000  N
  C146     1.0000 0.96520  0.42920  0.11370  Biso   1.000  C
  H74      1.0000 0.02340  0.43390  0.14310  Biso   1.000  H
  N26      1.0000 0.71690  0.54530  0.08570  Biso   1.000  N
  C147     1.0000 0.79650  0.41830  0.03400  Biso   1.000  C
  H75      1.0000 0.73810  0.41460  0.00730  Biso   1.000  H
  N27      1.0000 0.88300  0.56010  0.04830  Biso   1.000  N
  C148     1.0000 0.02880  0.53900  0.12800  Biso   1.000  C
  H76      1.0000 0.07060  0.51460  0.15660  Biso   1.000  H
  N28      1.0000 0.82950  0.46580  0.04430  Biso   1.000  N
  C149     1.0000 0.63900  0.65730  0.81620  Biso   1.000  C
  C150     1.0000 0.80320  0.32330  0.04510  Biso   1.000  C
  C151     1.0000 0.67280  0.59020  0.07030  Biso   1.000  C
  C152     1.0000 0.73980  0.52050  0.16610  Biso   1.000  C
  H77      1.0000 0.77150  0.49050  0.17630  Biso   1.000  H
  C153     1.0000 0.84550  0.37530  0.06140  Biso   1.000  C
  C154     1.0000 0.68770  0.61310  0.85260  Biso   1.000  C
  H78      1.0000 0.71520  0.59770  0.82010  Biso   1.000  H
  C155     1.0000 0.98680  0.62430  0.08350  Biso   1.000  C
  C156     1.0000 0.59650  0.67920  0.86340  Biso   1.000  C
  H79      1.0000 0.56240  0.70790  0.83900  Biso   1.000  H
  C157     1.0000 0.90600  0.60860  0.04720  Biso   1.000  C
  H80      1.0000 0.86400  0.63310  0.01970  Biso   1.000  H
  C158     1.0000 0.67230  0.58050  0.21910  Biso   1.000  C
  H81      1.0000 0.65480  0.59180  0.26390  Biso   1.000  H
  C159     1.0000 0.91240  0.47160  0.08340  Biso   1.000  C
  C160     1.0000 0.60520  0.65830  0.94690  Biso   1.000  C
  H82      1.0000 0.57720  0.67270  0.97970  Biso   1.000  H
  C161     1.0000 0.04820  0.58870  0.12360  Biso   1.000  C
  H83      1.0000 0.10440  0.59880  0.14850  Biso   1.000  H
  C162     1.0000 0.65650  0.61520  0.98200  Biso   1.000  C
  C163     1.0000 0.94370  0.52560  0.08800  Biso   1.000  C
  C164     1.0000 0.00600  0.68120  0.07430  Biso   1.000  C
  O49      1.0000 0.84590  0.28540  0.04340  Biso   1.000  O
  O50      1.0000 0.72840  0.32280  0.03410  Biso   1.000  O
  O51      1.0000 0.67620  0.66080  0.68630  Biso   1.000  O
  O52      1.0000 0.59970  0.72400  0.70240  Biso   1.000  O
  O53      1.0000 0.08020  0.69050  0.08560  Biso   1.000  O
  C165     1.0000 0.63840  0.68190  0.72990  Biso   1.000  C
  O54      1.0000 0.94980  0.71350  0.05560  Biso   1.000  O
  C166     1.0000 0.64880  0.60990  0.13560  Biso   1.000  C
  H84      1.0000 0.61900  0.64060  0.12620  Biso   1.000  H
  C167     1.0000 0.74730  0.50460  0.32690  Biso   1.000  C
  C168     1.0000 0.71740  0.53840  0.23550  Biso   1.000  C
  O55      1.0000 0.70230  0.51120  0.36850  Biso   1.000  O
  O56      1.0000 0.80560  0.47650  0.34330  Biso   1.000  O
  U8       1.0000 0.14677  0.76530  0.07713  Biso   1.000  U
  Cu8      1.0000 0.25966  0.02887  0.98597  Biso   1.000  Cu
  C169     1.0000 0.43210  0.88040  0.10050  Biso   1.000  C
  H85      1.0000 0.46710  0.85170  0.11740  Biso   1.000  H
  N29      1.0000 0.19510  0.09310  0.93210  Biso   1.000  N
  C170     1.0000 0.46520  0.92920  0.11370  Biso   1.000  C
  H86      1.0000 0.52340  0.93390  0.14310  Biso   1.000  H
  N30      1.0000 0.21690  0.04530  0.08570  Biso   1.000  N
  C171     1.0000 0.29650  0.91830  0.03400  Biso   1.000  C
  H87      1.0000 0.23810  0.91460  0.00730  Biso   1.000  H
  N31      1.0000 0.38300  0.06010  0.04830  Biso   1.000  N
  C172     1.0000 0.52880  0.03900  0.12800  Biso   1.000  C
  H88      1.0000 0.57060  0.01460  0.15660  Biso   1.000  H
  N32      1.0000 0.32950  0.96580  0.04430  Biso   1.000  N
  C173     1.0000 0.13900  0.15730  0.81620  Biso   1.000  C
  C174     1.0000 0.30320  0.82330  0.04510  Biso   1.000  C
  C175     1.0000 0.17280  0.09020  0.07030  Biso   1.000  C
  C176     1.0000 0.23980  0.02050  0.16610  Biso   1.000  C
  H89      1.0000 0.27150  0.99050  0.17630  Biso   1.000  H
  C177     1.0000 0.34550  0.87530  0.06140  Biso   1.000  C
  C178     1.0000 0.18770  0.11310  0.85260  Biso   1.000  C
  H90      1.0000 0.21520  0.09770  0.82010  Biso   1.000  H
  C179     1.0000 0.48680  0.12430  0.08350  Biso   1.000  C
  C180     1.0000 0.09650  0.17920  0.86340  Biso   1.000  C
  H91      1.0000 0.06240  0.20790  0.83900  Biso   1.000  H
  C181     1.0000 0.40600  0.10860  0.04720  Biso   1.000  C
  H92      1.0000 0.36400  0.13310  0.01970  Biso   1.000  H
  C182     1.0000 0.17230  0.08050  0.21910  Biso   1.000  C
  H93      1.0000 0.15480  0.09180  0.26390  Biso   1.000  H
  C183     1.0000 0.41240  0.97160  0.08340  Biso   1.000  C
  C184     1.0000 0.10520  0.15830  0.94690  Biso   1.000  C
  H94      1.0000 0.07720  0.17270  0.97970  Biso   1.000  H
  C185     1.0000 0.54820  0.08870  0.12360  Biso   1.000  C
  H95      1.0000 0.60440  0.09880  0.14850  Biso   1.000  H
  C186     1.0000 0.15650  0.11520  0.98200  Biso   1.000  C
  C187     1.0000 0.44370  0.02560  0.08800  Biso   1.000  C
  C188     1.0000 0.50600  0.18120  0.07430  Biso   1.000  C
  O57      1.0000 0.34590  0.78540  0.04340  Biso   1.000  O
  O58      1.0000 0.22840  0.82280  0.03410  Biso   1.000  O
  O59      1.0000 0.17620  0.16080  0.68630  Biso   1.000  O
  O60      1.0000 0.09970  0.22400  0.70240  Biso   1.000  O
  O61      1.0000 0.58020  0.19050  0.08560  Biso   1.000  O
  C189     1.0000 0.13840  0.18190  0.72990  Biso   1.000  C
  O62      1.0000 0.44980  0.21350  0.05560  Biso   1.000  O
  C190     1.0000 0.14880  0.10990  0.13560  Biso   1.000  C
  H96      1.0000 0.11900  0.14060  0.12620  Biso   1.000  H
  C191     1.0000 0.24730  0.00460  0.32690  Biso   1.000  C
  C192     1.0000 0.21740  0.03840  0.23550  Biso   1.000  C
  O63      1.0000 0.20230  0.01120  0.36850  Biso   1.000  O
  O64      1.0000 0.30560  0.97650  0.34330  Biso   1.000  O
