data_image0
_cell_length_a       18.2898
_cell_length_b       9.3102
_cell_length_c       22.2027
_cell_angle_alpha    90
_cell_angle_beta     112.556
_cell_angle_gamma    90

_symmetry_space_group_name_H-M    "P 1"
_symmetry_int_tables_number       1

loop_
  _symmetry_equiv_pos_as_xyz
  'x, y, z'

loop_
  _atom_site_label
  _atom_site_occupancy
  _atom_site_fract_x
  _atom_site_fract_y
  _atom_site_fract_z
  _atom_site_thermal_displace_type
  _atom_site_B_iso_or_equiv
  _atom_site_type_symbol
  Dy1      1.0000 0.23501  0.80190  0.14141  Biso   1.000  Dy
  S1       1.0000 0.19593  0.18617  0.10797  Biso   1.000  S
  O1       1.0000 0.82070  0.20530  0.97810  Biso   1.000  O
  O2       1.0000 0.18650  0.19360  0.04050  Biso   1.000  O
  C1       1.0000 0.09870  0.19170  0.10820  Biso   1.000  C
  C2       1.0000 0.88970  0.18120  0.98050  Biso   1.000  C
  C3       1.0000 0.95760  0.18990  0.04630  Biso   1.000  C
  O3       1.0000 0.19920  0.14850  0.25850  Biso   1.000  O
  O4       1.0000 0.84090  0.37390  0.10470  Biso   1.000  O
  O5       1.0000 0.90250  0.15170  0.93070  Biso   1.000  O
  O6       1.0000 0.15150  0.36370  0.26070  Biso   1.000  O
  O7       1.0000 0.23270  0.05150  0.13830  Biso   1.000  O
  O8       1.0000 0.82820  0.14360  0.11760  Biso   1.000  O
  C4       1.0000 0.08650  0.22600  0.16560  Biso   1.000  C
  C5       1.0000 0.94440  0.22360  0.10250  Biso   1.000  C
  C6       1.0000 0.03460  0.17560  0.05020  Biso   1.000  C
  H1       1.0000 0.04370  0.15330  0.01140  Biso   1.000  H
  C7       1.0000 0.86530  0.24710  0.10650  Biso   1.000  C
  C8       1.0000 0.00970  0.24240  0.16100  Biso   1.000  C
  H2       1.0000 0.00070  0.26790  0.19940  Biso   1.000  H
  C9       1.0000 0.15060  0.24760  0.23170  Biso   1.000  C
  O9       1.0000 0.23680  0.30810  0.14650  Biso   1.000  O
  K1       1.0000 0.23154  0.47880  0.01396  Biso   1.000  K
  Dy2      1.0000 0.73501  0.30190  0.14141  Biso   1.000  Dy
  S2       1.0000 0.69593  0.68617  0.10797  Biso   1.000  S
  O10      1.0000 0.32070  0.70530  0.97810  Biso   1.000  O
  O11      1.0000 0.68650  0.69360  0.04050  Biso   1.000  O
  C10      1.0000 0.59870  0.69170  0.10820  Biso   1.000  C
  C11      1.0000 0.38970  0.68120  0.98050  Biso   1.000  C
  C12      1.0000 0.45760  0.68990  0.04630  Biso   1.000  C
  O12      1.0000 0.69920  0.64850  0.25850  Biso   1.000  O
  O13      1.0000 0.34090  0.87390  0.10470  Biso   1.000  O
  O14      1.0000 0.40250  0.65170  0.93070  Biso   1.000  O
  O15      1.0000 0.65150  0.86370  0.26070  Biso   1.000  O
  O16      1.0000 0.73270  0.55150  0.13830  Biso   1.000  O
  O17      1.0000 0.32820  0.64360  0.11760  Biso   1.000  O
  C13      1.0000 0.58650  0.72600  0.16560  Biso   1.000  C
  C14      1.0000 0.44440  0.72360  0.10250  Biso   1.000  C
  C15      1.0000 0.53460  0.67560  0.05020  Biso   1.000  C
  H3       1.0000 0.54370  0.65330  0.01140  Biso   1.000  H
  C16      1.0000 0.36530  0.74710  0.10650  Biso   1.000  C
  C17      1.0000 0.50970  0.74240  0.16100  Biso   1.000  C
  H4       1.0000 0.50070  0.76790  0.19940  Biso   1.000  H
  C18      1.0000 0.65060  0.74760  0.23170  Biso   1.000  C
  O18      1.0000 0.73680  0.80810  0.14650  Biso   1.000  O
  K2       1.0000 0.73154  0.97880  0.01396  Biso   1.000  K
  Dy3      1.0000 0.76499  0.80190  0.35859  Biso   1.000  Dy
  S3       1.0000 0.80407  0.18617  0.39203  Biso   1.000  S
  O19      1.0000 0.17930  0.20530  0.52190  Biso   1.000  O
  O20      1.0000 0.81350  0.19360  0.45950  Biso   1.000  O
  C19      1.0000 0.90130  0.19170  0.39180  Biso   1.000  C
  C20      1.0000 0.11030  0.18120  0.51950  Biso   1.000  C
  C21      1.0000 0.04240  0.18990  0.45370  Biso   1.000  C
  O21      1.0000 0.80080  0.14850  0.24150  Biso   1.000  O
  O22      1.0000 0.15910  0.37390  0.39530  Biso   1.000  O
  O23      1.0000 0.09750  0.15170  0.56930  Biso   1.000  O
  O24      1.0000 0.84850  0.36370  0.23930  Biso   1.000  O
  O25      1.0000 0.76730  0.05150  0.36170  Biso   1.000  O
  O26      1.0000 0.17180  0.14360  0.38240  Biso   1.000  O
  C22      1.0000 0.91350  0.22600  0.33440  Biso   1.000  C
  C23      1.0000 0.05560  0.22360  0.39750  Biso   1.000  C
  C24      1.0000 0.96540  0.17560  0.44980  Biso   1.000  C
  H5       1.0000 0.95630  0.15330  0.48860  Biso   1.000  H
  C25      1.0000 0.13470  0.24710  0.39350  Biso   1.000  C
  C26      1.0000 0.99030  0.24240  0.33900  Biso   1.000  C
  H6       1.0000 0.99930  0.26790  0.30060  Biso   1.000  H
  C27      1.0000 0.84940  0.24760  0.26830  Biso   1.000  C
  O27      1.0000 0.76320  0.30810  0.35350  Biso   1.000  O
  K3       1.0000 0.76846  0.47880  0.48604  Biso   1.000  K
  Dy4      1.0000 0.26499  0.30190  0.35859  Biso   1.000  Dy
  S4       1.0000 0.30407  0.68617  0.39203  Biso   1.000  S
  O28      1.0000 0.67930  0.70530  0.52190  Biso   1.000  O
  O29      1.0000 0.31350  0.69360  0.45950  Biso   1.000  O
  C28      1.0000 0.40130  0.69170  0.39180  Biso   1.000  C
  C29      1.0000 0.61030  0.68120  0.51950  Biso   1.000  C
  C30      1.0000 0.54240  0.68990  0.45370  Biso   1.000  C
  O30      1.0000 0.30080  0.64850  0.24150  Biso   1.000  O
  O31      1.0000 0.65910  0.87390  0.39530  Biso   1.000  O
  O32      1.0000 0.59750  0.65170  0.56930  Biso   1.000  O
  O33      1.0000 0.34850  0.86370  0.23930  Biso   1.000  O
  O34      1.0000 0.26730  0.55150  0.36170  Biso   1.000  O
  O35      1.0000 0.67180  0.64360  0.38240  Biso   1.000  O
  C31      1.0000 0.41350  0.72600  0.33440  Biso   1.000  C
  C32      1.0000 0.55560  0.72360  0.39750  Biso   1.000  C
  C33      1.0000 0.46540  0.67560  0.44980  Biso   1.000  C
  H7       1.0000 0.45630  0.65330  0.48860  Biso   1.000  H
  C34      1.0000 0.63470  0.74710  0.39350  Biso   1.000  C
  C35      1.0000 0.49030  0.74240  0.33900  Biso   1.000  C
  H8       1.0000 0.49930  0.76790  0.30060  Biso   1.000  H
  C36      1.0000 0.34940  0.74760  0.26830  Biso   1.000  C
  O36      1.0000 0.26320  0.80810  0.35350  Biso   1.000  O
  K4       1.0000 0.26846  0.97880  0.48604  Biso   1.000  K
  Dy5      1.0000 0.76499  0.19810  0.85860  Biso   1.000  Dy
  S5       1.0000 0.80407  0.81383  0.89203  Biso   1.000  S
  O37      1.0000 0.17930  0.79470  0.02190  Biso   1.000  O
  O38      1.0000 0.81350  0.80640  0.95950  Biso   1.000  O
  C37      1.0000 0.90130  0.80830  0.89180  Biso   1.000  C
  C38      1.0000 0.11030  0.81880  0.01950  Biso   1.000  C
  C39      1.0000 0.04240  0.81010  0.95370  Biso   1.000  C
  O39      1.0000 0.80080  0.85150  0.74150  Biso   1.000  O
  O40      1.0000 0.15910  0.62610  0.89530  Biso   1.000  O
  O41      1.0000 0.09750  0.84830  0.06930  Biso   1.000  O
  O42      1.0000 0.84850  0.63630  0.73930  Biso   1.000  O
  O43      1.0000 0.76730  0.94850  0.86170  Biso   1.000  O
  O44      1.0000 0.17180  0.85640  0.88240  Biso   1.000  O
  C40      1.0000 0.91350  0.77400  0.83440  Biso   1.000  C
  C41      1.0000 0.05560  0.77640  0.89750  Biso   1.000  C
  C42      1.0000 0.96540  0.82440  0.94980  Biso   1.000  C
  H9       1.0000 0.95630  0.84670  0.98860  Biso   1.000  H
  C43      1.0000 0.13470  0.75290  0.89350  Biso   1.000  C
  C44      1.0000 0.99030  0.75760  0.83900  Biso   1.000  C
  H10      1.0000 0.99930  0.73210  0.80060  Biso   1.000  H
  C45      1.0000 0.84940  0.75240  0.76830  Biso   1.000  C
  O45      1.0000 0.76320  0.69190  0.85350  Biso   1.000  O
  K5       1.0000 0.76846  0.52120  0.98604  Biso   1.000  K
  Dy6      1.0000 0.26499  0.69810  0.85859  Biso   1.000  Dy
  S6       1.0000 0.30407  0.31383  0.89203  Biso   1.000  S
  O46      1.0000 0.67930  0.29470  0.02190  Biso   1.000  O
  O47      1.0000 0.31350  0.30640  0.95950  Biso   1.000  O
  C46      1.0000 0.40130  0.30830  0.89180  Biso   1.000  C
  C47      1.0000 0.61030  0.31880  0.01950  Biso   1.000  C
  C48      1.0000 0.54240  0.31010  0.95370  Biso   1.000  C
  O48      1.0000 0.30080  0.35150  0.74150  Biso   1.000  O
  O49      1.0000 0.65910  0.12610  0.89530  Biso   1.000  O
  O50      1.0000 0.59750  0.34830  0.06930  Biso   1.000  O
  O51      1.0000 0.34850  0.13630  0.73930  Biso   1.000  O
  O52      1.0000 0.26730  0.44850  0.86170  Biso   1.000  O
  O53      1.0000 0.67180  0.35640  0.88240  Biso   1.000  O
  C49      1.0000 0.41350  0.27400  0.83440  Biso   1.000  C
  C50      1.0000 0.55560  0.27640  0.89750  Biso   1.000  C
  C51      1.0000 0.46540  0.32440  0.94980  Biso   1.000  C
  H11      1.0000 0.45630  0.34670  0.98860  Biso   1.000  H
  C52      1.0000 0.63470  0.25290  0.89350  Biso   1.000  C
  C53      1.0000 0.49030  0.25760  0.83900  Biso   1.000  C
  H12      1.0000 0.49930  0.23210  0.80060  Biso   1.000  H
  C54      1.0000 0.34940  0.25240  0.76830  Biso   1.000  C
  O54      1.0000 0.26320  0.19190  0.85350  Biso   1.000  O
  K6       1.0000 0.26846  0.02120  0.98604  Biso   1.000  K
  Dy7      1.0000 0.23501  0.19810  0.64140  Biso   1.000  Dy
  S7       1.0000 0.19593  0.81383  0.60797  Biso   1.000  S
  O55      1.0000 0.82070  0.79470  0.47810  Biso   1.000  O
  O56      1.0000 0.18650  0.80640  0.54050  Biso   1.000  O
  C55      1.0000 0.09870  0.80830  0.60820  Biso   1.000  C
  C56      1.0000 0.88970  0.81880  0.48050  Biso   1.000  C
  C57      1.0000 0.95760  0.81010  0.54630  Biso   1.000  C
  O57      1.0000 0.19920  0.85150  0.75850  Biso   1.000  O
  O58      1.0000 0.84090  0.62610  0.60470  Biso   1.000  O
  O59      1.0000 0.90250  0.84830  0.43070  Biso   1.000  O
  O60      1.0000 0.15150  0.63630  0.76070  Biso   1.000  O
  O61      1.0000 0.23270  0.94850  0.63830  Biso   1.000  O
  O62      1.0000 0.82820  0.85640  0.61760  Biso   1.000  O
  C58      1.0000 0.08650  0.77400  0.66560  Biso   1.000  C
  C59      1.0000 0.94440  0.77640  0.60250  Biso   1.000  C
  C60      1.0000 0.03460  0.82440  0.55020  Biso   1.000  C
  H13      1.0000 0.04370  0.84670  0.51140  Biso   1.000  H
  C61      1.0000 0.86530  0.75290  0.60650  Biso   1.000  C
  C62      1.0000 0.00970  0.75760  0.66100  Biso   1.000  C
  H14      1.0000 0.00070  0.73210  0.69940  Biso   1.000  H
  C63      1.0000 0.15060  0.75240  0.73170  Biso   1.000  C
  O63      1.0000 0.23680  0.69190  0.64650  Biso   1.000  O
  K7       1.0000 0.23154  0.52120  0.51396  Biso   1.000  K
  Dy8      1.0000 0.73501  0.69810  0.64140  Biso   1.000  Dy
  S8       1.0000 0.69593  0.31383  0.60797  Biso   1.000  S
  O64      1.0000 0.32070  0.29470  0.47810  Biso   1.000  O
  O65      1.0000 0.68650  0.30640  0.54050  Biso   1.000  O
  C64      1.0000 0.59870  0.30830  0.60820  Biso   1.000  C
  C65      1.0000 0.38970  0.31880  0.48050  Biso   1.000  C
  C66      1.0000 0.45760  0.31010  0.54630  Biso   1.000  C
  O66      1.0000 0.69920  0.35150  0.75850  Biso   1.000  O
  O67      1.0000 0.34090  0.12610  0.60470  Biso   1.000  O
  O68      1.0000 0.40250  0.34830  0.43070  Biso   1.000  O
  O69      1.0000 0.65150  0.13630  0.76070  Biso   1.000  O
  O70      1.0000 0.73270  0.44850  0.63830  Biso   1.000  O
  O71      1.0000 0.32820  0.35640  0.61760  Biso   1.000  O
  C67      1.0000 0.58650  0.27400  0.66560  Biso   1.000  C
  C68      1.0000 0.44440  0.27640  0.60250  Biso   1.000  C
  C69      1.0000 0.53460  0.32440  0.55020  Biso   1.000  C
  H15      1.0000 0.54370  0.34670  0.51140  Biso   1.000  H
  C70      1.0000 0.36530  0.25290  0.60650  Biso   1.000  C
  C71      1.0000 0.50970  0.25760  0.66100  Biso   1.000  C
  H16      1.0000 0.50070  0.23210  0.69940  Biso   1.000  H
  C72      1.0000 0.65060  0.25240  0.73170  Biso   1.000  C
  O72      1.0000 0.73680  0.19190  0.64650  Biso   1.000  O
  K8       1.0000 0.73154  0.02120  0.51396  Biso   1.000  K
