data_image0
_cell_length_a       11.3729
_cell_length_b       9.9463
_cell_length_c       14.5118
_cell_angle_alpha    90
_cell_angle_beta     91.2783
_cell_angle_gamma    90

_symmetry_space_group_name_H-M    "P 1"
_symmetry_int_tables_number       1

loop_
  _symmetry_equiv_pos_as_xyz
  'x, y, z'

loop_
  _atom_site_label
  _atom_site_occupancy
  _atom_site_fract_x
  _atom_site_fract_y
  _atom_site_fract_z
  _atom_site_thermal_displace_type
  _atom_site_B_iso_or_equiv
  _atom_site_type_symbol
  Co1      1.0000 0.25477  0.42208  0.13353  Biso   1.000  Co
  Co2      1.0000 0.23921  0.61426  0.30919  Biso   1.000  Co
  O1       1.0000 0.34805  0.58268  0.19574  Biso   1.000  O
  O2       1.0000 0.50984  0.62210  0.11547  Biso   1.000  O
  C1       1.0000 0.44456  0.64291  0.18049  Biso   1.000  C
  H1       1.0000 0.46840  0.71030  0.22340  Biso   1.000  H
  O3       1.0000 0.18492  0.52599  0.02297  Biso   1.000  O
  O4       1.0000 0.34905  0.60206  0.95788  Biso   1.000  O
  C2       1.0000 0.24098  0.59905  0.96605  Biso   1.000  C
  H2       1.0000 0.19560  0.65600  0.92660  Biso   1.000  H
  O5       1.0000 0.15736  0.24471  0.10835  Biso   1.000  O
  O6       1.0000 0.02093  0.29386  0.99940  Biso   1.000  O
  C3       1.0000 0.07800  0.21420  0.04833  Biso   1.000  C
  H3       1.0000 0.06110  0.12130  0.04040  Biso   1.000  H
  O7       1.0000 0.30439  0.30342  0.24837  Biso   1.000  O
  O8       1.0000 0.30354  0.44243  0.37011  Biso   1.000  O
  C4       1.0000 0.31797  0.33055  0.33401  Biso   1.000  C
  H4       1.0000 0.34120  0.25880  0.37360  Biso   1.000  H
  O9       1.0000 0.40133  0.34919  0.06636  Biso   1.000  O
  O10      1.0000 0.39561  0.12863  0.09992  Biso   1.000  O
  C5       1.0000 0.43797  0.22800  0.06123  Biso   1.000  C
  H5       1.0000 0.50430  0.21250  0.02400  Biso   1.000  H
  O11      1.0000 0.12868  0.50825  0.21747  Biso   1.000  O
  O12      1.0000 0.95728  0.50074  0.13917  Biso   1.000  O
  C6       1.0000 0.01732  0.51772  0.21010  Biso   1.000  C
  H6       1.0000 0.97650  0.54000  0.26440  Biso   1.000  H
  Co3      1.0000 0.24523  0.92208  0.36647  Biso   1.000  Co
  Co4      1.0000 0.26079  0.11426  0.19081  Biso   1.000  Co
  O13      1.0000 0.15195  0.08268  0.30426  Biso   1.000  O
  O14      1.0000 0.99016  0.12210  0.38453  Biso   1.000  O
  C7       1.0000 0.05544  0.14291  0.31951  Biso   1.000  C
  H7       1.0000 0.03160  0.21030  0.27660  Biso   1.000  H
  O15      1.0000 0.31508  0.02599  0.47703  Biso   1.000  O
  O16      1.0000 0.15095  0.10206  0.54212  Biso   1.000  O
  C8       1.0000 0.25902  0.09905  0.53395  Biso   1.000  C
  H8       1.0000 0.30440  0.15600  0.57340  Biso   1.000  H
  O17      1.0000 0.34264  0.74471  0.39165  Biso   1.000  O
  O18      1.0000 0.47907  0.79386  0.50060  Biso   1.000  O
  C9       1.0000 0.42200  0.71420  0.45167  Biso   1.000  C
  H9       1.0000 0.43890  0.62130  0.45960  Biso   1.000  H
  O19      1.0000 0.19561  0.80342  0.25163  Biso   1.000  O
  O20      1.0000 0.19646  0.94243  0.12989  Biso   1.000  O
  C10      1.0000 0.18203  0.83055  0.16599  Biso   1.000  C
  H10      1.0000 0.15880  0.75880  0.12640  Biso   1.000  H
  O21      1.0000 0.09867  0.84919  0.43364  Biso   1.000  O
  O22      1.0000 0.10439  0.62863  0.40008  Biso   1.000  O
  C11      1.0000 0.06203  0.72800  0.43877  Biso   1.000  C
  H11      1.0000 0.99570  0.71250  0.47600  Biso   1.000  H
  O23      1.0000 0.37132  0.00825  0.28253  Biso   1.000  O
  O24      1.0000 0.54272  0.00074  0.36083  Biso   1.000  O
  C12      1.0000 0.48268  0.01772  0.28990  Biso   1.000  C
  H12      1.0000 0.52350  0.04000  0.23560  Biso   1.000  H
  Co5      1.0000 0.74523  0.57792  0.86647  Biso   1.000  Co
  Co6      1.0000 0.76079  0.38574  0.69081  Biso   1.000  Co
  O25      1.0000 0.65195  0.41732  0.80426  Biso   1.000  O
  O26      1.0000 0.49016  0.37790  0.88453  Biso   1.000  O
  C13      1.0000 0.55544  0.35709  0.81951  Biso   1.000  C
  H13      1.0000 0.53160  0.28970  0.77660  Biso   1.000  H
  O27      1.0000 0.81508  0.47401  0.97703  Biso   1.000  O
  O28      1.0000 0.65095  0.39794  0.04212  Biso   1.000  O
  C14      1.0000 0.75902  0.40095  0.03395  Biso   1.000  C
  H14      1.0000 0.80440  0.34400  0.07340  Biso   1.000  H
  O29      1.0000 0.84264  0.75529  0.89165  Biso   1.000  O
  O30      1.0000 0.97907  0.70614  0.00060  Biso   1.000  O
  C15      1.0000 0.92200  0.78580  0.95167  Biso   1.000  C
  H15      1.0000 0.93890  0.87870  0.95960  Biso   1.000  H
  O31      1.0000 0.69561  0.69658  0.75163  Biso   1.000  O
  O32      1.0000 0.69646  0.55757  0.62989  Biso   1.000  O
  C16      1.0000 0.68203  0.66945  0.66599  Biso   1.000  C
  H16      1.0000 0.65880  0.74120  0.62640  Biso   1.000  H
  O33      1.0000 0.59867  0.65081  0.93364  Biso   1.000  O
  O34      1.0000 0.60439  0.87137  0.90008  Biso   1.000  O
  C17      1.0000 0.56203  0.77200  0.93877  Biso   1.000  C
  H17      1.0000 0.49570  0.78750  0.97600  Biso   1.000  H
  O35      1.0000 0.87132  0.49175  0.78253  Biso   1.000  O
  O36      1.0000 0.04272  0.49926  0.86083  Biso   1.000  O
  C18      1.0000 0.98268  0.48228  0.78990  Biso   1.000  C
  H18      1.0000 0.02350  0.46000  0.73560  Biso   1.000  H
  Co7      1.0000 0.75477  0.07792  0.63353  Biso   1.000  Co
  Co8      1.0000 0.73921  0.88574  0.80919  Biso   1.000  Co
  O37      1.0000 0.84805  0.91732  0.69574  Biso   1.000  O
  O38      1.0000 0.00984  0.87790  0.61547  Biso   1.000  O
  C19      1.0000 0.94456  0.85709  0.68049  Biso   1.000  C
  H19      1.0000 0.96840  0.78970  0.72340  Biso   1.000  H
  O39      1.0000 0.68492  0.97401  0.52297  Biso   1.000  O
  O40      1.0000 0.84905  0.89794  0.45788  Biso   1.000  O
  C20      1.0000 0.74098  0.90095  0.46605  Biso   1.000  C
  H20      1.0000 0.69560  0.84400  0.42660  Biso   1.000  H
  O41      1.0000 0.65736  0.25529  0.60835  Biso   1.000  O
  O42      1.0000 0.52093  0.20614  0.49940  Biso   1.000  O
  C21      1.0000 0.57800  0.28580  0.54833  Biso   1.000  C
  H21      1.0000 0.56110  0.37870  0.54040  Biso   1.000  H
  O43      1.0000 0.80439  0.19658  0.74837  Biso   1.000  O
  O44      1.0000 0.80354  0.05757  0.87011  Biso   1.000  O
  C22      1.0000 0.81797  0.16945  0.83401  Biso   1.000  C
  H22      1.0000 0.84120  0.24120  0.87360  Biso   1.000  H
  O45      1.0000 0.90133  0.15081  0.56636  Biso   1.000  O
  O46      1.0000 0.89561  0.37137  0.59992  Biso   1.000  O
  C23      1.0000 0.93797  0.27200  0.56123  Biso   1.000  C
  H23      1.0000 0.00430  0.28750  0.52400  Biso   1.000  H
  O47      1.0000 0.62868  0.99175  0.71747  Biso   1.000  O
  O48      1.0000 0.45728  0.99926  0.63917  Biso   1.000  O
  C24      1.0000 0.51732  0.98228  0.71010  Biso   1.000  C
  H24      1.0000 0.47650  0.96000  0.76440  Biso   1.000  H
  Co9      1.0000 0.50000  0.50000  0.00000  Biso   1.000  Co
  Co10     1.0000 0.00000  0.00000  0.50000  Biso   1.000  Co
  Co11     1.0000 0.00000  0.50000  0.00000  Biso   1.000  Co
  Co12     1.0000 0.50000  0.00000  0.50000  Biso   1.000  Co
