data_YAPRUE_charged
_audit_creation_date              2014-07-02
_audit_creation_method            'Materials Studio'
_symmetry_space_group_name_H-M    'P1'
_symmetry_Int_Tables_number       1
_symmetry_cell_setting            triclinic
loop_
_symmetry_equiv_pos_as_xyz
  x,y,z
_cell_length_a                    15.4540
_cell_length_b                    18.7345
_cell_length_c                    18.7345
_cell_angle_alpha                 80.2055
_cell_angle_beta                  65.6412
_cell_angle_gamma                 65.6412
loop_
_atom_site_label
_atom_site_type_symbol
_atom_site_fract_x
_atom_site_fract_y
_atom_site_fract_z
_atom_site_U_iso_or_equiv
_atom_site_adp_type
_atom_site_occupancy
Cs1    Cs    0.44572   0.50094   0.83728   0.01267  Uiso   1.00
Cs2    Cs    0.78394   0.49906   0.16272   0.01267  Uiso   1.00
Cs3    Cs    0.28300   0.16272   0.50094   0.01267  Uiso   1.00
Cs4    Cs    0.94666   0.83728   0.49906   0.01267  Uiso   1.00
H1     H     0.06000   0.40340   0.85440   0.01267  Uiso   1.00
H2     H     0.01960   0.31950   0.01210   0.01267  Uiso   1.00
H3     H     0.32200   0.49400   0.05180   0.01267  Uiso   1.00
H4     H     0.97310   0.21980   0.32240   0.01267  Uiso   1.00
H5     H     0.00860   0.37300   0.13600   0.01267  Uiso   1.00
H6     H     0.41750   0.26910   0.18750   0.01267  Uiso   1.00
H7     H     0.99570   0.55240   0.87760   0.01267  Uiso   1.00
H8     H     0.09660   0.65980   0.69560   0.01267  Uiso   1.00
H9     H     0.44090   0.68180   0.72260   0.01267  Uiso   1.00
H10    H     0.09860   0.72640   0.64100   0.01267  Uiso   1.00
H11    H     0.01880   0.98360   0.55220   0.01267  Uiso   1.00
H12    H     0.35890   0.90310   0.70350   0.01267  Uiso   1.00
H13    H     0.26290   0.40920   0.81560   0.01267  Uiso   1.00
H14    H     0.10790   0.44150   0.92370   0.01267  Uiso   1.00
H15    H     0.19150   0.28150   0.97510   0.01267  Uiso   1.00
H16    H     0.14230   0.42420   0.04740   0.01267  Uiso   1.00
H17    H     0.34130   0.30440   0.96560   0.01267  Uiso   1.00
H18    H     0.41670   0.38330   0.98130   0.01267  Uiso   1.00
H19    H     0.34240   0.36730   0.06650   0.01267  Uiso   1.00
H20    H     0.14790   0.41590   0.15690   0.01267  Uiso   1.00
H21    H     0.02770   0.38950   0.27310   0.01267  Uiso   1.00
H22    H     0.08270   0.24430   0.20250   0.01267  Uiso   1.00
H23    H     0.38960   0.33370   0.73350   0.01267  Uiso   1.00
H24    H     0.27300   0.21460   0.17620   0.01267  Uiso   1.00
H25    H     0.33650   0.16210   0.28110   0.01267  Uiso   1.00
H26    H     0.30480   0.24960   0.30620   0.01267  Uiso   1.00
H27    H     0.16780   0.55410   0.93070   0.01267  Uiso   1.00
H28    H     0.13970   0.55860   0.81760   0.01267  Uiso   1.00
H29    H     0.01400   0.72210   0.84010   0.01267  Uiso   1.00
H30    H     0.21920   0.66070   0.72690   0.01267  Uiso   1.00
H31    H     0.14600   0.74360   0.87000   0.01267  Uiso   1.00
H32    H     0.31780   0.72100   0.84420   0.01267  Uiso   1.00
H33    H     0.28230   0.77660   0.77820   0.01267  Uiso   1.00
H34    H     0.24820   0.73780   0.63240   0.01267  Uiso   1.00
H35    H     0.17720   0.82320   0.55160   0.01267  Uiso   1.00
H36    H     0.00060   0.90430   0.68490   0.01267  Uiso   1.00
H37    H     0.11740   0.57870   0.04270   0.01267  Uiso   1.00
H38    H     0.12220   0.90780   0.74020   0.01267  Uiso   1.00
H39    H     0.17880   0.01340   0.70800   0.01267  Uiso   1.00
H40    H     0.27570   0.96500   0.63480   0.01267  Uiso   1.00
H41    H     0.31780   0.59660   0.14560   0.01267  Uiso   1.00
H42    H     0.35120   0.68050   0.98790   0.01267  Uiso   1.00
H43    H     0.86780   0.50600   0.94820   0.01267  Uiso   1.00
H44    H     0.51530   0.78020   0.67760   0.01267  Uiso   1.00
H45    H     0.51760   0.62700   0.86400   0.01267  Uiso   1.00
H46    H     0.87410   0.73090   0.81250   0.01267  Uiso   1.00
H47    H     0.42570   0.44760   0.12240   0.01267  Uiso   1.00
H48    H     0.45200   0.34020   0.30440   0.01267  Uiso   1.00
H49    H     0.84530   0.31820   0.27740   0.01267  Uiso   1.00
H50    H     0.46600   0.27360   0.35900   0.01267  Uiso   1.00
H51    H     0.55460   0.01640   0.44780   0.01267  Uiso   1.00
H52    H     0.96550   0.09690   0.29650   0.01267  Uiso   1.00
H53    H     0.48770   0.59080   0.18440   0.01267  Uiso   1.00
H54    H     0.47310   0.55850   0.07630   0.01267  Uiso   1.00
H55    H     0.44810   0.71850   0.02490   0.01267  Uiso   1.00
H56    H     0.61390   0.57580   0.95260   0.01267  Uiso   1.00
H57    H     0.61130   0.69560   0.03440   0.01267  Uiso   1.00
H58    H     0.78130   0.61670   0.01870   0.01267  Uiso   1.00
H59    H     0.77620   0.63270   0.93350   0.01267  Uiso   1.00
H60    H     0.72070   0.58410   0.84310   0.01267  Uiso   1.00
H61    H     0.69030   0.61050   0.72690   0.01267  Uiso   1.00
H62    H     0.52950   0.75570   0.79750   0.01267  Uiso   1.00
H63    H     0.45680   0.66630   0.26650   0.01267  Uiso   1.00
H64    H     0.66380   0.78540   0.82380   0.01267  Uiso   1.00
H65    H     0.77970   0.83790   0.71890   0.01267  Uiso   1.00
H66    H     0.86060   0.75040   0.69380   0.01267  Uiso   1.00
H67    H     0.65260   0.44590   0.06930   0.01267  Uiso   1.00
H68    H     0.51590   0.44140   0.18240   0.01267  Uiso   1.00
H69    H     0.57620   0.27790   0.15990   0.01267  Uiso   1.00
H70    H     0.60680   0.33930   0.27310   0.01267  Uiso   1.00
H71    H     0.75960   0.25640   0.13000   0.01267  Uiso   1.00
H72    H     0.88300   0.27900   0.15580   0.01267  Uiso   1.00
H73    H     0.83710   0.22340   0.22180   0.01267  Uiso   1.00
H74    H     0.61840   0.26220   0.36760   0.01267  Uiso   1.00
H75    H     0.55200   0.17680   0.44840   0.01267  Uiso   1.00
H76    H     0.58980   0.09570   0.31510   0.01267  Uiso   1.00
H77    H     0.73880   0.42130   0.95730   0.01267  Uiso   1.00
H78    H     0.77020   0.09220   0.25980   0.01267  Uiso   1.00
H79    H     0.90020   0.98660   0.29200   0.01267  Uiso   1.00
H80    H     0.87550   0.03500   0.36520   0.01267  Uiso   1.00
H81    H     0.91440   0.14560   0.40340   0.01267  Uiso   1.00
H82    H     0.03170   0.98790   0.31950   0.01267  Uiso   1.00
H83    H     0.37380   0.94820   0.49400   0.01267  Uiso   1.00
H84    H     0.29550   0.67760   0.21980   0.01267  Uiso   1.00
H85    H     0.14460   0.86400   0.37300   0.01267  Uiso   1.00
H86    H     0.60500   0.81250   0.26910   0.01267  Uiso   1.00
H87    H     0.87330   0.12240   0.55240   0.01267  Uiso   1.00
H88    H     0.79220   0.30440   0.65980   0.01267  Uiso   1.00
H89    H     0.16350   0.27740   0.68180   0.01267  Uiso   1.00
H90    H     0.73960   0.35900   0.72640   0.01267  Uiso   1.00
H91    H     0.57100   0.44780   0.98360   0.01267  Uiso   1.00
H92    H     0.06240   0.29650   0.90310   0.01267  Uiso   1.00
H93    H     0.07850   0.18440   0.40920   0.01267  Uiso   1.00
H94    H     0.03160   0.07630   0.44150   0.01267  Uiso   1.00
H95    H     0.16660   0.02490   0.28150   0.01267  Uiso   1.00
H96    H     0.18970   0.95260   0.42420   0.01267  Uiso   1.00
H97    H     0.30690   0.03440   0.30440   0.01267  Uiso   1.00
H98    H     0.39800   0.01870   0.38330   0.01267  Uiso   1.00
H99    H     0.40890   0.93350   0.36730   0.01267  Uiso   1.00
H100   H     0.30480   0.84310   0.41590   0.01267  Uiso   1.00
H101   H     0.30080   0.72690   0.38950   0.01267  Uiso   1.00
H102   H     0.28520   0.79750   0.24430   0.01267  Uiso   1.00
H103   H     0.12310   0.26650   0.33370   0.01267  Uiso   1.00
H104   H     0.44920   0.82380   0.21460   0.01267  Uiso   1.00
H105   H     0.61760   0.71890   0.16210   0.01267  Uiso   1.00
H106   H     0.61100   0.69380   0.24960   0.01267  Uiso   1.00
H107   H     0.09850   0.06930   0.55410   0.01267  Uiso   1.00
H108   H     0.95730   0.18240   0.55860   0.01267  Uiso   1.00
H109   H     0.85410   0.15990   0.72210   0.01267  Uiso   1.00
H110   H     0.94610   0.27310   0.66070   0.01267  Uiso   1.00
H111   H     0.01600   0.13000   0.74360   0.01267  Uiso   1.00
H112   H     0.16200   0.15580   0.72100   0.01267  Uiso   1.00
H113   H     0.06050   0.22180   0.77660   0.01267  Uiso   1.00
H114   H     0.88060   0.36760   0.73780   0.01267  Uiso   1.00
H115   H     0.72880   0.44840   0.82320   0.01267  Uiso   1.00
H116   H     0.68550   0.31510   0.90430   0.01267  Uiso   1.00
H117   H     0.16010   0.95730   0.57870   0.01267  Uiso   1.00
H118   H     0.86240   0.25980   0.90780   0.01267  Uiso   1.00
H119   H     0.88680   0.29200   0.01340   0.01267  Uiso   1.00
H120   H     0.91050   0.36520   0.96500   0.01267  Uiso   1.00
H121   H     0.46340   0.85440   0.59660   0.01267  Uiso   1.00
H122   H     0.33910   0.01210   0.68050   0.01267  Uiso   1.00
H123   H     0.81600   0.05180   0.50600   0.01267  Uiso   1.00
H124   H     0.19290   0.32240   0.78020   0.01267  Uiso   1.00
H125   H     0.38160   0.13600   0.62700   0.01267  Uiso   1.00
H126   H     0.68660   0.18750   0.73090   0.01267  Uiso   1.00
H127   H     0.54810   0.87760   0.44760   0.01267  Uiso   1.00
H128   H     0.75640   0.69560   0.34020   0.01267  Uiso   1.00
H129   H     0.12270   0.72260   0.31820   0.01267  Uiso   1.00
H130   H     0.82500   0.64100   0.27360   0.01267  Uiso   1.00
H131   H     0.00240   0.55220   0.01640   0.01267  Uiso   1.00
H132   H     0.26200   0.70350   0.09690   0.01267  Uiso   1.00
H133   H     0.67210   0.81560   0.59080   0.01267  Uiso   1.00
H134   H     0.54940   0.92370   0.55850   0.01267  Uiso   1.00
H135   H     0.47300   0.97510   0.71850   0.01267  Uiso   1.00
H136   H     0.56650   0.04740   0.57580   0.01267  Uiso   1.00
H137   H     0.64570   0.96560   0.69560   0.01267  Uiso   1.00
H138   H     0.80000   0.98130   0.61670   0.01267  Uiso   1.00
H139   H     0.70970   0.06650   0.63270   0.01267  Uiso   1.00
H140   H     0.56380   0.15690   0.58410   0.01267  Uiso   1.00
H141   H     0.41720   0.27310   0.61050   0.01267  Uiso   1.00
H142   H     0.32700   0.20250   0.75570   0.01267  Uiso   1.00
H143   H     0.72330   0.73350   0.66630   0.01267  Uiso   1.00
H144   H     0.48760   0.17620   0.78540   0.01267  Uiso   1.00
H145   H     0.49860   0.28110   0.83790   0.01267  Uiso   1.00
H146   H     0.55440   0.30620   0.75040   0.01267  Uiso   1.00
H147   H     0.72190   0.93070   0.44590   0.01267  Uiso   1.00
H148   H     0.69830   0.81760   0.44140   0.01267  Uiso   1.00
H149   H     0.73610   0.84010   0.27790   0.01267  Uiso   1.00
H150   H     0.87990   0.72690   0.33930   0.01267  Uiso   1.00
H151   H     0.88960   0.87000   0.25640   0.01267  Uiso   1.00
H152   H     0.03880   0.84420   0.27900   0.01267  Uiso   1.00
H153   H     0.05890   0.77820   0.22340   0.01267  Uiso   1.00
H154   H     0.98600   0.63240   0.26220   0.01267  Uiso   1.00
H155   H     0.00040   0.55160   0.17680   0.01267  Uiso   1.00
H156   H     0.90490   0.68490   0.09570   0.01267  Uiso   1.00
H157   H     0.69610   0.04270   0.42130   0.01267  Uiso   1.00
H158   H     0.03000   0.74020   0.09220   0.01267  Uiso   1.00
H159   H     0.19220   0.70800   0.98660   0.01267  Uiso   1.00
H160   H     0.24070   0.63480   0.03500   0.01267  Uiso   1.00
C1     C     0.26050   0.37660   0.86400   0.01267  Uiso   1.00
C2     C     0.15120   0.38490   0.91050   0.01267  Uiso   1.00
C3     C     0.14680   0.33790   0.98810   0.01267  Uiso   1.00
C4     C     0.18720   0.36840   0.03160   0.01267  Uiso   1.00
C5     C     0.29730   0.36100   0.97820   0.01267  Uiso   1.00
C6     C     0.34410   0.39390   0.01570   0.01267  Uiso   1.00
C7     C     0.15580   0.36000   0.16960   0.01267  Uiso   1.00
C8     C     0.05180   0.35860   0.22520   0.01267  Uiso   1.00
C9     C     0.06230   0.27520   0.24940   0.01267  Uiso   1.00
C10    C     0.38490   0.28390   0.76090   0.01267  Uiso   1.00
C11    C     0.24710   0.24620   0.22400   0.01267  Uiso   1.00
C12    C     0.32870   0.21580   0.26120   0.01267  Uiso   1.00
C13    C     0.14320   0.60730   0.90790   0.01267  Uiso   1.00
C14    C     0.09250   0.60450   0.85370   0.01267  Uiso   1.00
C15    C     0.07170   0.67830   0.80470   0.01267  Uiso   1.00
C16    C     0.16350   0.70030   0.76770   0.01267  Uiso   1.00
C17    C     0.20260   0.70400   0.82940   0.01267  Uiso   1.00
C18    C     0.29750   0.72290   0.80010   0.01267  Uiso   1.00
C19    C     0.19390   0.78950   0.65530   0.01267  Uiso   1.00
C20    C     0.12960   0.82110   0.60710   0.01267  Uiso   1.00
C21    C     0.05360   0.90480   0.63140   0.01267  Uiso   1.00
C22    C     0.06420   0.63300   0.04680   0.01267  Uiso   1.00
C23    C     0.17050   0.91360   0.68620   0.01267  Uiso   1.00
C24    C     0.22850   0.95990   0.68890   0.01267  Uiso   1.00
C25    C     0.50110   0.62340   0.13600   0.01267  Uiso   1.00
C26    C     0.44660   0.61510   0.08950   0.01267  Uiso   1.00
C27    C     0.47280   0.66210   0.01190   0.01267  Uiso   1.00
C28    C     0.58720   0.63160   0.96840   0.01267  Uiso   1.00
C29    C     0.63650   0.63900   0.02180   0.01267  Uiso   1.00
C30    C     0.75370   0.60610   0.98430   0.01267  Uiso   1.00
C31    C     0.68540   0.64000   0.83040   0.01267  Uiso   1.00
C32    C     0.63560   0.64140   0.77480   0.01267  Uiso   1.00
C33    C     0.58690   0.72480   0.75060   0.01267  Uiso   1.00
C34    C     0.42970   0.71610   0.23910   0.01267  Uiso   1.00
C35    C     0.71730   0.75380   0.77600   0.01267  Uiso   1.00
C36    C     0.80570   0.78420   0.73880   0.01267  Uiso   1.00
C37    C     0.65840   0.39270   0.09210   0.01267  Uiso   1.00
C38    C     0.55070   0.39550   0.14630   0.01267  Uiso   1.00
C39    C     0.55470   0.32170   0.19530   0.01267  Uiso   1.00
C40    C     0.63150   0.29970   0.23230   0.01267  Uiso   1.00
C41    C     0.73600   0.29600   0.17060   0.01267  Uiso   1.00
C42    C     0.82050   0.27710   0.19990   0.01267  Uiso   1.00
C43    C     0.63870   0.21050   0.34470   0.01267  Uiso   1.00
C44    C     0.55780   0.17890   0.39290   0.01267  Uiso   1.00
C45    C     0.58980   0.09520   0.36860   0.01267  Uiso   1.00
C46    C     0.74400   0.36700   0.95320   0.01267  Uiso   1.00
C47    C     0.77030   0.08640   0.31380   0.01267  Uiso   1.00
C48    C     0.87730   0.04010   0.31110   0.01267  Uiso   1.00
C49    C     0.12450   0.13600   0.37660   0.01267  Uiso   1.00
C50    C     0.06170   0.08950   0.38490   0.01267  Uiso   1.00
C51    C     0.13490   0.01190   0.33790   0.01267  Uiso   1.00
C52    C     0.21880   0.96840   0.36840   0.01267  Uiso   1.00
C53    C     0.27550   0.02180   0.36100   0.01267  Uiso   1.00
C54    C     0.35980   0.98430   0.39390   0.01267  Uiso   1.00
C55    C     0.32540   0.83040   0.36000   0.01267  Uiso   1.00
C56    C     0.27700   0.77480   0.35860   0.01267  Uiso   1.00
C57    C     0.31170   0.75060   0.27520   0.01267  Uiso   1.00
C58    C     0.14580   0.23910   0.28390   0.01267  Uiso   1.00
C59    C     0.47110   0.77600   0.24620   0.01267  Uiso   1.00
C60    C     0.58990   0.73880   0.21580   0.01267  Uiso   1.00
C61    C     0.05110   0.09210   0.60730   0.01267  Uiso   1.00
C62    C     0.94620   0.14630   0.60450   0.01267  Uiso   1.00
C63    C     0.87640   0.19530   0.67830   0.01267  Uiso   1.00
C64    C     0.93120   0.23230   0.70030   0.01267  Uiso   1.00
C65    C     0.03200   0.17060   0.70400   0.01267  Uiso   1.00
C66    C     0.09760   0.19990   0.72290   0.01267  Uiso   1.00
C67    C     0.84920   0.34470   0.78950   0.01267  Uiso   1.00
C68    C     0.73670   0.39290   0.82110   0.01267  Uiso   1.00
C69    C     0.68500   0.36860   0.90480   0.01267  Uiso   1.00
C70    C     0.11100   0.95320   0.63300   0.01267  Uiso   1.00
C71    C     0.85670   0.31380   0.91360   0.01267  Uiso   1.00
C72    C     0.91740   0.31110   0.95990   0.01267  Uiso   1.00
C73    C     0.63710   0.86400   0.62340   0.01267  Uiso   1.00
C74    C     0.53610   0.91050   0.61510   0.01267  Uiso   1.00
C75    C     0.48470   0.98810   0.66210   0.01267  Uiso   1.00
C76    C     0.55560   0.03160   0.63160   0.01267  Uiso   1.00
C77    C     0.65830   0.97820   0.63900   0.01267  Uiso   1.00
C78    C     0.73800   0.01570   0.60610   0.01267  Uiso   1.00
C79    C     0.51580   0.16960   0.64000   0.01267  Uiso   1.00
C80    C     0.41040   0.22520   0.64140   0.01267  Uiso   1.00
C81    C     0.33750   0.24940   0.72480   0.01267  Uiso   1.00
C82    C     0.66880   0.76090   0.71610   0.01267  Uiso   1.00
C83    C     0.49330   0.22400   0.75380   0.01267  Uiso   1.00
C84    C     0.54450   0.26120   0.78420   0.01267  Uiso   1.00
C85    C     0.75050   0.90790   0.39270   0.01267  Uiso   1.00
C86    C     0.69700   0.85370   0.39550   0.01267  Uiso   1.00
C87    C     0.75000   0.80470   0.32170   0.01267  Uiso   1.00
C88    C     0.86380   0.76770   0.29970   0.01267  Uiso   1.00
C89    C     0.90660   0.82940   0.29600   0.01267  Uiso   1.00
C90    C     0.02040   0.80010   0.27710   0.01267  Uiso   1.00
C91    C     0.98340   0.65530   0.21050   0.01267  Uiso   1.00
C92    C     0.95070   0.60710   0.17890   0.01267  Uiso   1.00
C93    C     0.95840   0.63140   0.09520   0.01267  Uiso   1.00
C94    C     0.69720   0.04680   0.36700   0.01267  Uiso   1.00
C95    C     0.08410   0.68620   0.08640   0.01267  Uiso   1.00
C96    C     0.18840   0.68890   0.04010   0.01267  Uiso   1.00
O1     O     0.29910   0.40350   0.90710   0.01267  Uiso   1.00
O2     O     0.11400   0.35880   0.86620   0.01267  Uiso   1.00
O3     O     0.04450   0.34350   0.03810   0.01267  Uiso   1.00
O4     O     0.19190   0.32030   0.09870   0.01267  Uiso   1.00
O5     O     0.29040   0.47420   0.02800   0.01267  Uiso   1.00
O6     O     0.23040   0.32530   0.20290   0.01267  Uiso   1.00
O7     O     0.96580   0.27410   0.30730   0.01267  Uiso   1.00
O8     O     0.32200   0.29900   0.84180   0.01267  Uiso   1.00
O9     O     0.97890   0.39460   0.18880   0.01267  Uiso   1.00
O10    O     0.42480   0.21560   0.20660   0.01267  Uiso   1.00
O11    O     0.22830   0.62940   0.86600   0.01267  Uiso   1.00
O12    O     0.00040   0.59290   0.90110   0.01267  Uiso   1.00
O13    O     0.04000   0.66790   0.74690   0.01267  Uiso   1.00
O14    O     0.13170   0.77520   0.73160   0.01267  Uiso   1.00
O15    O     0.38000   0.66850   0.74110   0.01267  Uiso   1.00
O16    O     0.24390   0.83800   0.65400   0.01267  Uiso   1.00
O17    O     0.08040   0.77230   0.60810   0.01267  Uiso   1.00
O18    O     0.00460   0.93700   0.57680   0.01267  Uiso   1.00
O19    O     0.06740   0.66120   0.97040   0.01267  Uiso   1.00
O20    O     0.28600   0.92790   0.73650   0.01267  Uiso   1.00
O21    O     0.60970   0.59650   0.09290   0.01267  Uiso   1.00
O22    O     0.33900   0.64120   0.13380   0.01267  Uiso   1.00
O23    O     0.42610   0.65650   0.96190   0.01267  Uiso   1.00
O24    O     0.61090   0.67970   0.90130   0.01267  Uiso   1.00
O25    O     0.79260   0.52580   0.97200   0.01267  Uiso   1.00
O26    O     0.75860   0.67470   0.79710   0.01267  Uiso   1.00
O27    O     0.54720   0.72590   0.69270   0.01267  Uiso   1.00
O28    O     0.46280   0.70100   0.15820   0.01267  Uiso   1.00
O29    O     0.56230   0.60540   0.81120   0.01267  Uiso   1.00
O30    O     0.84700   0.78440   0.79340   0.01267  Uiso   1.00
O31    O     0.72370   0.37060   0.13400   0.01267  Uiso   1.00
O32    O     0.49440   0.40710   0.09890   0.01267  Uiso   1.00
O33    O     0.45480   0.33210   0.25310   0.01267  Uiso   1.00
O34    O     0.63850   0.22480   0.26840   0.01267  Uiso   1.00
O35    O     0.78960   0.33150   0.25890   0.01267  Uiso   1.00
O36    O     0.73590   0.16200   0.34600   0.01267  Uiso   1.00
O37    O     0.46080   0.22770   0.39190   0.01267  Uiso   1.00
O38    O     0.51840   0.06300   0.42320   0.01267  Uiso   1.00
O39    O     0.69900   0.33880   0.02960   0.01267  Uiso   1.00
O40    O     0.95040   0.07210   0.26350   0.01267  Uiso   1.00
O41    O     0.20620   0.09290   0.40350   0.01267  Uiso   1.00
O42    O     0.98020   0.13380   0.35880   0.01267  Uiso   1.00
O43    O     0.08260   0.96190   0.34350   0.01267  Uiso   1.00
O44    O     0.29060   0.90130   0.32030   0.01267  Uiso   1.00
O45    O     0.31840   0.97200   0.47420   0.01267  Uiso   1.00
O46    O     0.43330   0.79710   0.32530   0.01267  Uiso   1.00
O47    O     0.27310   0.69270   0.27410   0.01267  Uiso   1.00
O48    O     0.16380   0.15820   0.29900   0.01267  Uiso   1.00
O49    O     0.16770   0.81120   0.39460   0.01267  Uiso   1.00
O50    O     0.63140   0.79340   0.21560   0.01267  Uiso   1.00
O51    O     0.09430   0.13400   0.62940   0.01267  Uiso   1.00
O52    O     0.90150   0.09890   0.59290   0.01267  Uiso   1.00
O53    O     0.78690   0.25310   0.66790   0.01267  Uiso   1.00
O54    O     0.86330   0.26840   0.77520   0.01267  Uiso   1.00
O55    O     0.12110   0.25890   0.66850   0.01267  Uiso   1.00
O56    O     0.89790   0.34600   0.83800   0.01267  Uiso   1.00
O57    O     0.68850   0.39190   0.77230   0.01267  Uiso   1.00
O58    O     0.58140   0.42320   0.93700   0.01267  Uiso   1.00
O59    O     0.03780   0.02960   0.66120   0.01267  Uiso   1.00
O60    O     0.02250   0.26350   0.92790   0.01267  Uiso   1.00
O61    O     0.70260   0.90710   0.59650   0.01267  Uiso   1.00
O62    O     0.47280   0.86620   0.64120   0.01267  Uiso   1.00
O63    O     0.38800   0.03810   0.65650   0.01267  Uiso   1.00
O64    O     0.51220   0.09870   0.67970   0.01267  Uiso   1.00
O65    O     0.76460   0.02800   0.52580   0.01267  Uiso   1.00
O66    O     0.55570   0.20290   0.67470   0.01267  Uiso   1.00
O67    O     0.23990   0.30730   0.72590   0.01267  Uiso   1.00
O68    O     0.62100   0.84180   0.70100   0.01267  Uiso   1.00
O69    O     0.37350   0.18880   0.60540   0.01267  Uiso   1.00
O70    O     0.64040   0.20660   0.78440   0.01267  Uiso   1.00
O71    O     0.85770   0.86600   0.37060   0.01267  Uiso   1.00
O72    O     0.59330   0.90110   0.40710   0.01267  Uiso   1.00
O73    O     0.70790   0.74690   0.33210   0.01267  Uiso   1.00
O74    O     0.90690   0.73160   0.22480   0.01267  Uiso   1.00
O75    O     0.04850   0.74110   0.33150   0.01267  Uiso   1.00
O76    O     0.08190   0.65400   0.16200   0.01267  Uiso   1.00
O77    O     0.85270   0.60810   0.22770   0.01267  Uiso   1.00
O78    O     0.94160   0.57680   0.06300   0.01267  Uiso   1.00
O79    O     0.72860   0.97040   0.33880   0.01267  Uiso   1.00
O80    O     0.21390   0.73650   0.07210   0.01267  Uiso   1.00
