data_YAPSAL_charged
_audit_creation_date              2014-07-02
_audit_creation_method            'Materials Studio'
_symmetry_space_group_name_H-M    'P1'
_symmetry_Int_Tables_number       1
_symmetry_cell_setting            triclinic
loop_
_symmetry_equiv_pos_as_xyz
  x,y,z
_cell_length_a                    17.4843
_cell_length_b                    17.4843
_cell_length_c                    22.5856
_cell_angle_alpha                 90.0000
_cell_angle_beta                  90.0000
_cell_angle_gamma                 120.0000
loop_
_atom_site_label
_atom_site_type_symbol
_atom_site_fract_x
_atom_site_fract_y
_atom_site_fract_z
_atom_site_U_iso_or_equiv
_atom_site_adp_type
_atom_site_occupancy
Sr1    Sr    0.58079   0.25492   0.71229   0.01267  Uiso   1.00
Sr2    Sr    0.67413   0.41921   0.04562   0.01267  Uiso   1.00
Sr3    Sr    0.74508   0.32587   0.37896   0.01267  Uiso   1.00
H1     H     0.43710   0.18270   0.99260   0.01267  Uiso   1.00
H2     H     0.00400   0.76790   0.94170   0.01267  Uiso   1.00
H3     H     0.12830   0.17490   0.93660   0.01267  Uiso   1.00
H4     H     0.95350   0.19880   0.97480   0.01267  Uiso   1.00
H5     H     0.65980   0.58820   0.94060   0.01267  Uiso   1.00
H6     H     0.94610   0.06120   0.82520   0.01267  Uiso   1.00
H7     H     0.04920   0.23470   0.87510   0.01267  Uiso   1.00
H8     H     0.05550   0.91320   0.88530   0.01267  Uiso   1.00
H9     H     0.41200   0.53030   0.73450   0.01267  Uiso   1.00
H10    H     0.50070   0.54570   0.76640   0.01267  Uiso   1.00
H11    H     0.21030   0.59770   0.94430   0.01267  Uiso   1.00
H12    H     0.93850   0.07110   0.93660   0.01267  Uiso   1.00
H13    H     0.77060   0.29600   0.85510   0.01267  Uiso   1.00
H14    H     0.03480   0.52120   0.89830   0.01267  Uiso   1.00
H15    H     0.06980   0.28680   0.75620   0.01267  Uiso   1.00
H16    H     0.29570   0.84680   0.95420   0.01267  Uiso   1.00
H17    H     0.89750   0.65440   0.88340   0.01267  Uiso   1.00
H18    H     0.29960   0.87330   0.83800   0.01267  Uiso   1.00
H19    H     0.65500   0.43340   0.89320   0.01267  Uiso   1.00
H20    H     0.88920   0.83940   0.94690   0.01267  Uiso   1.00
H21    H     0.80470   0.18680   0.93490   0.01267  Uiso   1.00
H22    H     0.28160   0.04060   0.91100   0.01267  Uiso   1.00
H23    H     0.10860   0.11150   0.01680   0.01267  Uiso   1.00
H24    H     0.52530   0.40040   0.84430   0.01267  Uiso   1.00
H25    H     0.40620   0.13150   0.88600   0.01267  Uiso   1.00
H26    H     0.64950   0.63430   0.83920   0.01267  Uiso   1.00
H27    H     0.52580   0.10340   0.95760   0.01267  Uiso   1.00
H28    H     0.77400   0.57280   0.85550   0.01267  Uiso   1.00
H29    H     0.91630   0.36060   0.88940   0.01267  Uiso   1.00
H30    H     0.17850   0.91700   0.96220   0.01267  Uiso   1.00
H31    H     0.68210   0.64860   0.73940   0.01267  Uiso   1.00
H32    H     0.77210   0.70880   0.77460   0.01267  Uiso   1.00
H33    H     0.98600   0.29610   0.83510   0.01267  Uiso   1.00
H34    H     0.65720   0.29590   0.86360   0.01267  Uiso   1.00
H35    H     0.53630   0.26730   0.92330   0.01267  Uiso   1.00
H36    H     0.25970   0.32210   0.89530   0.01267  Uiso   1.00
H37    H     0.40370   0.54870   0.83910   0.01267  Uiso   1.00
H38    H     0.07570   0.65630   0.85280   0.01267  Uiso   1.00
H39    H     0.12820   0.78080   0.89320   0.01267  Uiso   1.00
H40    H     0.40570   0.38680   0.85320   0.01267  Uiso   1.00
H41    H     0.02450   0.13030   0.73580   0.01267  Uiso   1.00
H42    H     0.95990   0.16560   0.75610   0.01267  Uiso   1.00
H43    H     0.11970   0.05030   0.88920   0.01267  Uiso   1.00
H44    H     0.97330   0.93510   0.76820   0.01267  Uiso   1.00
H45    H     0.04580   0.90610   0.77780   0.01267  Uiso   1.00
H46    H     0.38250   0.49290   0.94070   0.01267  Uiso   1.00
H47    H     0.88030   0.83470   0.83510   0.01267  Uiso   1.00
H48    H     0.18070   0.38050   0.85100   0.01267  Uiso   1.00
H49    H     0.18730   0.77290   0.77240   0.01267  Uiso   1.00
H50    H     0.12630   0.81430   0.78890   0.01267  Uiso   1.00
H51    H     0.39200   0.00410   0.78830   0.01267  Uiso   1.00
H52    H     0.40030   0.09900   0.78020   0.01267  Uiso   1.00
H53    H     0.26860   0.64950   0.83730   0.01267  Uiso   1.00
H54    H     0.73940   0.14230   0.73690   0.01267  Uiso   1.00
H55    H     0.65680   0.12070   0.77820   0.01267  Uiso   1.00
H56    H     0.13380   0.46520   0.85310   0.01267  Uiso   1.00
H57    H     0.24390   0.61320   0.73450   0.01267  Uiso   1.00
H58    H     0.29270   0.56920   0.76820   0.01267  Uiso   1.00
H59    H     0.76510   0.13010   0.83760   0.01267  Uiso   1.00
H60    H     0.84380   0.68610   0.98560   0.01267  Uiso   1.00
H61    H     0.76350   0.56420   0.76120   0.01267  Uiso   1.00
H62    H     0.21830   0.77090   0.02000   0.01267  Uiso   1.00
H63    H     0.00750   0.30660   0.93640   0.01267  Uiso   1.00
H64    H     0.83250   0.33810   0.97470   0.01267  Uiso   1.00
H65    H     0.12650   0.46170   0.76860   0.01267  Uiso   1.00
H66    H     0.11040   0.65600   0.97230   0.01267  Uiso   1.00
H67    H     0.46910   0.42210   0.73470   0.01267  Uiso   1.00
H68    H     0.07800   0.43630   0.95770   0.01267  Uiso   1.00
H69    H     0.26260   0.99980   0.02530   0.01267  Uiso   1.00
H70    H     0.02710   0.94710   0.98800   0.01267  Uiso   1.00
H71    H     0.35670   0.37280   0.99590   0.01267  Uiso   1.00
H72    H     0.92810   0.77310   0.74000   0.01267  Uiso   1.00
H73    H     0.21850   0.41070   0.97160   0.01267  Uiso   1.00
H74    H     0.51880   0.06420   0.84720   0.01267  Uiso   1.00
H75    H     0.19820   0.87600   0.70740   0.01267  Uiso   1.00
H76    H     0.74560   0.56290   0.32593   0.01267  Uiso   1.00
H77    H     0.76390   0.99600   0.27503   0.01267  Uiso   1.00
H78    H     0.04660   0.87170   0.26993   0.01267  Uiso   1.00
H79    H     0.24530   0.04650   0.30813   0.01267  Uiso   1.00
H80    H     0.92840   0.34020   0.27393   0.01267  Uiso   1.00
H81    H     0.11510   0.05390   0.15853   0.01267  Uiso   1.00
H82    H     0.18550   0.95080   0.20843   0.01267  Uiso   1.00
H83    H     0.85770   0.94450   0.21863   0.01267  Uiso   1.00
H84    H     0.11830   0.58800   0.06783   0.01267  Uiso   1.00
H85    H     0.04500   0.49930   0.09973   0.01267  Uiso   1.00
H86    H     0.38740   0.78970   0.27763   0.01267  Uiso   1.00
H87    H     0.13260   0.06150   0.26993   0.01267  Uiso   1.00
H88    H     0.52540   0.22940   0.18843   0.01267  Uiso   1.00
H89    H     0.48640   0.96520   0.23163   0.01267  Uiso   1.00
H90    H     0.21700   0.93020   0.08953   0.01267  Uiso   1.00
H91    H     0.55110   0.70430   0.28753   0.01267  Uiso   1.00
H92    H     0.75690   0.10250   0.21673   0.01267  Uiso   1.00
H93    H     0.57370   0.70040   0.17133   0.01267  Uiso   1.00
H94    H     0.77840   0.34500   0.22653   0.01267  Uiso   1.00
H95    H     0.95020   0.11080   0.28023   0.01267  Uiso   1.00
H96    H     0.38210   0.19530   0.26823   0.01267  Uiso   1.00
H97    H     0.75900   0.71840   0.24433   0.01267  Uiso   1.00
H98    H     0.00290   0.89140   0.35013   0.01267  Uiso   1.00
H99    H     0.87510   0.47470   0.17763   0.01267  Uiso   1.00
H100   H     0.72530   0.59380   0.21933   0.01267  Uiso   1.00
H101   H     0.98480   0.35050   0.17253   0.01267  Uiso   1.00
H102   H     0.57760   0.47420   0.29093   0.01267  Uiso   1.00
H103   H     0.79880   0.22600   0.18883   0.01267  Uiso   1.00
H104   H     0.44430   0.08370   0.22273   0.01267  Uiso   1.00
H105   H     0.73850   0.82150   0.29553   0.01267  Uiso   1.00
H106   H     0.96650   0.31790   0.07273   0.01267  Uiso   1.00
H107   H     0.93670   0.22790   0.10793   0.01267  Uiso   1.00
H108   H     0.31010   0.01400   0.16843   0.01267  Uiso   1.00
H109   H     0.63870   0.34280   0.19693   0.01267  Uiso   1.00
H110   H     0.73100   0.46370   0.25663   0.01267  Uiso   1.00
H111   H     0.06240   0.74030   0.22863   0.01267  Uiso   1.00
H112   H     0.14500   0.59630   0.17243   0.01267  Uiso   1.00
H113   H     0.58060   0.92430   0.18613   0.01267  Uiso   1.00
H114   H     0.65260   0.87180   0.22653   0.01267  Uiso   1.00
H115   H     0.98110   0.59430   0.18653   0.01267  Uiso   1.00
H116   H     0.10580   0.97550   0.06913   0.01267  Uiso   1.00
H117   H     0.20570   0.04010   0.08943   0.01267  Uiso   1.00
H118   H     0.93060   0.88030   0.22253   0.01267  Uiso   1.00
H119   H     0.96180   0.02670   0.10153   0.01267  Uiso   1.00
H120   H     0.86030   0.95420   0.11113   0.01267  Uiso   1.00
H121   H     0.11040   0.61750   0.27403   0.01267  Uiso   1.00
H122   H     0.95440   0.11970   0.16843   0.01267  Uiso   1.00
H123   H     0.19980   0.81930   0.18433   0.01267  Uiso   1.00
H124   H     0.58560   0.81270   0.10573   0.01267  Uiso   1.00
H125   H     0.68800   0.87370   0.12223   0.01267  Uiso   1.00
H126   H     0.61210   0.60800   0.12163   0.01267  Uiso   1.00
H127   H     0.69870   0.59970   0.11353   0.01267  Uiso   1.00
H128   H     0.38090   0.73140   0.17063   0.01267  Uiso   1.00
H129   H     0.40290   0.26060   0.07023   0.01267  Uiso   1.00
H130   H     0.46390   0.34320   0.11153   0.01267  Uiso   1.00
H131   H     0.33140   0.86620   0.18643   0.01267  Uiso   1.00
H132   H     0.36930   0.75610   0.06783   0.01267  Uiso   1.00
H133   H     0.27650   0.70730   0.10153   0.01267  Uiso   1.00
H134   H     0.36500   0.23490   0.17093   0.01267  Uiso   1.00
H135   H     0.84230   0.15620   0.31893   0.01267  Uiso   1.00
H136   H     0.80070   0.23650   0.09453   0.01267  Uiso   1.00
H137   H     0.55260   0.78170   0.35333   0.01267  Uiso   1.00
H138   H     0.29910   0.99250   0.26973   0.01267  Uiso   1.00
H139   H     0.50560   0.16750   0.30803   0.01267  Uiso   1.00
H140   H     0.33520   0.87350   0.10193   0.01267  Uiso   1.00
H141   H     0.54560   0.88960   0.30563   0.01267  Uiso   1.00
H142   H     0.95300   0.53090   0.06803   0.01267  Uiso   1.00
H143   H     0.35830   0.92200   0.29103   0.01267  Uiso   1.00
H144   H     0.73720   0.73740   0.35863   0.01267  Uiso   1.00
H145   H     0.92000   0.97290   0.32133   0.01267  Uiso   1.00
H146   H     0.01610   0.64330   0.32923   0.01267  Uiso   1.00
H147   H     0.84500   0.07190   0.07333   0.01267  Uiso   1.00
H148   H     0.19220   0.78150   0.30493   0.01267  Uiso   1.00
H149   H     0.54540   0.48120   0.18053   0.01267  Uiso   1.00
H150   H     0.67780   0.80180   0.04073   0.01267  Uiso   1.00
H151   H     0.81730   0.25440   0.65927   0.01267  Uiso   1.00
H152   H     0.23210   0.23610   0.60837   0.01267  Uiso   1.00
H153   H     0.82510   0.95340   0.60327   0.01267  Uiso   1.00
H154   H     0.80120   0.75470   0.64147   0.01267  Uiso   1.00
H155   H     0.41180   0.07160   0.60727   0.01267  Uiso   1.00
H156   H     0.93880   0.88490   0.49187   0.01267  Uiso   1.00
H157   H     0.76530   0.81450   0.54177   0.01267  Uiso   1.00
H158   H     0.08680   0.14230   0.55197   0.01267  Uiso   1.00
H159   H     0.46970   0.88170   0.40117   0.01267  Uiso   1.00
H160   H     0.45430   0.95500   0.43307   0.01267  Uiso   1.00
H161   H     0.40230   0.61260   0.61097   0.01267  Uiso   1.00
H162   H     0.92890   0.86740   0.60327   0.01267  Uiso   1.00
H163   H     0.70400   0.47460   0.52177   0.01267  Uiso   1.00
H164   H     0.47880   0.51360   0.56497   0.01267  Uiso   1.00
H165   H     0.71320   0.78300   0.42287   0.01267  Uiso   1.00
H166   H     0.15320   0.44890   0.62087   0.01267  Uiso   1.00
H167   H     0.34560   0.24310   0.55007   0.01267  Uiso   1.00
H168   H     0.12670   0.42630   0.50467   0.01267  Uiso   1.00
H169   H     0.56660   0.22160   0.55987   0.01267  Uiso   1.00
H170   H     0.16060   0.04980   0.61357   0.01267  Uiso   1.00
H171   H     0.81320   0.61790   0.60157   0.01267  Uiso   1.00
H172   H     0.95940   0.24100   0.57767   0.01267  Uiso   1.00
H173   H     0.88850   0.99710   0.68347   0.01267  Uiso   1.00
H174   H     0.59960   0.12490   0.51097   0.01267  Uiso   1.00
H175   H     0.86850   0.27470   0.55267   0.01267  Uiso   1.00
H176   H     0.36570   0.01520   0.50587   0.01267  Uiso   1.00
H177   H     0.89660   0.42240   0.62427   0.01267  Uiso   1.00
H178   H     0.42720   0.20120   0.52217   0.01267  Uiso   1.00
H179   H     0.63940   0.55570   0.55607   0.01267  Uiso   1.00
H180   H     0.08300   0.26150   0.62887   0.01267  Uiso   1.00
H181   H     0.35140   0.03350   0.40607   0.01267  Uiso   1.00
H182   H     0.29120   0.06330   0.44127   0.01267  Uiso   1.00
H183   H     0.70390   0.68990   0.50177   0.01267  Uiso   1.00
H184   H     0.70410   0.36130   0.53027   0.01267  Uiso   1.00
H185   H     0.73270   0.26900   0.58997   0.01267  Uiso   1.00
H186   H     0.67790   0.93760   0.56197   0.01267  Uiso   1.00
H187   H     0.45130   0.85500   0.50577   0.01267  Uiso   1.00
H188   H     0.34370   0.41940   0.51947   0.01267  Uiso   1.00
H189   H     0.21920   0.34740   0.55987   0.01267  Uiso   1.00
H190   H     0.61320   0.01890   0.51987   0.01267  Uiso   1.00
H191   H     0.86970   0.89420   0.40247   0.01267  Uiso   1.00
H192   H     0.83440   0.79430   0.42277   0.01267  Uiso   1.00
H193   H     0.94970   0.06940   0.55587   0.01267  Uiso   1.00
H194   H     0.06490   0.03820   0.43487   0.01267  Uiso   1.00
H195   H     0.09390   0.13970   0.44447   0.01267  Uiso   1.00
H196   H     0.50710   0.88960   0.60737   0.01267  Uiso   1.00
H197   H     0.16530   0.04560   0.50177   0.01267  Uiso   1.00
H198   H     0.61950   0.80020   0.51767   0.01267  Uiso   1.00
H199   H     0.22710   0.41440   0.43907   0.01267  Uiso   1.00
H200   H     0.18570   0.31200   0.45557   0.01267  Uiso   1.00
H201   H     0.99590   0.38790   0.45497   0.01267  Uiso   1.00
H202   H     0.90100   0.30130   0.44687   0.01267  Uiso   1.00
H203   H     0.35050   0.61910   0.50397   0.01267  Uiso   1.00
H204   H     0.85770   0.59710   0.40357   0.01267  Uiso   1.00
H205   H     0.87930   0.53610   0.44487   0.01267  Uiso   1.00
H206   H     0.53480   0.66860   0.51977   0.01267  Uiso   1.00
H207   H     0.38680   0.63070   0.40117   0.01267  Uiso   1.00
H208   H     0.43080   0.72350   0.43487   0.01267  Uiso   1.00
H209   H     0.86990   0.63500   0.50427   0.01267  Uiso   1.00
H210   H     0.31390   0.15770   0.65227   0.01267  Uiso   1.00
H211   H     0.43580   0.19930   0.42787   0.01267  Uiso   1.00
H212   H     0.22910   0.44740   0.68667   0.01267  Uiso   1.00
H213   H     0.69340   0.70090   0.60307   0.01267  Uiso   1.00
H214   H     0.66190   0.49440   0.64137   0.01267  Uiso   1.00
H215   H     0.53830   0.66480   0.43527   0.01267  Uiso   1.00
H216   H     0.34400   0.45440   0.63897   0.01267  Uiso   1.00
H217   H     0.57790   0.04700   0.40137   0.01267  Uiso   1.00
H218   H     0.56370   0.64170   0.62437   0.01267  Uiso   1.00
H219   H     0.00020   0.26280   0.69197   0.01267  Uiso   1.00
H220   H     0.05290   0.08000   0.65467   0.01267  Uiso   1.00
H221   H     0.62720   0.98390   0.66257   0.01267  Uiso   1.00
H222   H     0.22690   0.15500   0.40667   0.01267  Uiso   1.00
H223   H     0.58930   0.80780   0.63827   0.01267  Uiso   1.00
H224   H     0.93580   0.45460   0.51387   0.01267  Uiso   1.00
H225   H     0.12400   0.32220   0.37407   0.01267  Uiso   1.00
C1     C     0.94290   0.75900   0.94200   0.01267  Uiso   1.00
C2     C     0.07270   0.11630   0.93870   0.01267  Uiso   1.00
C3     C     0.69050   0.55700   0.92520   0.01267  Uiso   1.00
C4     C     0.00190   0.11970   0.82610   0.01267  Uiso   1.00
C5     C     0.99690   0.17370   0.87620   0.01267  Uiso   1.00
C6     C     0.99270   0.89950   0.88750   0.01267  Uiso   1.00
C7     C     0.43640   0.50450   0.76260   0.01267  Uiso   1.00
C8     C     0.15700   0.54550   0.92730   0.01267  Uiso   1.00
C9     C     0.99360   0.13020   0.93530   0.01267  Uiso   1.00
C10    C     0.75450   0.23590   0.86990   0.01267  Uiso   1.00
C11    C     0.08970   0.57430   0.91270   0.01267  Uiso   1.00
C12    C     0.23460   0.83790   0.95320   0.01267  Uiso   1.00
C13    C     0.89670   0.71120   0.88540   0.01267  Uiso   1.00
C14    C     0.23810   0.86230   0.84240   0.01267  Uiso   1.00
C15    C     0.62240   0.46300   0.90810   0.01267  Uiso   1.00
C16    C     0.94990   0.84780   0.94360   0.01267  Uiso   1.00
C17    C     0.81480   0.24620   0.92300   0.01267  Uiso   1.00
C18    C     0.28470   0.98520   0.90660   0.01267  Uiso   1.00
C19    C     0.56410   0.46260   0.85810   0.01267  Uiso   1.00
C20    C     0.43710   0.09760   0.89450   0.01267  Uiso   1.00
C21    C     0.68100   0.60400   0.82340   0.01267  Uiso   1.00
C22    C     0.49660   0.13840   0.94750   0.01267  Uiso   1.00
C23    C     0.74380   0.60450   0.87090   0.01267  Uiso   1.00
C24    C     0.90880   0.30300   0.90330   0.01267  Uiso   1.00
C25    C     0.24010   0.92740   0.96000   0.01267  Uiso   1.00
C26    C     0.72580   0.64700   0.76650   0.01267  Uiso   1.00
C27    C     0.92460   0.25730   0.85010   0.01267  Uiso   1.00
C28    C     0.61550   0.23330   0.87510   0.01267  Uiso   1.00
C29    C     0.56690   0.23290   0.93130   0.01267  Uiso   1.00
C30    C     0.27100   0.38070   0.91040   0.01267  Uiso   1.00
C31    C     0.39140   0.49020   0.82320   0.01267  Uiso   1.00
C32    C     0.12320   0.64270   0.86340   0.01267  Uiso   1.00
C33    C     0.19170   0.79690   0.89240   0.01267  Uiso   1.00
C34    C     0.42010   0.44620   0.86850   0.01267  Uiso   1.00
C35    C     0.01440   0.16460   0.76660   0.01267  Uiso   1.00
C36    C     0.06890   0.06110   0.88670   0.01267  Uiso   1.00
C37    C     0.98150   0.88390   0.77580   0.01267  Uiso   1.00
C38    C     0.36840   0.43380   0.92490   0.01267  Uiso   1.00
C39    C     0.94200   0.84540   0.83370   0.01267  Uiso   1.00
C40    C     0.24380   0.42140   0.86190   0.01267  Uiso   1.00
C41    C     0.18820   0.82800   0.78390   0.01267  Uiso   1.00
C42    C     0.43440   0.06810   0.78470   0.01267  Uiso   1.00
C43    C     0.21540   0.59500   0.82240   0.01267  Uiso   1.00
C44    C     0.71770   0.16690   0.76780   0.01267  Uiso   1.00
C45    C     0.18530   0.52000   0.86930   0.01267  Uiso   1.00
C46    C     0.23600   0.56880   0.76470   0.01267  Uiso   1.00
C47    C     0.77420   0.18710   0.82090   0.01267  Uiso   1.00
C48    C     0.48980   0.10020   0.83990   0.01267  Uiso   1.00
C49    C     0.81610   0.05710   0.27533   0.01267  Uiso   1.00
C50    C     0.04360   0.92730   0.27203   0.01267  Uiso   1.00
C51    C     0.86650   0.30950   0.25853   0.01267  Uiso   1.00
C52    C     0.11780   0.99810   0.15943   0.01267  Uiso   1.00
C53    C     0.17680   0.00310   0.20953   0.01267  Uiso   1.00
C54    C     0.90680   0.00730   0.22083   0.01267  Uiso   1.00
C55    C     0.06810   0.56360   0.09593   0.01267  Uiso   1.00
C56    C     0.38850   0.84300   0.26063   0.01267  Uiso   1.00
C57    C     0.13660   0.00640   0.26863   0.01267  Uiso   1.00
C58    C     0.48140   0.24550   0.20323   0.01267  Uiso   1.00
C59    C     0.48460   0.91030   0.24603   0.01267  Uiso   1.00
C60    C     0.60330   0.76540   0.28653   0.01267  Uiso   1.00
C61    C     0.81450   0.10330   0.21873   0.01267  Uiso   1.00
C62    C     0.62420   0.76190   0.17573   0.01267  Uiso   1.00
C63    C     0.84060   0.37760   0.24143   0.01267  Uiso   1.00
C64    C     0.89790   0.05010   0.27693   0.01267  Uiso   1.00
C65    C     0.43140   0.18520   0.25633   0.01267  Uiso   1.00
C66    C     0.70050   0.71530   0.23993   0.01267  Uiso   1.00
C67    C     0.89850   0.43590   0.19143   0.01267  Uiso   1.00
C68    C     0.66050   0.56290   0.22783   0.01267  Uiso   1.00
C69    C     0.92300   0.31900   0.15673   0.01267  Uiso   1.00
C70    C     0.64180   0.50340   0.28083   0.01267  Uiso   1.00
C71    C     0.86070   0.25620   0.20423   0.01267  Uiso   1.00
C72    C     0.39420   0.09120   0.23663   0.01267  Uiso   1.00
C73    C     0.68730   0.75990   0.29333   0.01267  Uiso   1.00
C74    C     0.92120   0.27420   0.09983   0.01267  Uiso   1.00
C75    C     0.33270   0.07540   0.18343   0.01267  Uiso   1.00
C76    C     0.61780   0.38450   0.20843   0.01267  Uiso   1.00
C77    C     0.66600   0.43310   0.26463   0.01267  Uiso   1.00
C78    C     0.10970   0.72900   0.24373   0.01267  Uiso   1.00
C79    C     0.09880   0.60860   0.15653   0.01267  Uiso   1.00
C80    C     0.51950   0.87680   0.19673   0.01267  Uiso   1.00
C81    C     0.60520   0.80830   0.22573   0.01267  Uiso   1.00
C82    C     0.02610   0.57990   0.20183   0.01267  Uiso   1.00
C83    C     0.15020   0.98560   0.09993   0.01267  Uiso   1.00
C84    C     0.99220   0.93110   0.22003   0.01267  Uiso   1.00
C85    C     0.90240   0.01850   0.10913   0.01267  Uiso   1.00
C86    C     0.06540   0.63160   0.25823   0.01267  Uiso   1.00
C87    C     0.90340   0.05800   0.16703   0.01267  Uiso   1.00
C88    C     0.17760   0.75620   0.19523   0.01267  Uiso   1.00
C89    C     0.63980   0.81180   0.11723   0.01267  Uiso   1.00
C90    C     0.63370   0.56560   0.11803   0.01267  Uiso   1.00
C91    C     0.37960   0.78460   0.15573   0.01267  Uiso   1.00
C92    C     0.44920   0.28230   0.10113   0.01267  Uiso   1.00
C93    C     0.33470   0.81470   0.20263   0.01267  Uiso   1.00
C94    C     0.33280   0.76400   0.09803   0.01267  Uiso   1.00
C95    C     0.41290   0.22580   0.15423   0.01267  Uiso   1.00
C96    C     0.61040   0.51020   0.17323   0.01267  Uiso   1.00
C97    C     0.24100   0.18390   0.60867   0.01267  Uiso   1.00
C98    C     0.88370   0.95640   0.60537   0.01267  Uiso   1.00
C99    C     0.44300   0.13350   0.59187   0.01267  Uiso   1.00
C100   C     0.88030   0.88220   0.49277   0.01267  Uiso   1.00
C101   C     0.82630   0.82320   0.54287   0.01267  Uiso   1.00
C102   C     0.10050   0.09320   0.55417   0.01267  Uiso   1.00
C103   C     0.49550   0.93190   0.42927   0.01267  Uiso   1.00
C104   C     0.45450   0.61150   0.59397   0.01267  Uiso   1.00
C105   C     0.86980   0.86340   0.60197   0.01267  Uiso   1.00
C106   C     0.76410   0.51860   0.53657   0.01267  Uiso   1.00
C107   C     0.42570   0.51540   0.57937   0.01267  Uiso   1.00
C108   C     0.16210   0.39670   0.61987   0.01267  Uiso   1.00
C109   C     0.28880   0.18550   0.55207   0.01267  Uiso   1.00
C110   C     0.13770   0.37580   0.50907   0.01267  Uiso   1.00
C111   C     0.53700   0.15940   0.57477   0.01267  Uiso   1.00
C112   C     0.15220   0.10210   0.61027   0.01267  Uiso   1.00
C113   C     0.75380   0.56860   0.58967   0.01267  Uiso   1.00
C114   C     0.01480   0.29950   0.57327   0.01267  Uiso   1.00
C115   C     0.53740   0.10150   0.52477   0.01267  Uiso   1.00
C116   C     0.90240   0.33950   0.56117   0.01267  Uiso   1.00
C117   C     0.39600   0.07700   0.49007   0.01267  Uiso   1.00
C118   C     0.86160   0.35820   0.61417   0.01267  Uiso   1.00
C119   C     0.39550   0.13930   0.53757   0.01267  Uiso   1.00
C120   C     0.69700   0.60580   0.56997   0.01267  Uiso   1.00
C121   C     0.07260   0.31270   0.62667   0.01267  Uiso   1.00
C122   C     0.35300   0.07880   0.43317   0.01267  Uiso   1.00
C123   C     0.74270   0.66730   0.51677   0.01267  Uiso   1.00
C124   C     0.76670   0.38220   0.54177   0.01267  Uiso   1.00
C125   C     0.76710   0.33400   0.59797   0.01267  Uiso   1.00
C126   C     0.61930   0.89030   0.57707   0.01267  Uiso   1.00
C127   C     0.50980   0.90120   0.48987   0.01267  Uiso   1.00
C128   C     0.35730   0.48050   0.53007   0.01267  Uiso   1.00
C129   C     0.20310   0.39480   0.55907   0.01267  Uiso   1.00
C130   C     0.55380   0.97390   0.53517   0.01267  Uiso   1.00
C131   C     0.83540   0.84980   0.43327   0.01267  Uiso   1.00
C132   C     0.93890   0.00780   0.55337   0.01267  Uiso   1.00
C133   C     0.11610   0.09760   0.44247   0.01267  Uiso   1.00
C134   C     0.56620   0.93460   0.59157   0.01267  Uiso   1.00
C135   C     0.15460   0.09660   0.50037   0.01267  Uiso   1.00
C136   C     0.57860   0.82240   0.52857   0.01267  Uiso   1.00
C137   C     0.17200   0.36020   0.45057   0.01267  Uiso   1.00
C138   C     0.93190   0.36630   0.45137   0.01267  Uiso   1.00
C139   C     0.40500   0.62040   0.48907   0.01267  Uiso   1.00
C140   C     0.83310   0.55080   0.43447   0.01267  Uiso   1.00
C141   C     0.48000   0.66530   0.53597   0.01267  Uiso   1.00
C142   C     0.43120   0.66720   0.43137   0.01267  Uiso   1.00
C143   C     0.81290   0.58710   0.48757   0.01267  Uiso   1.00
C144   C     0.89980   0.38960   0.50657   0.01267  Uiso   1.00
O1     O     0.55660   0.19130   0.82830   0.01267  Uiso   1.00
O2     O     0.86430   0.23880   0.80300   0.01267  Uiso   1.00
O3     O     0.91700   0.17750   0.87110   0.01267  Uiso   1.00
O4     O     0.07490   0.10540   0.83300   0.01267  Uiso   1.00
O5     O     0.55100   0.37220   0.65840   0.01267  Uiso   1.00
O6     O     0.44880   0.14190   0.99730   0.01267  Uiso   1.00
O7     O     0.66460   0.19190   0.88780   0.01267  Uiso   1.00
O8     O     0.99060   0.18310   0.98270   0.01267  Uiso   1.00
O9     O     0.67810   0.39720   0.76800   0.01267  Uiso   1.00
O10    O     0.46310   0.28060   0.76400   0.01267  Uiso   1.00
O11    O     0.08660   0.25190   0.76770   0.01267  Uiso   1.00
O12    O     0.07070   0.07420   0.99360   0.01267  Uiso   1.00
O13    O     0.71530   0.24120   0.74400   0.01267  Uiso   1.00
O14    O     0.89830   0.70640   0.98990   0.01267  Uiso   1.00
O15    O     0.76470   0.60260   0.73820   0.01267  Uiso   1.00
O16    O     0.61790   0.51480   0.80940   0.01267  Uiso   1.00
O17    O     0.80850   0.69160   0.88740   0.01267  Uiso   1.00
O18    O     0.74290   0.55100   0.97040   0.01267  Uiso   1.00
O19    O     0.93960   0.76160   0.83520   0.01267  Uiso   1.00
O20    O     0.24030   0.94320   0.85380   0.01267  Uiso   1.00
O21    O     0.18500   0.77950   0.99760   0.01267  Uiso   1.00
O22    O     0.97050   0.32060   0.94800   0.01267  Uiso   1.00
O23    O     0.62880   0.27590   0.97860   0.01267  Uiso   1.00
O24    O     0.79330   0.28480   0.97130   0.01267  Uiso   1.00
O25    O     0.98990   0.97970   0.88980   0.01267  Uiso   1.00
O26    O     0.37270   0.00830   0.90730   0.01267  Uiso   1.00
O27    O     0.16880   0.48270   0.74460   0.01267  Uiso   1.00
O28    O     0.14590   0.61240   0.81320   0.01267  Uiso   1.00
O29    O     0.19660   0.71970   0.88500   0.01267  Uiso   1.00
O30    O     0.56930   0.41270   0.95730   0.01267  Uiso   1.00
O31    O     0.25380   0.50190   0.88260   0.01267  Uiso   1.00
O32    O     0.06700   0.60740   0.96220   0.01267  Uiso   1.00
O33    O     0.51070   0.49510   0.88040   0.01267  Uiso   1.00
O34    O     0.29910   0.43790   0.81060   0.01267  Uiso   1.00
O35    O     0.42060   0.41980   0.74070   0.01267  Uiso   1.00
O36    O     0.12740   0.47800   0.96830   0.01267  Uiso   1.00
O37    O     0.28360   0.96920   0.01220   0.01267  Uiso   1.00
O38    O     0.99840   0.89260   0.99470   0.01267  Uiso   1.00
O39    O     0.48810   0.08370   0.73360   0.01267  Uiso   1.00
O40    O     0.39260   0.38970   0.96760   0.01267  Uiso   1.00
O41    O     0.94590   0.82480   0.72800   0.01267  Uiso   1.00
O42    O     0.21500   0.36340   0.96010   0.01267  Uiso   1.00
O43    O     0.22980   0.89270   0.73800   0.01267  Uiso   1.00
O44    O     0.63470   0.44340   0.16163   0.01267  Uiso   1.00
O45    O     0.37450   0.13570   0.13633   0.01267  Uiso   1.00
O46    O     0.26050   0.08300   0.20443   0.01267  Uiso   1.00
O47    O     0.03050   0.92510   0.16633   0.01267  Uiso   1.00
O48    O     0.82120   0.44900   0.99173   0.01267  Uiso   1.00
O49    O     0.69310   0.55120   0.33063   0.01267  Uiso   1.00
O50    O     0.52730   0.33540   0.22113   0.01267  Uiso   1.00
O51    O     0.19250   0.00940   0.31603   0.01267  Uiso   1.00
O52    O     0.71910   0.32190   0.10133   0.01267  Uiso   1.00
O53    O     0.81750   0.53690   0.09733   0.01267  Uiso   1.00
O54    O     0.16530   0.91340   0.10103   0.01267  Uiso   1.00
O55    O     0.00350   0.92930   0.32693   0.01267  Uiso   1.00
O56    O     0.52590   0.28470   0.07733   0.01267  Uiso   1.00
O57    O     0.80810   0.10170   0.32323   0.01267  Uiso   1.00
O58    O     0.83790   0.23530   0.07153   0.01267  Uiso   1.00
O59    O     0.89690   0.38210   0.14273   0.01267  Uiso   1.00
O60    O     0.88310   0.19150   0.22073   0.01267  Uiso   1.00
O61    O     0.80810   0.25710   0.30373   0.01267  Uiso   1.00
O62    O     0.82200   0.06040   0.16853   0.01267  Uiso   1.00
O63    O     0.70290   0.75970   0.18713   0.01267  Uiso   1.00
O64    O     0.59450   0.81500   0.33093   0.01267  Uiso   1.00
O65    O     0.35010   0.02950   0.28133   0.01267  Uiso   1.00
O66    O     0.64710   0.37120   0.31193   0.01267  Uiso   1.00
O67    O     0.49150   0.20670   0.30463   0.01267  Uiso   1.00
O68    O     0.98980   0.01010   0.22313   0.01267  Uiso   1.00
O69    O     0.63560   0.62730   0.24063   0.01267  Uiso   1.00
O70    O     0.31390   0.83120   0.07793   0.01267  Uiso   1.00
O71    O     0.46650   0.85410   0.14653   0.01267  Uiso   1.00
O72    O     0.52310   0.80340   0.21833   0.01267  Uiso   1.00
O73    O     0.84340   0.43070   0.29063   0.01267  Uiso   1.00
O74    O     0.24810   0.74620   0.21593   0.01267  Uiso   1.00
O75    O     0.54040   0.93300   0.29553   0.01267  Uiso   1.00
O76    O     0.98440   0.48930   0.21373   0.01267  Uiso   1.00
O77    O     0.13880   0.70090   0.14393   0.01267  Uiso   1.00
O78    O     0.99920   0.57940   0.07403   0.01267  Uiso   1.00
O79    O     0.35060   0.87260   0.30163   0.01267  Uiso   1.00
O80    O     0.68560   0.71640   0.34553   0.01267  Uiso   1.00
O81    O     0.89420   0.00160   0.32803   0.01267  Uiso   1.00
O82    O     0.59560   0.51190   0.06693   0.01267  Uiso   1.00
O83    O     0.99710   0.60740   0.30093   0.01267  Uiso   1.00
O84    O     0.87890   0.05410   0.06133   0.01267  Uiso   1.00
O85    O     0.14840   0.78500   0.29343   0.01267  Uiso   1.00
O86    O     0.66290   0.77020   0.07133   0.01267  Uiso   1.00
O87    O     0.80870   0.36530   0.49497   0.01267  Uiso   1.00
O88    O     0.76120   0.62550   0.46967   0.01267  Uiso   1.00
O89    O     0.82250   0.73950   0.53777   0.01267  Uiso   1.00
O90    O     0.89460   0.96950   0.49967   0.01267  Uiso   1.00
O91    O     0.62780   0.17880   0.32507   0.01267  Uiso   1.00
O92    O     0.85810   0.30690   0.66397   0.01267  Uiso   1.00
O93    O     0.80810   0.47270   0.55447   0.01267  Uiso   1.00
O94    O     0.81690   0.80750   0.64937   0.01267  Uiso   1.00
O95    O     0.60280   0.28090   0.43467   0.01267  Uiso   1.00
O96    O     0.71940   0.18250   0.43067   0.01267  Uiso   1.00
O97    O     0.74810   0.83470   0.43437   0.01267  Uiso   1.00
O98    O     0.92580   0.99650   0.66027   0.01267  Uiso   1.00
O99    O     0.75880   0.47410   0.41067   0.01267  Uiso   1.00
O100   O     0.29360   0.19190   0.65657   0.01267  Uiso   1.00
O101   O     0.39740   0.16210   0.40487   0.01267  Uiso   1.00
O102   O     0.48520   0.10310   0.47607   0.01267  Uiso   1.00
O103   O     0.30840   0.11690   0.55407   0.01267  Uiso   1.00
O104   O     0.44900   0.19190   0.63707   0.01267  Uiso   1.00
O105   O     0.23840   0.17800   0.50187   0.01267  Uiso   1.00
O106   O     0.05680   0.29710   0.52047   0.01267  Uiso   1.00
O107   O     0.22050   0.40550   0.66427   0.01267  Uiso   1.00
O108   O     0.67940   0.64990   0.61467   0.01267  Uiso   1.00
O109   O     0.72410   0.35290   0.64527   0.01267  Uiso   1.00
O110   O     0.71520   0.50850   0.63797   0.01267  Uiso   1.00
O111   O     0.02030   0.01020   0.55647   0.01267  Uiso   1.00
O112   O     0.99170   0.36440   0.57397   0.01267  Uiso   1.00
O113   O     0.51730   0.68610   0.41127   0.01267  Uiso   1.00
O114   O     0.38760   0.53350   0.47987   0.01267  Uiso   1.00
O115   O     0.28030   0.47690   0.55167   0.01267  Uiso   1.00
O116   O     0.58730   0.15660   0.62397   0.01267  Uiso   1.00
O117   O     0.49810   0.75190   0.54927   0.01267  Uiso   1.00
O118   O     0.39260   0.45960   0.62887   0.01267  Uiso   1.00
O119   O     0.50490   0.01560   0.54707   0.01267  Uiso   1.00
O120   O     0.56210   0.86120   0.47727   0.01267  Uiso   1.00
O121   O     0.58020   0.00080   0.40737   0.01267  Uiso   1.00
O122   O     0.52200   0.64940   0.63497   0.01267  Uiso   1.00
O123   O     0.03080   0.31440   0.67887   0.01267  Uiso   1.00
O124   O     0.10740   0.10580   0.66137   0.01267  Uiso   1.00
O125   O     0.91630   0.40440   0.40027   0.01267  Uiso   1.00
O126   O     0.61030   0.00290   0.63427   0.01267  Uiso   1.00
O127   O     0.17520   0.12110   0.39467   0.01267  Uiso   1.00
O128   O     0.63660   0.85160   0.62677   0.01267  Uiso   1.00
O129   O     0.10730   0.33710   0.40467   0.01267  Uiso   1.00
Br1    Br    0.87787   0.48994   0.82997   0.01267  Uiso   1.00
Br2    Br    0.61207   0.12213   0.16330   0.01267  Uiso   1.00
Br3    Br    0.51006   0.38793   0.49664   0.01267  Uiso   1.00
