data_image0
_cell_length_a       21.155
_cell_length_b       21.155
_cell_length_c       7.6632
_cell_angle_alpha    90
_cell_angle_beta     90
_cell_angle_gamma    120

_symmetry_space_group_name_H-M    "P 1"
_symmetry_int_tables_number       1

loop_
  _symmetry_equiv_pos_as_xyz
  'x, y, z'

loop_
  _atom_site_label
  _atom_site_occupancy
  _atom_site_fract_x
  _atom_site_fract_y
  _atom_site_fract_z
  _atom_site_thermal_displace_type
  _atom_site_B_iso_or_equiv
  _atom_site_type_symbol
  O1       1.0000 0.76010  0.36130  0.07880  Biso   1.000  O
  O2       1.0000 0.75820  0.29380  0.85190  Biso   1.000  O
  F1       1.0000 0.92860  0.22810  0.59160  Biso   1.000  F
  F2       1.0000 0.99770  0.18380  0.53040  Biso   1.000  F
  C1       1.0000 0.78110  0.32310  0.99420  Biso   1.000  C
  C2       1.0000 0.83720  0.31050  0.08450  Biso   1.000  C
  F3       1.0000 0.90120  0.15300  0.38030  Biso   1.000  F
  C3       1.0000 0.86530  0.27290  0.99750  Biso   1.000  C
  H1       1.0000 0.84910  0.25580  0.88530  Biso   1.000  H
  C4       1.0000 0.91420  0.32350  0.32990  Biso   1.000  C
  H2       1.0000 0.92980  0.33990  0.44290  Biso   1.000  H
  C5       1.0000 0.95660  0.21010  0.46200  Biso   1.000  C
  C6       1.0000 0.94270  0.28600  0.23750  Biso   1.000  C
  C7       1.0000 0.86200  0.33590  0.24970  Biso   1.000  C
  H3       1.0000 0.84380  0.36170  0.30920  Biso   1.000  H
  C8       1.0000 0.91730  0.26020  0.07390  Biso   1.000  C
  H4       1.0000 0.93500  0.23410  0.01360  Biso   1.000  H
  O3       1.0000 0.63870  0.39880  0.41213  Biso   1.000  O
  O4       1.0000 0.70620  0.46440  0.18523  Biso   1.000  O
  F4       1.0000 0.77190  0.70050  0.92493  Biso   1.000  F
  F5       1.0000 0.81620  0.81390  0.86373  Biso   1.000  F
  C9       1.0000 0.67690  0.45800  0.32753  Biso   1.000  C
  C10      1.0000 0.68950  0.52670  0.41783  Biso   1.000  C
  F6       1.0000 0.84700  0.74820  0.71363  Biso   1.000  F
  C11      1.0000 0.72710  0.59240  0.33083  Biso   1.000  C
  H5       1.0000 0.74420  0.59330  0.21863  Biso   1.000  H
  C12      1.0000 0.67650  0.59070  0.66323  Biso   1.000  C
  H6       1.0000 0.66010  0.58990  0.77623  Biso   1.000  H
  C13      1.0000 0.78990  0.74650  0.79533  Biso   1.000  C
  C14      1.0000 0.71400  0.65670  0.57083  Biso   1.000  C
  C15      1.0000 0.66410  0.52610  0.58303  Biso   1.000  C
  H7       1.0000 0.63830  0.48210  0.64253  Biso   1.000  H
  C16      1.0000 0.73980  0.65710  0.40723  Biso   1.000  C
  H8       1.0000 0.76590  0.70090  0.34693  Biso   1.000  H
  O5       1.0000 0.60120  0.23990  0.74547  Biso   1.000  O
  O6       1.0000 0.53560  0.24180  0.51857  Biso   1.000  O
  F7       1.0000 0.29950  0.07140  0.25827  Biso   1.000  F
  F8       1.0000 0.18610  0.00230  0.19707  Biso   1.000  F
  C17      1.0000 0.54200  0.21890  0.66087  Biso   1.000  C
  C18      1.0000 0.47330  0.16280  0.75117  Biso   1.000  C
  F9       1.0000 0.25180  0.09880  0.04697  Biso   1.000  F
  C19      1.0000 0.40760  0.13470  0.66417  Biso   1.000  C
  H9       1.0000 0.40670  0.15090  0.55197  Biso   1.000  H
  C20      1.0000 0.40930  0.08580  0.99657  Biso   1.000  C
  H10      1.0000 0.41010  0.07020  0.10957  Biso   1.000  H
  C21      1.0000 0.25350  0.04340  0.12867  Biso   1.000  C
  C22      1.0000 0.34330  0.05730  0.90417  Biso   1.000  C
  C23      1.0000 0.47390  0.13800  0.91637  Biso   1.000  C
  H11      1.0000 0.51790  0.15620  0.97587  Biso   1.000  H
  C24      1.0000 0.34290  0.08270  0.74057  Biso   1.000  C
  H12      1.0000 0.29910  0.06500  0.68027  Biso   1.000  H
  O7       1.0000 0.23990  0.63870  0.07880  Biso   1.000  O
  O8       1.0000 0.24180  0.70620  0.85190  Biso   1.000  O
  F10      1.0000 0.07140  0.77190  0.59160  Biso   1.000  F
  F11      1.0000 0.00230  0.81620  0.53040  Biso   1.000  F
  C25      1.0000 0.21890  0.67690  0.99420  Biso   1.000  C
  C26      1.0000 0.16280  0.68950  0.08450  Biso   1.000  C
  F12      1.0000 0.09880  0.84700  0.38030  Biso   1.000  F
  C27      1.0000 0.13470  0.72710  0.99750  Biso   1.000  C
  H13      1.0000 0.15090  0.74420  0.88530  Biso   1.000  H
  C28      1.0000 0.08580  0.67650  0.32990  Biso   1.000  C
  H14      1.0000 0.07020  0.66010  0.44290  Biso   1.000  H
  C29      1.0000 0.04340  0.78990  0.46200  Biso   1.000  C
  C30      1.0000 0.05730  0.71400  0.23750  Biso   1.000  C
  C31      1.0000 0.13800  0.66410  0.24970  Biso   1.000  C
  H15      1.0000 0.15620  0.63830  0.30920  Biso   1.000  H
  C32      1.0000 0.08270  0.73980  0.07390  Biso   1.000  C
  H16      1.0000 0.06500  0.76590  0.01360  Biso   1.000  H
  O9       1.0000 0.36130  0.60120  0.41213  Biso   1.000  O
  O10      1.0000 0.29380  0.53560  0.18523  Biso   1.000  O
  F13      1.0000 0.22810  0.29950  0.92493  Biso   1.000  F
  F14      1.0000 0.18380  0.18610  0.86373  Biso   1.000  F
  C33      1.0000 0.32310  0.54200  0.32753  Biso   1.000  C
  C34      1.0000 0.31050  0.47330  0.41783  Biso   1.000  C
  F15      1.0000 0.15300  0.25180  0.71363  Biso   1.000  F
  C35      1.0000 0.27290  0.40760  0.33083  Biso   1.000  C
  H17      1.0000 0.25580  0.40670  0.21863  Biso   1.000  H
  C36      1.0000 0.32350  0.40930  0.66323  Biso   1.000  C
  H18      1.0000 0.33990  0.41010  0.77623  Biso   1.000  H
  C37      1.0000 0.21010  0.25350  0.79533  Biso   1.000  C
  C38      1.0000 0.28600  0.34330  0.57083  Biso   1.000  C
  C39      1.0000 0.33590  0.47390  0.58303  Biso   1.000  C
  H19      1.0000 0.36170  0.51790  0.64253  Biso   1.000  H
  C40      1.0000 0.26020  0.34290  0.40723  Biso   1.000  C
  H20      1.0000 0.23410  0.29910  0.34693  Biso   1.000  H
  O11      1.0000 0.39880  0.76010  0.74547  Biso   1.000  O
  O12      1.0000 0.46440  0.75820  0.51857  Biso   1.000  O
  F16      1.0000 0.70050  0.92860  0.25827  Biso   1.000  F
  F17      1.0000 0.81390  0.99770  0.19707  Biso   1.000  F
  C41      1.0000 0.45800  0.78110  0.66087  Biso   1.000  C
  C42      1.0000 0.52670  0.83720  0.75117  Biso   1.000  C
  F18      1.0000 0.74820  0.90120  0.04697  Biso   1.000  F
  C43      1.0000 0.59240  0.86530  0.66417  Biso   1.000  C
  H21      1.0000 0.59330  0.84910  0.55197  Biso   1.000  H
  C44      1.0000 0.59070  0.91420  0.99657  Biso   1.000  C
  H22      1.0000 0.58990  0.92980  0.10957  Biso   1.000  H
  C45      1.0000 0.74650  0.95660  0.12867  Biso   1.000  C
  C46      1.0000 0.65670  0.94270  0.90417  Biso   1.000  C
  C47      1.0000 0.52610  0.86200  0.91637  Biso   1.000  C
  H23      1.0000 0.48210  0.84380  0.97587  Biso   1.000  H
  C48      1.0000 0.65710  0.91730  0.74057  Biso   1.000  C
  H24      1.0000 0.70090  0.93500  0.68027  Biso   1.000  H
  O13      1.0000 0.36130  0.76010  0.25453  Biso   1.000  O
  O14      1.0000 0.29380  0.75820  0.48143  Biso   1.000  O
  F19      1.0000 0.22810  0.92860  0.74173  Biso   1.000  F
  F20      1.0000 0.18380  0.99770  0.80293  Biso   1.000  F
  C49      1.0000 0.32310  0.78110  0.33913  Biso   1.000  C
  C50      1.0000 0.31050  0.83720  0.24883  Biso   1.000  C
  F21      1.0000 0.15300  0.90120  0.95303  Biso   1.000  F
  C51      1.0000 0.27290  0.86530  0.33583  Biso   1.000  C
  H25      1.0000 0.25580  0.84910  0.44803  Biso   1.000  H
  C52      1.0000 0.32350  0.91420  0.00343  Biso   1.000  C
  H26      1.0000 0.33990  0.92980  0.89043  Biso   1.000  H
  C53      1.0000 0.21010  0.95660  0.87133  Biso   1.000  C
  C54      1.0000 0.28600  0.94270  0.09583  Biso   1.000  C
  C55      1.0000 0.33590  0.86200  0.08363  Biso   1.000  C
  H27      1.0000 0.36170  0.84380  0.02413  Biso   1.000  H
  C56      1.0000 0.26020  0.91730  0.25943  Biso   1.000  C
  H28      1.0000 0.23410  0.93500  0.31973  Biso   1.000  H
  O15      1.0000 0.39880  0.63870  0.92120  Biso   1.000  O
  O16      1.0000 0.46440  0.70620  0.14810  Biso   1.000  O
  F22      1.0000 0.70050  0.77190  0.40840  Biso   1.000  F
  F23      1.0000 0.81390  0.81620  0.46960  Biso   1.000  F
  C57      1.0000 0.45800  0.67690  0.00580  Biso   1.000  C
  C58      1.0000 0.52670  0.68950  0.91550  Biso   1.000  C
  F24      1.0000 0.74820  0.84700  0.61970  Biso   1.000  F
  C59      1.0000 0.59240  0.72710  0.00250  Biso   1.000  C
  H29      1.0000 0.59330  0.74420  0.11470  Biso   1.000  H
  C60      1.0000 0.59070  0.67650  0.67010  Biso   1.000  C
  H30      1.0000 0.58990  0.66010  0.55710  Biso   1.000  H
  C61      1.0000 0.74650  0.78990  0.53800  Biso   1.000  C
  C62      1.0000 0.65670  0.71400  0.76250  Biso   1.000  C
  C63      1.0000 0.52610  0.66410  0.75030  Biso   1.000  C
  H31      1.0000 0.48210  0.63830  0.69080  Biso   1.000  H
  C64      1.0000 0.65710  0.73980  0.92610  Biso   1.000  C
  H32      1.0000 0.70090  0.76590  0.98640  Biso   1.000  H
  O17      1.0000 0.23990  0.60120  0.58787  Biso   1.000  O
  O18      1.0000 0.24180  0.53560  0.81477  Biso   1.000  O
  F25      1.0000 0.07140  0.29950  0.07507  Biso   1.000  F
  F26      1.0000 0.00230  0.18610  0.13627  Biso   1.000  F
  C65      1.0000 0.21890  0.54200  0.67247  Biso   1.000  C
  C66      1.0000 0.16280  0.47330  0.58217  Biso   1.000  C
  F27      1.0000 0.09880  0.25180  0.28637  Biso   1.000  F
  C67      1.0000 0.13470  0.40760  0.66917  Biso   1.000  C
  H33      1.0000 0.15090  0.40670  0.78137  Biso   1.000  H
  C68      1.0000 0.08580  0.40930  0.33677  Biso   1.000  C
  H34      1.0000 0.07020  0.41010  0.22377  Biso   1.000  H
  C69      1.0000 0.04340  0.25350  0.20467  Biso   1.000  C
  C70      1.0000 0.05730  0.34330  0.42917  Biso   1.000  C
  C71      1.0000 0.13800  0.47390  0.41697  Biso   1.000  C
  H35      1.0000 0.15620  0.51790  0.35747  Biso   1.000  H
  C72      1.0000 0.08270  0.34290  0.59277  Biso   1.000  C
  H36      1.0000 0.06500  0.29910  0.65307  Biso   1.000  H
  O19      1.0000 0.63870  0.23990  0.25453  Biso   1.000  O
  O20      1.0000 0.70620  0.24180  0.48143  Biso   1.000  O
  F28      1.0000 0.77190  0.07140  0.74173  Biso   1.000  F
  F29      1.0000 0.81620  0.00230  0.80293  Biso   1.000  F
  C73      1.0000 0.67690  0.21890  0.33913  Biso   1.000  C
  C74      1.0000 0.68950  0.16280  0.24883  Biso   1.000  C
  F30      1.0000 0.84700  0.09880  0.95303  Biso   1.000  F
  C75      1.0000 0.72710  0.13470  0.33583  Biso   1.000  C
  H37      1.0000 0.74420  0.15090  0.44803  Biso   1.000  H
  C76      1.0000 0.67650  0.08580  0.00343  Biso   1.000  C
  H38      1.0000 0.66010  0.07020  0.89043  Biso   1.000  H
  C77      1.0000 0.78990  0.04340  0.87133  Biso   1.000  C
  C78      1.0000 0.71400  0.05730  0.09583  Biso   1.000  C
  C79      1.0000 0.66410  0.13800  0.08363  Biso   1.000  C
  H39      1.0000 0.63830  0.15620  0.02413  Biso   1.000  H
  C80      1.0000 0.73980  0.08270  0.25943  Biso   1.000  C
  H40      1.0000 0.76590  0.06500  0.31973  Biso   1.000  H
  O21      1.0000 0.60120  0.36130  0.92120  Biso   1.000  O
  O22      1.0000 0.53560  0.29380  0.14810  Biso   1.000  O
  F31      1.0000 0.29950  0.22810  0.40840  Biso   1.000  F
  F32      1.0000 0.18610  0.18380  0.46960  Biso   1.000  F
  C81      1.0000 0.54200  0.32310  0.00580  Biso   1.000  C
  C82      1.0000 0.47330  0.31050  0.91550  Biso   1.000  C
  F33      1.0000 0.25180  0.15300  0.61970  Biso   1.000  F
  C83      1.0000 0.40760  0.27290  0.00250  Biso   1.000  C
  H41      1.0000 0.40670  0.25580  0.11470  Biso   1.000  H
  C84      1.0000 0.40930  0.32350  0.67010  Biso   1.000  C
  H42      1.0000 0.41010  0.33990  0.55710  Biso   1.000  H
  C85      1.0000 0.25350  0.21010  0.53800  Biso   1.000  C
  C86      1.0000 0.34330  0.28600  0.76250  Biso   1.000  C
  C87      1.0000 0.47390  0.33590  0.75030  Biso   1.000  C
  H43      1.0000 0.51790  0.36170  0.69080  Biso   1.000  H
  C88      1.0000 0.34290  0.26020  0.92610  Biso   1.000  C
  H44      1.0000 0.29910  0.23410  0.98640  Biso   1.000  H
  O23      1.0000 0.76010  0.39880  0.58787  Biso   1.000  O
  O24      1.0000 0.75820  0.46440  0.81477  Biso   1.000  O
  F34      1.0000 0.92860  0.70050  0.07507  Biso   1.000  F
  F35      1.0000 0.99770  0.81390  0.13627  Biso   1.000  F
  C89      1.0000 0.78110  0.45800  0.67247  Biso   1.000  C
  C90      1.0000 0.83720  0.52670  0.58217  Biso   1.000  C
  F36      1.0000 0.90120  0.74820  0.28637  Biso   1.000  F
  C91      1.0000 0.86530  0.59240  0.66917  Biso   1.000  C
  H45      1.0000 0.84910  0.59330  0.78137  Biso   1.000  H
  C92      1.0000 0.91420  0.59070  0.33677  Biso   1.000  C
  H46      1.0000 0.92980  0.58990  0.22377  Biso   1.000  H
  C93      1.0000 0.95660  0.74650  0.20467  Biso   1.000  C
  C94      1.0000 0.94270  0.65670  0.42917  Biso   1.000  C
  C95      1.0000 0.86200  0.52610  0.41697  Biso   1.000  C
  H47      1.0000 0.84380  0.48210  0.35747  Biso   1.000  H
  C96      1.0000 0.91730  0.65710  0.59277  Biso   1.000  C
  H48      1.0000 0.93500  0.70090  0.65307  Biso   1.000  H
  Zn1      1.0000 0.70023  0.40046  0.00000  Biso   1.000  Zn
  Zn2      1.0000 0.59954  0.29977  0.33333  Biso   1.000  Zn
  Zn3      1.0000 0.70023  0.29977  0.66667  Biso   1.000  Zn
  Zn4      1.0000 0.29977  0.59954  0.00000  Biso   1.000  Zn
  Zn5      1.0000 0.40046  0.70023  0.33333  Biso   1.000  Zn
  Zn6      1.0000 0.29977  0.70023  0.66667  Biso   1.000  Zn
  C97      1.0000 0.00000  0.27310  0.33333  Biso   1.000  C
  C98      1.0000 0.72690  0.72690  0.66667  Biso   1.000  C
  C99      1.0000 0.27310  0.00000  0.00000  Biso   1.000  C
  C100     1.0000 0.00000  0.72690  0.33333  Biso   1.000  C
  C101     1.0000 0.27310  0.27310  0.66667  Biso   1.000  C
  C102     1.0000 0.72690  0.00000  0.00000  Biso   1.000  C
