data_YAPYUK_clean
_audit_creation_date              2014-07-02
_audit_creation_method            'Materials Studio'
_symmetry_space_group_name_H-M    'P1'
_symmetry_Int_Tables_number       1
_symmetry_cell_setting            triclinic
loop_
_symmetry_equiv_pos_as_xyz
  x,y,z
_cell_length_a                    7.3627
_cell_length_b                    12.3300
_cell_length_c                    13.9290
_cell_angle_alpha                 83.4390
_cell_angle_beta                  81.4850
_cell_angle_gamma                 72.6740
loop_
_atom_site_label
_atom_site_type_symbol
_atom_site_fract_x
_atom_site_fract_y
_atom_site_fract_z
_atom_site_U_iso_or_equiv
_atom_site_adp_type
_atom_site_occupancy
Co1    Co    0.45522   0.78990   0.95969   0.01267  Uiso   1.00
Co2    Co    0.91581   0.93628   0.75184   0.01267  Uiso   1.00
Co3    Co    0.54478   0.21010   0.04031   0.01267  Uiso   1.00
Co4    Co    0.08419   0.06372   0.24816   0.01267  Uiso   1.00
H1     H     0.92420   0.57440   0.69820   0.01267  Uiso   1.00
H2     H     0.98850   0.37040   0.77940   0.01267  Uiso   1.00
H3     H     0.29690   0.60120   0.66750   0.01267  Uiso   1.00
H4     H     0.54320   0.22070   0.57510   0.01267  Uiso   1.00
H5     H     0.54120   0.45480   0.60110   0.01267  Uiso   1.00
H6     H     0.25970   0.31250   0.51100   0.01267  Uiso   1.00
H7     H     0.20700   0.62500   0.98000   0.01267  Uiso   1.00
H8     H     0.75100   0.56800   0.98000   0.01267  Uiso   1.00
H9     H     0.00600   0.81500   0.55900   0.01267  Uiso   1.00
H10    H     0.93100   0.13300   0.60000   0.01267  Uiso   1.00
H11    H     0.07580   0.42560   0.30180   0.01267  Uiso   1.00
H12    H     0.01150   0.62960   0.22060   0.01267  Uiso   1.00
H13    H     0.70310   0.39880   0.33250   0.01267  Uiso   1.00
H14    H     0.45680   0.77930   0.42490   0.01267  Uiso   1.00
H15    H     0.45880   0.54520   0.39890   0.01267  Uiso   1.00
H16    H     0.74030   0.68750   0.48900   0.01267  Uiso   1.00
H17    H     0.79300   0.37500   0.02000   0.01267  Uiso   1.00
H18    H     0.24900   0.43200   0.02000   0.01267  Uiso   1.00
H19    H     0.99400   0.18500   0.44100   0.01267  Uiso   1.00
H20    H     0.06900   0.86700   0.40000   0.01267  Uiso   1.00
C1     C     0.76050   0.49880   0.64350   0.01267  Uiso   1.00
C2     C     0.09550   0.35120   0.63910   0.01267  Uiso   1.00
C3     C     0.79770   0.57950   0.69220   0.01267  Uiso   1.00
C4     C     0.09890   0.33830   0.73850   0.01267  Uiso   1.00
C5     C     0.65230   0.66840   0.73290   0.01267  Uiso   1.00
C6     C     0.26760   0.27710   0.77870   0.01267  Uiso   1.00
C7     C     0.46120   0.67380   0.72600   0.01267  Uiso   1.00
C8     C     0.43420   0.23500   0.71770   0.01267  Uiso   1.00
C9     C     0.42310   0.59520   0.67490   0.01267  Uiso   1.00
C10    C     0.43150   0.24910   0.61640   0.01267  Uiso   1.00
C11    C     0.56950   0.50780   0.63440   0.01267  Uiso   1.00
C12    C     0.26210   0.30530   0.57800   0.01267  Uiso   1.00
C13    C     0.70700   0.75880   0.77630   0.01267  Uiso   1.00
C14    C     0.26290   0.26080   0.88860   0.01267  Uiso   1.00
C15    C     0.29480   0.76650   0.76910   0.01267  Uiso   1.00
C16    C     0.62750   0.17070   0.75120   0.01267  Uiso   1.00
C17    C     0.91290   0.40630   0.59360   0.01267  Uiso   1.00
C18    C     0.33020   0.57370   0.99280   0.01267  Uiso   1.00
C19    C     0.64930   0.54230   0.98910   0.01267  Uiso   1.00
C20    C     0.99940   0.89500   0.53820   0.01267  Uiso   1.00
C21    C     0.96260   0.08280   0.56010   0.01267  Uiso   1.00
C22    C     0.23950   0.50120   0.35650   0.01267  Uiso   1.00
C23    C     0.90450   0.64880   0.36090   0.01267  Uiso   1.00
C24    C     0.20230   0.42050   0.30780   0.01267  Uiso   1.00
C25    C     0.90110   0.66170   0.26150   0.01267  Uiso   1.00
C26    C     0.34770   0.33160   0.26710   0.01267  Uiso   1.00
C27    C     0.73240   0.72290   0.22130   0.01267  Uiso   1.00
C28    C     0.53880   0.32620   0.27400   0.01267  Uiso   1.00
C29    C     0.56580   0.76500   0.28230   0.01267  Uiso   1.00
C30    C     0.57690   0.40480   0.32510   0.01267  Uiso   1.00
C31    C     0.56850   0.75090   0.38360   0.01267  Uiso   1.00
C32    C     0.43050   0.49220   0.36560   0.01267  Uiso   1.00
C33    C     0.73790   0.69470   0.42200   0.01267  Uiso   1.00
C34    C     0.29300   0.24120   0.22370   0.01267  Uiso   1.00
C35    C     0.73710   0.73920   0.11140   0.01267  Uiso   1.00
C36    C     0.70520   0.23350   0.23090   0.01267  Uiso   1.00
C37    C     0.37250   0.82930   0.24880   0.01267  Uiso   1.00
C38    C     0.08710   0.59370   0.40640   0.01267  Uiso   1.00
C39    C     0.66980   0.42630   0.00720   0.01267  Uiso   1.00
C40    C     0.35070   0.45770   0.01090   0.01267  Uiso   1.00
C41    C     0.00060   0.10500   0.46180   0.01267  Uiso   1.00
C42    C     0.03740   0.91720   0.43990   0.01267  Uiso   1.00
N1     N     0.48060   0.61650   0.98290   0.01267  Uiso   1.00
N2     N     0.96030   0.97800   0.59940   0.01267  Uiso   1.00
N3     N     0.51940   0.38350   0.01710   0.01267  Uiso   1.00
N4     N     0.03970   0.02200   0.40060   0.01267  Uiso   1.00
O1     O     0.76290   0.82910   0.71890   0.01267  Uiso   1.00
O2     O     0.10850   0.29120   0.94110   0.01267  Uiso   1.00
O3     O     0.70590   0.75510   0.86780   0.01267  Uiso   1.00
O4     O     0.42380   0.21340   0.91850   0.01267  Uiso   1.00
O5     O     0.30490   0.80950   0.84450   0.01267  Uiso   1.00
O6     O     0.74520   0.22270   0.75860   0.01267  Uiso   1.00
O7     O     0.14980   0.79730   0.72710   0.01267  Uiso   1.00
O8     O     0.65960   0.06300   0.76290   0.01267  Uiso   1.00
O9     O     0.88980   0.37600   0.51720   0.01267  Uiso   1.00
O10    O     0.23710   0.17090   0.28110   0.01267  Uiso   1.00
O11    O     0.89150   0.70880   0.05890   0.01267  Uiso   1.00
O12    O     0.29410   0.24490   0.13220   0.01267  Uiso   1.00
O13    O     0.57620   0.78660   0.08150   0.01267  Uiso   1.00
O14    O     0.69510   0.19050   0.15550   0.01267  Uiso   1.00
O15    O     0.25480   0.77730   0.24140   0.01267  Uiso   1.00
O16    O     0.85020   0.20270   0.27290   0.01267  Uiso   1.00
O17    O     0.34040   0.93700   0.23710   0.01267  Uiso   1.00
O18    O     0.11020   0.62400   0.48280   0.01267  Uiso   1.00
