data_image0
_cell_length_a       13.859
_cell_length_b       13.859
_cell_length_c       18.9449
_cell_angle_alpha    90
_cell_angle_beta     90
_cell_angle_gamma    120

_symmetry_space_group_name_H-M    "P 1"
_symmetry_int_tables_number       1

loop_
  _symmetry_equiv_pos_as_xyz
  'x, y, z'

loop_
  _atom_site_label
  _atom_site_occupancy
  _atom_site_fract_x
  _atom_site_fract_y
  _atom_site_fract_z
  _atom_site_thermal_displace_type
  _atom_site_B_iso_or_equiv
  _atom_site_type_symbol
  In1      1.0000 0.29368  0.43901  0.45394  Biso   1.000  In
  O1       1.0000 0.06530  0.14580  0.31469  Biso   1.000  O
  O2       1.0000 0.10740  0.13680  0.43780  Biso   1.000  O
  O3       1.0000 0.18950  0.31640  0.37876  Biso   1.000  O
  O4       1.0000 0.25180  0.18190  0.34775  Biso   1.000  O
  H1       1.0000 0.31620  0.25470  0.34350  Biso   1.000  H
  O5       1.0000 0.14580  0.43670  0.49086  Biso   1.000  O
  O6       1.0000 0.00780  0.43350  0.57640  Biso   1.000  O
  O7       1.0000 0.20070  0.49710  0.61745  Biso   1.000  O
  H2       1.0000 0.27800  0.53640  0.60440  Biso   1.000  H
  O8       1.0000 0.16820  0.61570  0.53405  Biso   1.000  O
  O9       1.0000 0.33530  0.56330  0.37752  Biso   1.000  O
  H3       1.0000 0.39170  0.66770  0.25890  Biso   1.000  H
  P1       1.0000 0.14986  0.19318  0.37160  Biso   1.000  P
  P2       1.0000 0.12734  0.49580  0.55179  Biso   1.000  P
  In2      1.0000 0.56099  0.85467  0.45394  Biso   1.000  In
  O10      1.0000 0.85420  0.91950  0.31469  Biso   1.000  O
  O11      1.0000 0.86320  0.97060  0.43780  Biso   1.000  O
  O12      1.0000 0.68360  0.87310  0.37876  Biso   1.000  O
  O13      1.0000 0.81810  0.06990  0.34775  Biso   1.000  O
  H4       1.0000 0.74530  0.06150  0.34350  Biso   1.000  H
  O14      1.0000 0.56330  0.70910  0.49086  Biso   1.000  O
  O15      1.0000 0.56650  0.57430  0.57640  Biso   1.000  O
  O16      1.0000 0.50290  0.70360  0.61745  Biso   1.000  O
  H5       1.0000 0.46360  0.74160  0.60440  Biso   1.000  H
  O17      1.0000 0.38430  0.55250  0.53405  Biso   1.000  O
  O18      1.0000 0.43670  0.77200  0.37752  Biso   1.000  O
  H6       1.0000 0.33230  0.72400  0.25890  Biso   1.000  H
  P3       1.0000 0.80682  0.95668  0.37160  Biso   1.000  P
  P4       1.0000 0.50420  0.63154  0.55179  Biso   1.000  P
  In3      1.0000 0.14533  0.70632  0.45394  Biso   1.000  In
  O19      1.0000 0.08050  0.93470  0.31469  Biso   1.000  O
  O20      1.0000 0.02940  0.89260  0.43780  Biso   1.000  O
  O21      1.0000 0.12690  0.81050  0.37876  Biso   1.000  O
  O22      1.0000 0.93010  0.74820  0.34775  Biso   1.000  O
  H7       1.0000 0.93850  0.68380  0.34350  Biso   1.000  H
  O23      1.0000 0.29090  0.85420  0.49086  Biso   1.000  O
  O24      1.0000 0.42570  0.99220  0.57640  Biso   1.000  O
  O25      1.0000 0.29640  0.79930  0.61745  Biso   1.000  O
  H8       1.0000 0.25840  0.72200  0.60440  Biso   1.000  H
  O26      1.0000 0.44750  0.83180  0.53405  Biso   1.000  O
  O27      1.0000 0.22800  0.66470  0.37752  Biso   1.000  O
  H9       1.0000 0.27600  0.60830  0.25890  Biso   1.000  H
  P5       1.0000 0.04332  0.85014  0.37160  Biso   1.000  P
  P6       1.0000 0.36846  0.87266  0.55179  Biso   1.000  P
  In4      1.0000 0.43901  0.29368  0.04606  Biso   1.000  In
  O28      1.0000 0.14580  0.06530  0.18531  Biso   1.000  O
  O29      1.0000 0.13680  0.10740  0.06220  Biso   1.000  O
  O30      1.0000 0.31640  0.18950  0.12124  Biso   1.000  O
  O31      1.0000 0.18190  0.25180  0.15225  Biso   1.000  O
  H10      1.0000 0.25470  0.31620  0.15650  Biso   1.000  H
  O32      1.0000 0.43670  0.14580  0.00914  Biso   1.000  O
  O33      1.0000 0.43350  0.00780  0.92360  Biso   1.000  O
  O34      1.0000 0.49710  0.20070  0.88255  Biso   1.000  O
  H11      1.0000 0.53640  0.27800  0.89560  Biso   1.000  H
  O35      1.0000 0.61570  0.16820  0.96595  Biso   1.000  O
  O36      1.0000 0.56330  0.33530  0.12248  Biso   1.000  O
  H12      1.0000 0.66770  0.39170  0.24110  Biso   1.000  H
  P7       1.0000 0.19318  0.14986  0.12840  Biso   1.000  P
  P8       1.0000 0.49580  0.12734  0.94821  Biso   1.000  P
  In5      1.0000 0.85467  0.56099  0.04606  Biso   1.000  In
  O37      1.0000 0.91950  0.85420  0.18531  Biso   1.000  O
  O38      1.0000 0.97060  0.86320  0.06220  Biso   1.000  O
  O39      1.0000 0.87310  0.68360  0.12124  Biso   1.000  O
  O40      1.0000 0.06990  0.81810  0.15225  Biso   1.000  O
  H13      1.0000 0.06150  0.74530  0.15650  Biso   1.000  H
  O41      1.0000 0.70910  0.56330  0.00914  Biso   1.000  O
  O42      1.0000 0.57430  0.56650  0.92360  Biso   1.000  O
  O43      1.0000 0.70360  0.50290  0.88255  Biso   1.000  O
  H14      1.0000 0.74160  0.46360  0.89560  Biso   1.000  H
  O44      1.0000 0.55250  0.38430  0.96595  Biso   1.000  O
  O45      1.0000 0.77200  0.43670  0.12248  Biso   1.000  O
  H15      1.0000 0.72400  0.33230  0.24110  Biso   1.000  H
  P9       1.0000 0.95668  0.80682  0.12840  Biso   1.000  P
  P10      1.0000 0.63154  0.50420  0.94821  Biso   1.000  P
  In6      1.0000 0.70632  0.14533  0.04606  Biso   1.000  In
  O46      1.0000 0.93470  0.08050  0.18531  Biso   1.000  O
  O47      1.0000 0.89260  0.02940  0.06220  Biso   1.000  O
  O48      1.0000 0.81050  0.12690  0.12124  Biso   1.000  O
  O49      1.0000 0.74820  0.93010  0.15225  Biso   1.000  O
  H16      1.0000 0.68380  0.93850  0.15650  Biso   1.000  H
  O50      1.0000 0.85420  0.29090  0.00914  Biso   1.000  O
  O51      1.0000 0.99220  0.42570  0.92360  Biso   1.000  O
  O52      1.0000 0.79930  0.29640  0.88255  Biso   1.000  O
  H17      1.0000 0.72200  0.25840  0.89560  Biso   1.000  H
  O53      1.0000 0.83180  0.44750  0.96595  Biso   1.000  O
  O54      1.0000 0.66470  0.22800  0.12248  Biso   1.000  O
  H18      1.0000 0.60830  0.27600  0.24110  Biso   1.000  H
  P11      1.0000 0.85014  0.04332  0.12840  Biso   1.000  P
  P12      1.0000 0.87266  0.36846  0.94821  Biso   1.000  P
  In7      1.0000 0.70632  0.56099  0.54606  Biso   1.000  In
  O55      1.0000 0.93470  0.85420  0.68531  Biso   1.000  O
  O56      1.0000 0.89260  0.86320  0.56220  Biso   1.000  O
  O57      1.0000 0.81050  0.68360  0.62124  Biso   1.000  O
  O58      1.0000 0.74820  0.81810  0.65225  Biso   1.000  O
  H19      1.0000 0.68380  0.74530  0.65650  Biso   1.000  H
  O59      1.0000 0.85420  0.56330  0.50914  Biso   1.000  O
  O60      1.0000 0.99220  0.56650  0.42360  Biso   1.000  O
  O61      1.0000 0.79930  0.50290  0.38255  Biso   1.000  O
  H20      1.0000 0.72200  0.46360  0.39560  Biso   1.000  H
  O62      1.0000 0.83180  0.38430  0.46595  Biso   1.000  O
  O63      1.0000 0.66470  0.43670  0.62248  Biso   1.000  O
  H21      1.0000 0.60830  0.33230  0.74110  Biso   1.000  H
  P13      1.0000 0.85014  0.80682  0.62840  Biso   1.000  P
  P14      1.0000 0.87266  0.50420  0.44821  Biso   1.000  P
  In8      1.0000 0.43901  0.14533  0.54606  Biso   1.000  In
  O64      1.0000 0.14580  0.08050  0.68531  Biso   1.000  O
  O65      1.0000 0.13680  0.02940  0.56220  Biso   1.000  O
  O66      1.0000 0.31640  0.12690  0.62124  Biso   1.000  O
  O67      1.0000 0.18190  0.93010  0.65225  Biso   1.000  O
  H22      1.0000 0.25470  0.93850  0.65650  Biso   1.000  H
  O68      1.0000 0.43670  0.29090  0.50914  Biso   1.000  O
  O69      1.0000 0.43350  0.42570  0.42360  Biso   1.000  O
  O70      1.0000 0.49710  0.29640  0.38255  Biso   1.000  O
  H23      1.0000 0.53640  0.25840  0.39560  Biso   1.000  H
  O71      1.0000 0.61570  0.44750  0.46595  Biso   1.000  O
  O72      1.0000 0.56330  0.22800  0.62248  Biso   1.000  O
  H24      1.0000 0.66770  0.27600  0.74110  Biso   1.000  H
  P15      1.0000 0.19318  0.04332  0.62840  Biso   1.000  P
  P16      1.0000 0.49580  0.36846  0.44821  Biso   1.000  P
  In9      1.0000 0.85467  0.29368  0.54606  Biso   1.000  In
  O73      1.0000 0.91950  0.06530  0.68531  Biso   1.000  O
  O74      1.0000 0.97060  0.10740  0.56220  Biso   1.000  O
  O75      1.0000 0.87310  0.18950  0.62124  Biso   1.000  O
  O76      1.0000 0.06990  0.25180  0.65225  Biso   1.000  O
  H25      1.0000 0.06150  0.31620  0.65650  Biso   1.000  H
  O77      1.0000 0.70910  0.14580  0.50914  Biso   1.000  O
  O78      1.0000 0.57430  0.00780  0.42360  Biso   1.000  O
  O79      1.0000 0.70360  0.20070  0.38255  Biso   1.000  O
  H26      1.0000 0.74160  0.27800  0.39560  Biso   1.000  H
  O80      1.0000 0.55250  0.16820  0.46595  Biso   1.000  O
  O81      1.0000 0.77200  0.33530  0.62248  Biso   1.000  O
  H27      1.0000 0.72400  0.39170  0.74110  Biso   1.000  H
  P17      1.0000 0.95668  0.14986  0.62840  Biso   1.000  P
  P18      1.0000 0.63154  0.12734  0.44821  Biso   1.000  P
  In10     1.0000 0.56099  0.70632  0.95394  Biso   1.000  In
  O82      1.0000 0.85420  0.93470  0.81469  Biso   1.000  O
  O83      1.0000 0.86320  0.89260  0.93780  Biso   1.000  O
  O84      1.0000 0.68360  0.81050  0.87876  Biso   1.000  O
  O85      1.0000 0.81810  0.74820  0.84775  Biso   1.000  O
  H28      1.0000 0.74530  0.68380  0.84350  Biso   1.000  H
  O86      1.0000 0.56330  0.85420  0.99086  Biso   1.000  O
  O87      1.0000 0.56650  0.99220  0.07640  Biso   1.000  O
  O88      1.0000 0.50290  0.79930  0.11745  Biso   1.000  O
  H29      1.0000 0.46360  0.72200  0.10440  Biso   1.000  H
  O89      1.0000 0.38430  0.83180  0.03405  Biso   1.000  O
  O90      1.0000 0.43670  0.66470  0.87752  Biso   1.000  O
  H30      1.0000 0.33230  0.60830  0.75890  Biso   1.000  H
  P19      1.0000 0.80682  0.85014  0.87160  Biso   1.000  P
  P20      1.0000 0.50420  0.87266  0.05179  Biso   1.000  P
  In11     1.0000 0.14533  0.43901  0.95394  Biso   1.000  In
  O91      1.0000 0.08050  0.14580  0.81469  Biso   1.000  O
  O92      1.0000 0.02940  0.13680  0.93780  Biso   1.000  O
  O93      1.0000 0.12690  0.31640  0.87876  Biso   1.000  O
  O94      1.0000 0.93010  0.18190  0.84775  Biso   1.000  O
  H31      1.0000 0.93850  0.25470  0.84350  Biso   1.000  H
  O95      1.0000 0.29090  0.43670  0.99086  Biso   1.000  O
  O96      1.0000 0.42570  0.43350  0.07640  Biso   1.000  O
  O97      1.0000 0.29640  0.49710  0.11745  Biso   1.000  O
  H32      1.0000 0.25840  0.53640  0.10440  Biso   1.000  H
  O98      1.0000 0.44750  0.61570  0.03405  Biso   1.000  O
  O99      1.0000 0.22800  0.56330  0.87752  Biso   1.000  O
  H33      1.0000 0.27600  0.66770  0.75890  Biso   1.000  H
  P21      1.0000 0.04332  0.19318  0.87160  Biso   1.000  P
  P22      1.0000 0.36846  0.49580  0.05179  Biso   1.000  P
  In12     1.0000 0.29368  0.85467  0.95394  Biso   1.000  In
  O100     1.0000 0.06530  0.91950  0.81469  Biso   1.000  O
  O101     1.0000 0.10740  0.97060  0.93780  Biso   1.000  O
  O102     1.0000 0.18950  0.87310  0.87876  Biso   1.000  O
  O103     1.0000 0.25180  0.06990  0.84775  Biso   1.000  O
  H34      1.0000 0.31620  0.06150  0.84350  Biso   1.000  H
  O104     1.0000 0.14580  0.70910  0.99086  Biso   1.000  O
  O105     1.0000 0.00780  0.57430  0.07640  Biso   1.000  O
  O106     1.0000 0.20070  0.70360  0.11745  Biso   1.000  O
  H35      1.0000 0.27800  0.74160  0.10440  Biso   1.000  H
  O107     1.0000 0.16820  0.55250  0.03405  Biso   1.000  O
  O108     1.0000 0.33530  0.77200  0.87752  Biso   1.000  O
  H36      1.0000 0.39170  0.72400  0.75890  Biso   1.000  H
  P23      1.0000 0.14986  0.95668  0.87160  Biso   1.000  P
  P24      1.0000 0.12734  0.63154  0.05179  Biso   1.000  P
  In13     1.0000 0.00000  0.00000  0.25000  Biso   1.000  In
  In14     1.0000 0.00000  0.00000  0.75000  Biso   1.000  In
  In15     1.0000 0.00000  0.00000  0.50000  Biso   1.000  In
  In16     1.0000 0.00000  0.00000  0.00000  Biso   1.000  In
  O109     1.0000 0.33333  0.66667  0.27390  Biso   1.000  O
  P25      1.0000 0.33333  0.66667  0.35707  Biso   1.000  P
  O110     1.0000 0.66667  0.33333  0.22610  Biso   1.000  O
  P26      1.0000 0.66667  0.33333  0.14293  Biso   1.000  P
  O111     1.0000 0.66667  0.33333  0.72610  Biso   1.000  O
  P27      1.0000 0.66667  0.33333  0.64293  Biso   1.000  P
  O112     1.0000 0.33333  0.66667  0.77390  Biso   1.000  O
  P28      1.0000 0.33333  0.66667  0.85707  Biso   1.000  P
