data_image0
_cell_length_a       18.7892
_cell_length_b       23.2307
_cell_length_c       21.1355
_cell_angle_alpha    90
_cell_angle_beta     95.085
_cell_angle_gamma    90

_symmetry_space_group_name_H-M    "P 1"
_symmetry_int_tables_number       1

loop_
  _symmetry_equiv_pos_as_xyz
  'x, y, z'

loop_
  _atom_site_label
  _atom_site_occupancy
  _atom_site_fract_x
  _atom_site_fract_y
  _atom_site_fract_z
  _atom_site_thermal_displace_type
  _atom_site_B_iso_or_equiv
  _atom_site_type_symbol
  Mn1      1.0000 0.16197  0.88138  0.34316  Biso   1.000  Mn
  Mn2      1.0000 0.26885  0.87838  0.16902  Biso   1.000  Mn
  Mn3      1.0000 0.20685  0.00620  0.24693  Biso   1.000  Mn
  Mn4      1.0000 0.70725  0.74936  0.25895  Biso   1.000  Mn
  Mn5      1.0000 0.66257  0.88231  0.34137  Biso   1.000  Mn
  Mn6      1.0000 0.76902  0.86790  0.16734  Biso   1.000  Mn
  O1       1.0000 0.27741  0.89541  0.34485  Biso   1.000  O
  O2       1.0000 0.29460  0.94114  0.25373  Biso   1.000  O
  O3       1.0000 0.26110  0.80927  0.23194  Biso   1.000  O
  O4       1.0000 0.17250  0.80061  0.29597  Biso   1.000  O
  O5       1.0000 0.65337  0.86443  0.15746  Biso   1.000  O
  O6       1.0000 0.63935  0.82804  0.25415  Biso   1.000  O
  O7       1.0000 0.74225  0.44635  0.28344  Biso   1.000  O
  O8       1.0000 0.82775  0.45691  0.21576  Biso   1.000  O
  O9       1.0000 0.15349  0.68865  0.90519  Biso   1.000  O
  O10      1.0000 0.22110  0.75256  0.85811  Biso   1.000  O
  O11      1.0000 0.20640  0.01283  0.14648  Biso   1.000  O
  O12      1.0000 0.28070  0.94839  0.10817  Biso   1.000  O
  O13      1.0000 0.77702  0.86723  0.34429  Biso   1.000  O
  O14      1.0000 0.79557  0.81291  0.25914  Biso   1.000  O
  O15      1.0000 0.13723  0.92896  0.25153  Biso   1.000  O
  O16      1.0000 0.15280  0.88377  0.15972  Biso   1.000  O
  O17      1.0000 0.19510  0.76386  0.66004  Biso   1.000  O
  O18      1.0000 0.27780  0.71058  0.61721  Biso   1.000  O
  O19      1.0000 0.22420  0.01584  0.34631  Biso   1.000  O
  O20      1.0000 0.15490  0.95755  0.39918  Biso   1.000  O
  N1       1.0000 0.54480  0.90275  0.34430  Biso   1.000  N
  N2       1.0000 0.24320  0.59700  0.25240  Biso   1.000  N
  N3       1.0000 0.38740  0.86128  0.16880  Biso   1.000  N
  N4       1.0000 0.76010  0.65956  0.26500  Biso   1.000  N
  N5       1.0000 0.24720  0.82090  0.08150  Biso   1.000  N
  N6       1.0000 0.24100  0.08780  0.92900  Biso   1.000  N
  N7       1.0000 0.04430  0.86176  0.34630  Biso   1.000  N
  N8       1.0000 0.88720  0.88330  0.16940  Biso   1.000  N
  N9       1.0000 0.18560  0.83607  0.43640  Biso   1.000  N
  N10      1.0000 0.30190  0.06410  0.57150  Biso   1.000  N
  C1       1.0000 0.51440  0.94560  0.30700  Biso   1.000  C
  C2       1.0000 0.44120  0.95210  0.29510  Biso   1.000  C
  C3       1.0000 0.49980  0.86670  0.37100  Biso   1.000  C
  C4       1.0000 0.42630  0.87170  0.36190  Biso   1.000  C
  C5       1.0000 0.39580  0.91390  0.32200  Biso   1.000  C
  C6       1.0000 0.31620  0.91690  0.30690  Biso   1.000  C
  C7       1.0000 0.20870  0.62160  0.29790  Biso   1.000  C
  C8       1.0000 0.19710  0.67970  0.30180  Biso   1.000  C
  C9       1.0000 0.26810  0.63280  0.20900  Biso   1.000  C
  C10      1.0000 0.26140  0.69150  0.21110  Biso   1.000  C
  C11      1.0000 0.22590  0.71620  0.25870  Biso   1.000  C
  C12      1.0000 0.21900  0.78070  0.26240  Biso   1.000  C
  C13      1.0000 0.41900  0.82060  0.20670  Biso   1.000  C
  C14      1.0000 0.49200  0.81490  0.21800  Biso   1.000  C
  C15      1.0000 0.43100  0.89620  0.13850  Biso   1.000  C
  C16      1.0000 0.50300  0.89210  0.14540  Biso   1.000  C
  C17      1.0000 0.53570  0.85190  0.18700  Biso   1.000  C
  C18      1.0000 0.61550  0.84820  0.20020  Biso   1.000  C
  C19      1.0000 0.79530  0.63550  0.21880  Biso   1.000  C
  C20      1.0000 0.80570  0.57660  0.21470  Biso   1.000  C
  C21      1.0000 0.73610  0.62390  0.30810  Biso   1.000  C
  C22      1.0000 0.74310  0.56570  0.30620  Biso   1.000  C
  C23      1.0000 0.77800  0.54060  0.25800  Biso   1.000  C
  C24      1.0000 0.78390  0.47570  0.25230  Biso   1.000  C
  C25      1.0000 0.19430  0.78200  0.07570  Biso   1.000  C
  C26      1.0000 0.17460  0.75230  0.02040  Biso   1.000  C
  C27      1.0000 0.28310  0.83010  0.03060  Biso   1.000  C
  C28      1.0000 0.26770  0.80250  0.97350  Biso   1.000  C
  C29      1.0000 0.21170  0.76290  0.96780  Biso   1.000  C
  C30      1.0000 0.19350  0.73220  0.90520  Biso   1.000  C
  C31      1.0000 0.19850  0.10350  0.97510  Biso   1.000  C
  C32      1.0000 0.19870  0.07480  0.03180  Biso   1.000  C
  C33      1.0000 0.28500  0.04160  0.94120  Biso   1.000  C
  C34      1.0000 0.28680  0.01100  0.99670  Biso   1.000  C
  C35      1.0000 0.24260  0.02700  0.04340  Biso   1.000  C
  C36      1.0000 0.24310  0.99350  0.10390  Biso   1.000  C
  C37      1.0000 0.99770  0.90010  0.36770  Biso   1.000  C
  C38      1.0000 0.92480  0.89400  0.35920  Biso   1.000  C
  C39      1.0000 0.01540  0.81430  0.31630  Biso   1.000  C
  C40      1.0000 0.94270  0.80660  0.30390  Biso   1.000  C
  C41      1.0000 0.89560  0.84730  0.32520  Biso   1.000  C
  C42      1.0000 0.81660  0.84210  0.30920  Biso   1.000  C
  C43      1.0000 0.93110  0.84650  0.14410  Biso   1.000  C
  C44      1.0000 0.00500  0.85240  0.15040  Biso   1.000  C
  C45      1.0000 0.91690  0.92840  0.20210  Biso   1.000  C
  C46      1.0000 0.98960  0.93670  0.21310  Biso   1.000  C
  C47      1.0000 0.03480  0.89780  0.18720  Biso   1.000  C
  C48      1.0000 0.15090  0.85000  0.48740  Biso   1.000  C
  C49      1.0000 0.16440  0.82340  0.54620  Biso   1.000  C
  C50      1.0000 0.23710  0.79490  0.44470  Biso   1.000  C
  C51      1.0000 0.25380  0.76700  0.50090  Biso   1.000  C
  C52      1.0000 0.21590  0.78050  0.55290  Biso   1.000  C
  C53      1.0000 0.23130  0.74900  0.61490  Biso   1.000  C
  C54      1.0000 0.32610  0.07740  0.51410  Biso   1.000  C
  C55      1.0000 0.29460  0.05680  0.45780  Biso   1.000  C
  C56      1.0000 0.24660  0.02770  0.57120  Biso   1.000  C
  C57      1.0000 0.21180  0.00550  0.51610  Biso   1.000  C
  C58      1.0000 0.23650  0.01950  0.45740  Biso   1.000  C
  C59      1.0000 0.20120  0.99520  0.39630  Biso   1.000  C
  C60      1.0000 0.10900  0.90390  0.19770  Biso   1.000  C
  Mn7      1.0000 0.33803  0.38138  0.15684  Biso   1.000  Mn
  Mn8      1.0000 0.23115  0.37838  0.33098  Biso   1.000  Mn
  Mn9      1.0000 0.29315  0.50620  0.25307  Biso   1.000  Mn
  Mn10     1.0000 0.79275  0.24936  0.24105  Biso   1.000  Mn
  Mn11     1.0000 0.83743  0.38231  0.15863  Biso   1.000  Mn
  Mn12     1.0000 0.73098  0.36790  0.33266  Biso   1.000  Mn
  O21      1.0000 0.22259  0.39541  0.15515  Biso   1.000  O
  O22      1.0000 0.20540  0.44114  0.24627  Biso   1.000  O
  O23      1.0000 0.23890  0.30927  0.26806  Biso   1.000  O
  O24      1.0000 0.32750  0.30061  0.20403  Biso   1.000  O
  O25      1.0000 0.84663  0.36443  0.34254  Biso   1.000  O
  O26      1.0000 0.86065  0.32804  0.24585  Biso   1.000  O
  O27      1.0000 0.75775  0.94635  0.21656  Biso   1.000  O
  O28      1.0000 0.67225  0.95691  0.28424  Biso   1.000  O
  O29      1.0000 0.34651  0.18865  0.59481  Biso   1.000  O
  O30      1.0000 0.27890  0.25256  0.64189  Biso   1.000  O
  O31      1.0000 0.29360  0.51283  0.35352  Biso   1.000  O
  O32      1.0000 0.21930  0.44839  0.39183  Biso   1.000  O
  O33      1.0000 0.72298  0.36723  0.15571  Biso   1.000  O
  O34      1.0000 0.70443  0.31291  0.24086  Biso   1.000  O
  O35      1.0000 0.36277  0.42896  0.24847  Biso   1.000  O
  O36      1.0000 0.34720  0.38377  0.34028  Biso   1.000  O
  O37      1.0000 0.30490  0.26386  0.83996  Biso   1.000  O
  O38      1.0000 0.22220  0.21058  0.88279  Biso   1.000  O
  O39      1.0000 0.27580  0.51584  0.15369  Biso   1.000  O
  O40      1.0000 0.34510  0.45755  0.10082  Biso   1.000  O
  N11      1.0000 0.95520  0.40275  0.15570  Biso   1.000  N
  N12      1.0000 0.25680  0.09700  0.24760  Biso   1.000  N
  N13      1.0000 0.11260  0.36128  0.33120  Biso   1.000  N
  N14      1.0000 0.73990  0.15956  0.23500  Biso   1.000  N
  N15      1.0000 0.25280  0.32090  0.41850  Biso   1.000  N
  N16      1.0000 0.25900  0.58780  0.57100  Biso   1.000  N
  N17      1.0000 0.45570  0.36176  0.15370  Biso   1.000  N
  N18      1.0000 0.61280  0.38330  0.33060  Biso   1.000  N
  N19      1.0000 0.31440  0.33607  0.06360  Biso   1.000  N
  N20      1.0000 0.19810  0.56410  0.92850  Biso   1.000  N
  C61      1.0000 0.98560  0.44560  0.19300  Biso   1.000  C
  C62      1.0000 0.05880  0.45210  0.20490  Biso   1.000  C
  C63      1.0000 0.00020  0.36670  0.12900  Biso   1.000  C
  C64      1.0000 0.07370  0.37170  0.13810  Biso   1.000  C
  C65      1.0000 0.10420  0.41390  0.17800  Biso   1.000  C
  C66      1.0000 0.18380  0.41690  0.19310  Biso   1.000  C
  C67      1.0000 0.29130  0.12160  0.20210  Biso   1.000  C
  C68      1.0000 0.30290  0.17970  0.19820  Biso   1.000  C
  C69      1.0000 0.23190  0.13280  0.29100  Biso   1.000  C
  C70      1.0000 0.23860  0.19150  0.28890  Biso   1.000  C
  C71      1.0000 0.27410  0.21620  0.24130  Biso   1.000  C
  C72      1.0000 0.28100  0.28070  0.23760  Biso   1.000  C
  C73      1.0000 0.08100  0.32060  0.29330  Biso   1.000  C
  C74      1.0000 0.00800  0.31490  0.28200  Biso   1.000  C
  C75      1.0000 0.06900  0.39620  0.36150  Biso   1.000  C
  C76      1.0000 0.99700  0.39210  0.35460  Biso   1.000  C
  C77      1.0000 0.96430  0.35190  0.31300  Biso   1.000  C
  C78      1.0000 0.88450  0.34820  0.29980  Biso   1.000  C
  C79      1.0000 0.70470  0.13550  0.28120  Biso   1.000  C
  C80      1.0000 0.69430  0.07660  0.28530  Biso   1.000  C
  C81      1.0000 0.76390  0.12390  0.19190  Biso   1.000  C
  C82      1.0000 0.75690  0.06570  0.19380  Biso   1.000  C
  C83      1.0000 0.72200  0.04060  0.24200  Biso   1.000  C
  C84      1.0000 0.71610  0.97570  0.24770  Biso   1.000  C
  C85      1.0000 0.30570  0.28200  0.42430  Biso   1.000  C
  C86      1.0000 0.32540  0.25230  0.47960  Biso   1.000  C
  C87      1.0000 0.21690  0.33010  0.46940  Biso   1.000  C
  C88      1.0000 0.23230  0.30250  0.52650  Biso   1.000  C
  C89      1.0000 0.28830  0.26290  0.53220  Biso   1.000  C
  C90      1.0000 0.30650  0.23220  0.59480  Biso   1.000  C
  C91      1.0000 0.30150  0.60350  0.52490  Biso   1.000  C
  C92      1.0000 0.30130  0.57480  0.46820  Biso   1.000  C
  C93      1.0000 0.21500  0.54160  0.55880  Biso   1.000  C
  C94      1.0000 0.21320  0.51100  0.50330  Biso   1.000  C
  C95      1.0000 0.25740  0.52700  0.45660  Biso   1.000  C
  C96      1.0000 0.25690  0.49350  0.39610  Biso   1.000  C
  C97      1.0000 0.50230  0.40010  0.13230  Biso   1.000  C
  C98      1.0000 0.57520  0.39400  0.14080  Biso   1.000  C
  C99      1.0000 0.48460  0.31430  0.18370  Biso   1.000  C
  C100     1.0000 0.55730  0.30660  0.19610  Biso   1.000  C
  C101     1.0000 0.60440  0.34730  0.17480  Biso   1.000  C
  C102     1.0000 0.68340  0.34210  0.19080  Biso   1.000  C
  C103     1.0000 0.56890  0.34650  0.35590  Biso   1.000  C
  C104     1.0000 0.49500  0.35240  0.34960  Biso   1.000  C
  C105     1.0000 0.58310  0.42840  0.29790  Biso   1.000  C
  C106     1.0000 0.51040  0.43670  0.28690  Biso   1.000  C
  C107     1.0000 0.46520  0.39780  0.31280  Biso   1.000  C
  C108     1.0000 0.34910  0.35000  0.01260  Biso   1.000  C
  C109     1.0000 0.33560  0.32340  0.95380  Biso   1.000  C
  C110     1.0000 0.26290  0.29490  0.05530  Biso   1.000  C
  C111     1.0000 0.24620  0.26700  0.99910  Biso   1.000  C
  C112     1.0000 0.28410  0.28050  0.94710  Biso   1.000  C
  C113     1.0000 0.26870  0.24900  0.88510  Biso   1.000  C
  C114     1.0000 0.17390  0.57740  0.98590  Biso   1.000  C
  C115     1.0000 0.20540  0.55680  0.04220  Biso   1.000  C
  C116     1.0000 0.25340  0.52770  0.92880  Biso   1.000  C
  C117     1.0000 0.28820  0.50550  0.98390  Biso   1.000  C
  C118     1.0000 0.26350  0.51950  0.04260  Biso   1.000  C
  C119     1.0000 0.29880  0.49520  0.10370  Biso   1.000  C
  C120     1.0000 0.39100  0.40390  0.30230  Biso   1.000  C
  Mn13     1.0000 0.83803  0.11862  0.65684  Biso   1.000  Mn
  Mn14     1.0000 0.73115  0.12162  0.83098  Biso   1.000  Mn
  Mn15     1.0000 0.79315  0.99380  0.75307  Biso   1.000  Mn
  Mn16     1.0000 0.29275  0.25064  0.74105  Biso   1.000  Mn
  Mn17     1.0000 0.33743  0.11769  0.65863  Biso   1.000  Mn
  Mn18     1.0000 0.23098  0.13210  0.83266  Biso   1.000  Mn
  O41      1.0000 0.72259  0.10459  0.65515  Biso   1.000  O
  O42      1.0000 0.70540  0.05886  0.74627  Biso   1.000  O
  O43      1.0000 0.73890  0.19073  0.76806  Biso   1.000  O
  O44      1.0000 0.82750  0.19939  0.70403  Biso   1.000  O
  O45      1.0000 0.34663  0.13557  0.84254  Biso   1.000  O
  O46      1.0000 0.36065  0.17196  0.74585  Biso   1.000  O
  O47      1.0000 0.25775  0.55365  0.71656  Biso   1.000  O
  O48      1.0000 0.17225  0.54309  0.78424  Biso   1.000  O
  O49      1.0000 0.84651  0.31135  0.09481  Biso   1.000  O
  O50      1.0000 0.77890  0.24744  0.14189  Biso   1.000  O
  O51      1.0000 0.79360  0.98717  0.85352  Biso   1.000  O
  O52      1.0000 0.71930  0.05161  0.89183  Biso   1.000  O
  O53      1.0000 0.22298  0.13277  0.65571  Biso   1.000  O
  O54      1.0000 0.20443  0.18709  0.74086  Biso   1.000  O
  O55      1.0000 0.86277  0.07104  0.74847  Biso   1.000  O
  O56      1.0000 0.84720  0.11623  0.84028  Biso   1.000  O
  O57      1.0000 0.80490  0.23614  0.33996  Biso   1.000  O
  O58      1.0000 0.72220  0.28942  0.38279  Biso   1.000  O
  O59      1.0000 0.77580  0.98416  0.65369  Biso   1.000  O
  O60      1.0000 0.84510  0.04245  0.60082  Biso   1.000  O
  N21      1.0000 0.45520  0.09725  0.65570  Biso   1.000  N
  N22      1.0000 0.75680  0.40300  0.74760  Biso   1.000  N
  N23      1.0000 0.61260  0.13872  0.83120  Biso   1.000  N
  N24      1.0000 0.23990  0.34044  0.73500  Biso   1.000  N
  N25      1.0000 0.75280  0.17910  0.91850  Biso   1.000  N
  N26      1.0000 0.75900  0.91220  0.07100  Biso   1.000  N
  N27      1.0000 0.95570  0.13824  0.65370  Biso   1.000  N
  N28      1.0000 0.11280  0.11670  0.83060  Biso   1.000  N
  N29      1.0000 0.81440  0.16393  0.56360  Biso   1.000  N
  N30      1.0000 0.69810  0.93590  0.42850  Biso   1.000  N
  C121     1.0000 0.48560  0.05440  0.69300  Biso   1.000  C
  C122     1.0000 0.55880  0.04790  0.70490  Biso   1.000  C
  C123     1.0000 0.50020  0.13330  0.62900  Biso   1.000  C
  C124     1.0000 0.57370  0.12830  0.63810  Biso   1.000  C
  C125     1.0000 0.60420  0.08610  0.67800  Biso   1.000  C
  C126     1.0000 0.68380  0.08310  0.69310  Biso   1.000  C
  C127     1.0000 0.79130  0.37840  0.70210  Biso   1.000  C
  C128     1.0000 0.80290  0.32030  0.69820  Biso   1.000  C
  C129     1.0000 0.73190  0.36720  0.79100  Biso   1.000  C
  C130     1.0000 0.73860  0.30850  0.78890  Biso   1.000  C
  C131     1.0000 0.77410  0.28380  0.74130  Biso   1.000  C
  C132     1.0000 0.78100  0.21930  0.73760  Biso   1.000  C
  C133     1.0000 0.58100  0.17940  0.79330  Biso   1.000  C
  C134     1.0000 0.50800  0.18510  0.78200  Biso   1.000  C
  C135     1.0000 0.56900  0.10380  0.86150  Biso   1.000  C
  C136     1.0000 0.49700  0.10790  0.85460  Biso   1.000  C
  C137     1.0000 0.46430  0.14810  0.81300  Biso   1.000  C
  C138     1.0000 0.38450  0.15180  0.79980  Biso   1.000  C
  C139     1.0000 0.20470  0.36450  0.78120  Biso   1.000  C
  C140     1.0000 0.19430  0.42340  0.78530  Biso   1.000  C
  C141     1.0000 0.26390  0.37610  0.69190  Biso   1.000  C
  C142     1.0000 0.25690  0.43430  0.69380  Biso   1.000  C
  C143     1.0000 0.22200  0.45940  0.74200  Biso   1.000  C
  C144     1.0000 0.21610  0.52430  0.74770  Biso   1.000  C
  C145     1.0000 0.80570  0.21800  0.92430  Biso   1.000  C
  C146     1.0000 0.82540  0.24770  0.97960  Biso   1.000  C
  C147     1.0000 0.71690  0.16990  0.96940  Biso   1.000  C
  C148     1.0000 0.73230  0.19750  0.02650  Biso   1.000  C
  C149     1.0000 0.78830  0.23710  0.03220  Biso   1.000  C
  C150     1.0000 0.80650  0.26780  0.09480  Biso   1.000  C
  C151     1.0000 0.80150  0.89650  0.02490  Biso   1.000  C
  C152     1.0000 0.80130  0.92520  0.96820  Biso   1.000  C
  C153     1.0000 0.71500  0.95840  0.05880  Biso   1.000  C
  C154     1.0000 0.71320  0.98900  0.00330  Biso   1.000  C
  C155     1.0000 0.75740  0.97300  0.95660  Biso   1.000  C
  C156     1.0000 0.75690  0.00650  0.89610  Biso   1.000  C
  C157     1.0000 0.00230  0.09990  0.63230  Biso   1.000  C
  C158     1.0000 0.07520  0.10600  0.64080  Biso   1.000  C
  C159     1.0000 0.98460  0.18570  0.68370  Biso   1.000  C
  C160     1.0000 0.05730  0.19340  0.69610  Biso   1.000  C
  C161     1.0000 0.10440  0.15270  0.67480  Biso   1.000  C
  C162     1.0000 0.18340  0.15790  0.69080  Biso   1.000  C
  C163     1.0000 0.06890  0.15350  0.85590  Biso   1.000  C
  C164     1.0000 0.99500  0.14760  0.84960  Biso   1.000  C
  C165     1.0000 0.08310  0.07160  0.79790  Biso   1.000  C
  C166     1.0000 0.01040  0.06330  0.78690  Biso   1.000  C
  C167     1.0000 0.96520  0.10220  0.81280  Biso   1.000  C
  C168     1.0000 0.84910  0.15000  0.51260  Biso   1.000  C
  C169     1.0000 0.83560  0.17660  0.45380  Biso   1.000  C
  C170     1.0000 0.76290  0.20510  0.55530  Biso   1.000  C
  C171     1.0000 0.74620  0.23300  0.49910  Biso   1.000  C
  C172     1.0000 0.78410  0.21950  0.44710  Biso   1.000  C
  C173     1.0000 0.76870  0.25100  0.38510  Biso   1.000  C
  C174     1.0000 0.67390  0.92260  0.48590  Biso   1.000  C
  C175     1.0000 0.70540  0.94320  0.54220  Biso   1.000  C
  C176     1.0000 0.75340  0.97230  0.42880  Biso   1.000  C
  C177     1.0000 0.78820  0.99450  0.48390  Biso   1.000  C
  C178     1.0000 0.76350  0.98050  0.54260  Biso   1.000  C
  C179     1.0000 0.79880  0.00480  0.60370  Biso   1.000  C
  C180     1.0000 0.89100  0.09610  0.80230  Biso   1.000  C
  Mn19     1.0000 0.66197  0.61862  0.84316  Biso   1.000  Mn
  Mn20     1.0000 0.76885  0.62162  0.66902  Biso   1.000  Mn
  Mn21     1.0000 0.70685  0.49380  0.74693  Biso   1.000  Mn
  Mn22     1.0000 0.20725  0.75064  0.75895  Biso   1.000  Mn
  Mn23     1.0000 0.16257  0.61769  0.84137  Biso   1.000  Mn
  Mn24     1.0000 0.26902  0.63210  0.66734  Biso   1.000  Mn
  O61      1.0000 0.77741  0.60459  0.84485  Biso   1.000  O
  O62      1.0000 0.79460  0.55886  0.75373  Biso   1.000  O
  O63      1.0000 0.76110  0.69073  0.73194  Biso   1.000  O
  O64      1.0000 0.67250  0.69939  0.79597  Biso   1.000  O
  O65      1.0000 0.15337  0.63557  0.65746  Biso   1.000  O
  O66      1.0000 0.13935  0.67196  0.75415  Biso   1.000  O
  O67      1.0000 0.24225  0.05365  0.78344  Biso   1.000  O
  O68      1.0000 0.32775  0.04309  0.71576  Biso   1.000  O
  O69      1.0000 0.65349  0.81135  0.40519  Biso   1.000  O
  O70      1.0000 0.72110  0.74744  0.35811  Biso   1.000  O
  O71      1.0000 0.70640  0.48717  0.64648  Biso   1.000  O
  O72      1.0000 0.78070  0.55161  0.60817  Biso   1.000  O
  O73      1.0000 0.27702  0.63277  0.84429  Biso   1.000  O
  O74      1.0000 0.29557  0.68709  0.75914  Biso   1.000  O
  O75      1.0000 0.63723  0.57104  0.75153  Biso   1.000  O
  O76      1.0000 0.65280  0.61623  0.65972  Biso   1.000  O
  O77      1.0000 0.69510  0.73614  0.16004  Biso   1.000  O
  O78      1.0000 0.77780  0.78942  0.11721  Biso   1.000  O
  O79      1.0000 0.72420  0.48416  0.84631  Biso   1.000  O
  O80      1.0000 0.65490  0.54245  0.89918  Biso   1.000  O
  N31      1.0000 0.04480  0.59725  0.84430  Biso   1.000  N
  N32      1.0000 0.74320  0.90300  0.75240  Biso   1.000  N
  N33      1.0000 0.88740  0.63872  0.66880  Biso   1.000  N
  N34      1.0000 0.26010  0.84044  0.76500  Biso   1.000  N
  N35      1.0000 0.74720  0.67910  0.58150  Biso   1.000  N
  N36      1.0000 0.74100  0.41220  0.42900  Biso   1.000  N
  N37      1.0000 0.54430  0.63824  0.84630  Biso   1.000  N
  N38      1.0000 0.38720  0.61670  0.66940  Biso   1.000  N
  N39      1.0000 0.68560  0.66393  0.93640  Biso   1.000  N
  N40      1.0000 0.80190  0.43590  0.07150  Biso   1.000  N
  C181     1.0000 0.01440  0.55440  0.80700  Biso   1.000  C
  C182     1.0000 0.94120  0.54790  0.79510  Biso   1.000  C
  C183     1.0000 0.99980  0.63330  0.87100  Biso   1.000  C
  C184     1.0000 0.92630  0.62830  0.86190  Biso   1.000  C
  C185     1.0000 0.89580  0.58610  0.82200  Biso   1.000  C
  C186     1.0000 0.81620  0.58310  0.80690  Biso   1.000  C
  C187     1.0000 0.70870  0.87840  0.79790  Biso   1.000  C
  C188     1.0000 0.69710  0.82030  0.80180  Biso   1.000  C
  C189     1.0000 0.76810  0.86720  0.70900  Biso   1.000  C
  C190     1.0000 0.76140  0.80850  0.71110  Biso   1.000  C
  C191     1.0000 0.72590  0.78380  0.75870  Biso   1.000  C
  C192     1.0000 0.71900  0.71930  0.76240  Biso   1.000  C
  C193     1.0000 0.91900  0.67940  0.70670  Biso   1.000  C
  C194     1.0000 0.99200  0.68510  0.71800  Biso   1.000  C
  C195     1.0000 0.93100  0.60380  0.63850  Biso   1.000  C
  C196     1.0000 0.00300  0.60790  0.64540  Biso   1.000  C
  C197     1.0000 0.03570  0.64810  0.68700  Biso   1.000  C
  C198     1.0000 0.11550  0.65180  0.70020  Biso   1.000  C
  C199     1.0000 0.29530  0.86450  0.71880  Biso   1.000  C
  C200     1.0000 0.30570  0.92340  0.71470  Biso   1.000  C
  C201     1.0000 0.23610  0.87610  0.80810  Biso   1.000  C
  C202     1.0000 0.24310  0.93430  0.80620  Biso   1.000  C
  C203     1.0000 0.27800  0.95940  0.75800  Biso   1.000  C
  C204     1.0000 0.28390  0.02430  0.75230  Biso   1.000  C
  C205     1.0000 0.69430  0.71800  0.57570  Biso   1.000  C
  C206     1.0000 0.67460  0.74770  0.52040  Biso   1.000  C
  C207     1.0000 0.78310  0.66990  0.53060  Biso   1.000  C
  C208     1.0000 0.76770  0.69750  0.47350  Biso   1.000  C
  C209     1.0000 0.71170  0.73710  0.46780  Biso   1.000  C
  C210     1.0000 0.69350  0.76780  0.40520  Biso   1.000  C
  C211     1.0000 0.69850  0.39650  0.47510  Biso   1.000  C
  C212     1.0000 0.69870  0.42520  0.53180  Biso   1.000  C
  C213     1.0000 0.78500  0.45840  0.44120  Biso   1.000  C
  C214     1.0000 0.78680  0.48900  0.49670  Biso   1.000  C
  C215     1.0000 0.74260  0.47300  0.54340  Biso   1.000  C
  C216     1.0000 0.74310  0.50650  0.60390  Biso   1.000  C
  C217     1.0000 0.49770  0.59990  0.86770  Biso   1.000  C
  C218     1.0000 0.42480  0.60600  0.85920  Biso   1.000  C
  C219     1.0000 0.51540  0.68570  0.81630  Biso   1.000  C
  C220     1.0000 0.44270  0.69340  0.80390  Biso   1.000  C
  C221     1.0000 0.39560  0.65270  0.82520  Biso   1.000  C
  C222     1.0000 0.31660  0.65790  0.80920  Biso   1.000  C
  C223     1.0000 0.43110  0.65350  0.64410  Biso   1.000  C
  C224     1.0000 0.50500  0.64760  0.65040  Biso   1.000  C
  C225     1.0000 0.41690  0.57160  0.70210  Biso   1.000  C
  C226     1.0000 0.48960  0.56330  0.71310  Biso   1.000  C
  C227     1.0000 0.53480  0.60220  0.68720  Biso   1.000  C
  C228     1.0000 0.65090  0.65000  0.98740  Biso   1.000  C
  C229     1.0000 0.66440  0.67660  0.04620  Biso   1.000  C
  C230     1.0000 0.73710  0.70510  0.94470  Biso   1.000  C
  C231     1.0000 0.75380  0.73300  0.00090  Biso   1.000  C
  C232     1.0000 0.71590  0.71950  0.05290  Biso   1.000  C
  C233     1.0000 0.73130  0.75100  0.11490  Biso   1.000  C
  C234     1.0000 0.82610  0.42260  0.01410  Biso   1.000  C
  C235     1.0000 0.79460  0.44320  0.95780  Biso   1.000  C
  C236     1.0000 0.74660  0.47230  0.07120  Biso   1.000  C
  C237     1.0000 0.71180  0.49450  0.01610  Biso   1.000  C
  C238     1.0000 0.73650  0.48050  0.95740  Biso   1.000  C
  C239     1.0000 0.70120  0.50480  0.89630  Biso   1.000  C
  C240     1.0000 0.60900  0.59610  0.69770  Biso   1.000  C
