data_image0
_cell_length_a       18.3171
_cell_length_b       8.7602
_cell_length_c       19.4272
_cell_angle_alpha    90
_cell_angle_beta     128.945
_cell_angle_gamma    90

_symmetry_space_group_name_H-M    "P 1"
_symmetry_int_tables_number       1

loop_
  _symmetry_equiv_pos_as_xyz
  'x, y, z'

loop_
  _atom_site_label
  _atom_site_occupancy
  _atom_site_fract_x
  _atom_site_fract_y
  _atom_site_fract_z
  _atom_site_thermal_displace_type
  _atom_site_B_iso_or_equiv
  _atom_site_type_symbol
  In1      1.0000 0.17404  0.47049  0.65943  Biso   1.000  In
  O1       1.0000 0.10930  0.30670  0.80180  Biso   1.000  O
  O2       1.0000 0.12330  0.27610  0.68090  Biso   1.000  O
  O3       1.0000 0.08040  0.05520  0.72830  Biso   1.000  O
  H1       1.0000 0.11610  0.97770  0.74630  Biso   1.000  H
  O4       1.0000 0.24470  0.15770  0.83420  Biso   1.000  O
  O5       1.0000 0.79780  0.83320  0.70990  Biso   1.000  O
  O6       1.0000 0.91110  0.65620  0.72170  Biso   1.000  O
  O7       1.0000 0.74740  0.66260  0.58210  Biso   1.000  O
  H2       1.0000 0.70600  0.73240  0.55860  Biso   1.000  H
  O8       1.0000 0.77700  0.54820  0.71350  Biso   1.000  O
  O9       1.0000 0.05130  0.61000  0.58710  Biso   1.000  O
  O10      1.0000 0.94390  0.76030  0.59940  Biso   1.000  O
  H3       1.0000 0.98150  0.76370  0.65560  Biso   1.000  H
  O11      1.0000 0.95150  0.47410  0.61620  Biso   1.000  O
  O12      1.0000 0.87520  0.60170  0.47000  Biso   1.000  O
  P1       1.0000 0.14210  0.20520  0.76183  Biso   1.000  P
  P2       1.0000 0.80973  0.67440  0.68527  Biso   1.000  P
  P3       1.0000 0.95745  0.60320  0.56851  Biso   1.000  P
  In2      1.0000 0.67404  0.97049  0.65943  Biso   1.000  In
  O13      1.0000 0.60930  0.80670  0.80180  Biso   1.000  O
  O14      1.0000 0.62330  0.77610  0.68090  Biso   1.000  O
  O15      1.0000 0.58040  0.55520  0.72830  Biso   1.000  O
  H4       1.0000 0.61610  0.47770  0.74630  Biso   1.000  H
  O16      1.0000 0.74470  0.65770  0.83420  Biso   1.000  O
  O17      1.0000 0.29780  0.33320  0.70990  Biso   1.000  O
  O18      1.0000 0.41110  0.15620  0.72170  Biso   1.000  O
  O19      1.0000 0.24740  0.16260  0.58210  Biso   1.000  O
  H5       1.0000 0.20600  0.23240  0.55860  Biso   1.000  H
  O20      1.0000 0.27700  0.04820  0.71350  Biso   1.000  O
  O21      1.0000 0.55130  0.11000  0.58710  Biso   1.000  O
  O22      1.0000 0.44390  0.26030  0.59940  Biso   1.000  O
  H6       1.0000 0.48150  0.26370  0.65560  Biso   1.000  H
  O23      1.0000 0.45150  0.97410  0.61620  Biso   1.000  O
  O24      1.0000 0.37520  0.10170  0.47000  Biso   1.000  O
  P4       1.0000 0.64210  0.70520  0.76183  Biso   1.000  P
  P5       1.0000 0.30973  0.17440  0.68527  Biso   1.000  P
  P6       1.0000 0.45745  0.10320  0.56851  Biso   1.000  P
  In3      1.0000 0.82596  0.47049  0.84057  Biso   1.000  In
  O25      1.0000 0.89070  0.30670  0.69820  Biso   1.000  O
  O26      1.0000 0.87670  0.27610  0.81910  Biso   1.000  O
  O27      1.0000 0.91960  0.05520  0.77170  Biso   1.000  O
  H7       1.0000 0.88390  0.97770  0.75370  Biso   1.000  H
  O28      1.0000 0.75530  0.15770  0.66580  Biso   1.000  O
  O29      1.0000 0.20220  0.83320  0.79010  Biso   1.000  O
  O30      1.0000 0.08890  0.65620  0.77830  Biso   1.000  O
  O31      1.0000 0.25260  0.66260  0.91790  Biso   1.000  O
  H8       1.0000 0.29400  0.73240  0.94140  Biso   1.000  H
  O32      1.0000 0.22300  0.54820  0.78650  Biso   1.000  O
  O33      1.0000 0.94870  0.61000  0.91290  Biso   1.000  O
  O34      1.0000 0.05610  0.76030  0.90060  Biso   1.000  O
  H9       1.0000 0.01850  0.76370  0.84440  Biso   1.000  H
  O35      1.0000 0.04850  0.47410  0.88380  Biso   1.000  O
  O36      1.0000 0.12480  0.60170  0.03000  Biso   1.000  O
  P7       1.0000 0.85790  0.20520  0.73817  Biso   1.000  P
  P8       1.0000 0.19027  0.67440  0.81473  Biso   1.000  P
  P9       1.0000 0.04255  0.60320  0.93149  Biso   1.000  P
  In4      1.0000 0.32596  0.97049  0.84057  Biso   1.000  In
  O37      1.0000 0.39070  0.80670  0.69820  Biso   1.000  O
  O38      1.0000 0.37670  0.77610  0.81910  Biso   1.000  O
  O39      1.0000 0.41960  0.55520  0.77170  Biso   1.000  O
  H10      1.0000 0.38390  0.47770  0.75370  Biso   1.000  H
  O40      1.0000 0.25530  0.65770  0.66580  Biso   1.000  O
  O41      1.0000 0.70220  0.33320  0.79010  Biso   1.000  O
  O42      1.0000 0.58890  0.15620  0.77830  Biso   1.000  O
  O43      1.0000 0.75260  0.16260  0.91790  Biso   1.000  O
  H11      1.0000 0.79400  0.23240  0.94140  Biso   1.000  H
  O44      1.0000 0.72300  0.04820  0.78650  Biso   1.000  O
  O45      1.0000 0.44870  0.11000  0.91290  Biso   1.000  O
  O46      1.0000 0.55610  0.26030  0.90060  Biso   1.000  O
  H12      1.0000 0.51850  0.26370  0.84440  Biso   1.000  H
  O47      1.0000 0.54850  0.97410  0.88380  Biso   1.000  O
  O48      1.0000 0.62480  0.10170  0.03000  Biso   1.000  O
  P10      1.0000 0.35790  0.70520  0.73817  Biso   1.000  P
  P11      1.0000 0.69027  0.17440  0.81473  Biso   1.000  P
  P12      1.0000 0.54255  0.10320  0.93149  Biso   1.000  P
  In5      1.0000 0.82596  0.52951  0.34057  Biso   1.000  In
  O49      1.0000 0.89070  0.69330  0.19820  Biso   1.000  O
  O50      1.0000 0.87670  0.72390  0.31910  Biso   1.000  O
  O51      1.0000 0.91960  0.94480  0.27170  Biso   1.000  O
  H13      1.0000 0.88390  0.02230  0.25370  Biso   1.000  H
  O52      1.0000 0.75530  0.84230  0.16580  Biso   1.000  O
  O53      1.0000 0.20220  0.16680  0.29010  Biso   1.000  O
  O54      1.0000 0.08890  0.34380  0.27830  Biso   1.000  O
  O55      1.0000 0.25260  0.33740  0.41790  Biso   1.000  O
  H14      1.0000 0.29400  0.26760  0.44140  Biso   1.000  H
  O56      1.0000 0.22300  0.45180  0.28650  Biso   1.000  O
  O57      1.0000 0.94870  0.39000  0.41290  Biso   1.000  O
  O58      1.0000 0.05610  0.23970  0.40060  Biso   1.000  O
  H15      1.0000 0.01850  0.23630  0.34440  Biso   1.000  H
  O59      1.0000 0.04850  0.52590  0.38380  Biso   1.000  O
  O60      1.0000 0.12480  0.39830  0.53000  Biso   1.000  O
  P13      1.0000 0.85790  0.79480  0.23817  Biso   1.000  P
  P14      1.0000 0.19027  0.32560  0.31473  Biso   1.000  P
  P15      1.0000 0.04255  0.39680  0.43149  Biso   1.000  P
  In6      1.0000 0.32596  0.02951  0.34057  Biso   1.000  In
  O61      1.0000 0.39070  0.19330  0.19820  Biso   1.000  O
  O62      1.0000 0.37670  0.22390  0.31910  Biso   1.000  O
  O63      1.0000 0.41960  0.44480  0.27170  Biso   1.000  O
  H16      1.0000 0.38390  0.52230  0.25370  Biso   1.000  H
  O64      1.0000 0.25530  0.34230  0.16580  Biso   1.000  O
  O65      1.0000 0.70220  0.66680  0.29010  Biso   1.000  O
  O66      1.0000 0.58890  0.84380  0.27830  Biso   1.000  O
  O67      1.0000 0.75260  0.83740  0.41790  Biso   1.000  O
  H17      1.0000 0.79400  0.76760  0.44140  Biso   1.000  H
  O68      1.0000 0.72300  0.95180  0.28650  Biso   1.000  O
  O69      1.0000 0.44870  0.89000  0.41290  Biso   1.000  O
  O70      1.0000 0.55610  0.73970  0.40060  Biso   1.000  O
  H18      1.0000 0.51850  0.73630  0.34440  Biso   1.000  H
  O71      1.0000 0.54850  0.02590  0.38380  Biso   1.000  O
  O72      1.0000 0.62480  0.89830  0.53000  Biso   1.000  O
  P16      1.0000 0.35790  0.29480  0.23817  Biso   1.000  P
  P17      1.0000 0.69027  0.82560  0.31473  Biso   1.000  P
  P18      1.0000 0.54255  0.89680  0.43149  Biso   1.000  P
  In7      1.0000 0.17404  0.52951  0.15943  Biso   1.000  In
  O73      1.0000 0.10930  0.69330  0.30180  Biso   1.000  O
  O74      1.0000 0.12330  0.72390  0.18090  Biso   1.000  O
  O75      1.0000 0.08040  0.94480  0.22830  Biso   1.000  O
  H19      1.0000 0.11610  0.02230  0.24630  Biso   1.000  H
  O76      1.0000 0.24470  0.84230  0.33420  Biso   1.000  O
  O77      1.0000 0.79780  0.16680  0.20990  Biso   1.000  O
  O78      1.0000 0.91110  0.34380  0.22170  Biso   1.000  O
  O79      1.0000 0.74740  0.33740  0.08210  Biso   1.000  O
  H20      1.0000 0.70600  0.26760  0.05860  Biso   1.000  H
  O80      1.0000 0.77700  0.45180  0.21350  Biso   1.000  O
  O81      1.0000 0.05130  0.39000  0.08710  Biso   1.000  O
  O82      1.0000 0.94390  0.23970  0.09940  Biso   1.000  O
  H21      1.0000 0.98150  0.23630  0.15560  Biso   1.000  H
  O83      1.0000 0.95150  0.52590  0.11620  Biso   1.000  O
  O84      1.0000 0.87520  0.39830  0.97000  Biso   1.000  O
  P19      1.0000 0.14210  0.79480  0.26183  Biso   1.000  P
  P20      1.0000 0.80973  0.32560  0.18527  Biso   1.000  P
  P21      1.0000 0.95745  0.39680  0.06851  Biso   1.000  P
  In8      1.0000 0.67404  0.02951  0.15943  Biso   1.000  In
  O85      1.0000 0.60930  0.19330  0.30180  Biso   1.000  O
  O86      1.0000 0.62330  0.22390  0.18090  Biso   1.000  O
  O87      1.0000 0.58040  0.44480  0.22830  Biso   1.000  O
  H22      1.0000 0.61610  0.52230  0.24630  Biso   1.000  H
  O88      1.0000 0.74470  0.34230  0.33420  Biso   1.000  O
  O89      1.0000 0.29780  0.66680  0.20990  Biso   1.000  O
  O90      1.0000 0.41110  0.84380  0.22170  Biso   1.000  O
  O91      1.0000 0.24740  0.83740  0.08210  Biso   1.000  O
  H23      1.0000 0.20600  0.76760  0.05860  Biso   1.000  H
  O92      1.0000 0.27700  0.95180  0.21350  Biso   1.000  O
  O93      1.0000 0.55130  0.89000  0.08710  Biso   1.000  O
  O94      1.0000 0.44390  0.73970  0.09940  Biso   1.000  O
  H24      1.0000 0.48150  0.73630  0.15560  Biso   1.000  H
  O95      1.0000 0.45150  0.02590  0.11620  Biso   1.000  O
  O96      1.0000 0.37520  0.89830  0.97000  Biso   1.000  O
  P22      1.0000 0.64210  0.29480  0.26183  Biso   1.000  P
  P23      1.0000 0.30973  0.82560  0.18527  Biso   1.000  P
  P24      1.0000 0.45745  0.89680  0.06851  Biso   1.000  P
  In9      1.0000 0.00000  0.46468  0.75000  Biso   1.000  In
  In10     1.0000 0.50000  0.96468  0.75000  Biso   1.000  In
  In11     1.0000 0.00000  0.53532  0.25000  Biso   1.000  In
  In12     1.0000 0.50000  0.03532  0.25000  Biso   1.000  In
