data_image0
_cell_length_a       7.2389
_cell_length_b       22.164
_cell_length_c       10.633
_cell_angle_alpha    90
_cell_angle_beta     90.8
_cell_angle_gamma    90

_symmetry_space_group_name_H-M    "P 1"
_symmetry_int_tables_number       1

loop_
  _symmetry_equiv_pos_as_xyz
  'x, y, z'

loop_
  _atom_site_label
  _atom_site_occupancy
  _atom_site_fract_x
  _atom_site_fract_y
  _atom_site_fract_z
  _atom_site_thermal_displace_type
  _atom_site_B_iso_or_equiv
  _atom_site_type_symbol
  Ho1      1.0000 0.26317  0.25037  0.84882  Biso   1.000  Ho
  Sb1      1.0000 0.45267  0.99257  0.13905  Biso   1.000  Sb
  Sb2      1.0000 0.57508  0.48219  0.59598  Biso   1.000  Sb
  N1       1.0000 0.19010  0.05100  0.12990  Biso   1.000  N
  N2       1.0000 0.21990  0.92270  0.16660  Biso   1.000  N
  N3       1.0000 0.80850  0.41190  0.63260  Biso   1.000  N
  N4       1.0000 0.83930  0.54130  0.59450  Biso   1.000  N
  O1       1.0000 0.37080  0.01190  0.33580  Biso   1.000  O
  O2       1.0000 0.25660  0.08390  0.45890  Biso   1.000  O
  O3       1.0000 0.51230  0.08880  0.03720  Biso   1.000  O
  O4       1.0000 0.38200  0.15950  0.91650  Biso   1.000  O
  O5       1.0000 0.57320  0.88740  0.18930  Biso   1.000  O
  O6       1.0000 0.50270  0.80340  0.29660  Biso   1.000  O
  O7       1.0000 0.36150  0.97290  0.95400  Biso   1.000  O
  O8       1.0000 0.22000  0.90780  0.82530  Biso   1.000  O
  O9       1.0000 0.45280  0.37760  0.65490  Biso   1.000  O
  O10      1.0000 0.52210  0.30120  0.78450  Biso   1.000  O
  O11      1.0000 0.68000  0.46260  0.41420  Biso   1.000  O
  O12      1.0000 0.82480  0.39700  0.29190  Biso   1.000  O
  O13      1.0000 0.64810  0.50130  0.79460  Biso   1.000  O
  O14      1.0000 0.76850  0.57010  0.92410  Biso   1.000  O
  O15      1.0000 0.51710  0.57930  0.49500  Biso   1.000  O
  O16      1.0000 0.64560  0.65550  0.39270  Biso   1.000  O
  C1       1.0000 0.19680  0.09160  0.24140  Biso   1.000  C
  H1       1.0000 0.27150  0.12770  0.22150  Biso   1.000  H
  H2       1.0000 0.07010  0.10530  0.26070  Biso   1.000  H
  C2       1.0000 0.27880  0.06070  0.35480  Biso   1.000  C
  C3       1.0000 0.18560  0.08810  0.01230  Biso   1.000  C
  H3       1.0000 0.09420  0.12100  0.02100  Biso   1.000  H
  H4       1.0000 0.14680  0.06260  0.94030  Biso   1.000  H
  C4       1.0000 0.37190  0.11450  0.98770  Biso   1.000  C
  C5       1.0000 0.02830  0.00900  0.12850  Biso   1.000  C
  H5       1.0000 0.00500  0.99560  0.04090  Biso   1.000  H
  H6       1.0000 0.91790  0.03150  0.15600  Biso   1.000  H
  C6       1.0000 0.05010  0.95520  0.20860  Biso   1.000  C
  H7       1.0000 0.06350  0.96720  0.29800  Biso   1.000  H
  H8       1.0000 0.94060  0.92870  0.19980  Biso   1.000  H
  C7       1.0000 0.26870  0.87790  0.26610  Biso   1.000  C
  H9       1.0000 0.26130  0.89730  0.34980  Biso   1.000  H
  H10      1.0000 0.17940  0.84410  0.26340  Biso   1.000  H
  C8       1.0000 0.46340  0.85370  0.24700  Biso   1.000  C
  C9       1.0000 0.19090  0.89090  0.04400  Biso   1.000  C
  H11      1.0000 0.25460  0.85140  0.04790  Biso   1.000  H
  H12      1.0000 0.05720  0.88300  0.03200  Biso   1.000  H
  C10      1.0000 0.25950  0.92520  0.93190  Biso   1.000  C
  C11      1.0000 0.75990  0.36890  0.73340  Biso   1.000  C
  H13      1.0000 0.77900  0.38860  0.81610  Biso   1.000  H
  H14      1.0000 0.84350  0.33360  0.72970  Biso   1.000  H
  C12      1.0000 0.56240  0.34750  0.72260  Biso   1.000  C
  C13      1.0000 0.83520  0.37910  0.51310  Biso   1.000  C
  H15      1.0000 0.76210  0.34140  0.51510  Biso   1.000  H
  H16      1.0000 0.96700  0.36780  0.50680  Biso   1.000  H
  C14      1.0000 0.77960  0.41480  0.39560  Biso   1.000  C
  C15      1.0000 0.97700  0.44660  0.67120  Biso   1.000  C
  H17      1.0000 0.96630  0.45840  0.76060  Biso   1.000  H
  H18      1.0000 0.08670  0.42020  0.66390  Biso   1.000  H
  C16      1.0000 0.00490  0.50180  0.59370  Biso   1.000  C
  H19      1.0000 0.11280  0.52440  0.62690  Biso   1.000  H
  H20      1.0000 0.03150  0.48980  0.50600  Biso   1.000  H
  C17      1.0000 0.83720  0.58010  0.70890  Biso   1.000  C
  H21      1.0000 0.76830  0.61760  0.68970  Biso   1.000  H
  H22      1.0000 0.96560  0.59140  0.73200  Biso   1.000  H
  C18      1.0000 0.74910  0.54880  0.81920  Biso   1.000  C
  C19      1.0000 0.84650  0.58040  0.48310  Biso   1.000  C
  H23      1.0000 0.88610  0.55650  0.40950  Biso   1.000  H
  H24      1.0000 0.93810  0.61290  0.49750  Biso   1.000  H
  C20      1.0000 0.65480  0.60830  0.45570  Biso   1.000  C
  Ho2      1.0000 0.76317  0.74963  0.34882  Biso   1.000  Ho
  Sb3      1.0000 0.95267  0.00743  0.63905  Biso   1.000  Sb
  Sb4      1.0000 0.07508  0.51780  0.09598  Biso   1.000  Sb
  N5       1.0000 0.69010  0.94900  0.62990  Biso   1.000  N
  N6       1.0000 0.71990  0.07730  0.66660  Biso   1.000  N
  N7       1.0000 0.30850  0.58810  0.13260  Biso   1.000  N
  N8       1.0000 0.33930  0.45870  0.09450  Biso   1.000  N
  O17      1.0000 0.87080  0.98810  0.83580  Biso   1.000  O
  O18      1.0000 0.75660  0.91610  0.95890  Biso   1.000  O
  O19      1.0000 0.01230  0.91120  0.53720  Biso   1.000  O
  O20      1.0000 0.88200  0.84050  0.41650  Biso   1.000  O
  O21      1.0000 0.07320  0.11260  0.68930  Biso   1.000  O
  O22      1.0000 0.00270  0.19660  0.79660  Biso   1.000  O
  O23      1.0000 0.86150  0.02710  0.45400  Biso   1.000  O
  O24      1.0000 0.72000  0.09220  0.32530  Biso   1.000  O
  O25      1.0000 0.95280  0.62240  0.15490  Biso   1.000  O
  O26      1.0000 0.02210  0.69880  0.28450  Biso   1.000  O
  O27      1.0000 0.18000  0.53740  0.91420  Biso   1.000  O
  O28      1.0000 0.32480  0.60300  0.79190  Biso   1.000  O
  O29      1.0000 0.14810  0.49870  0.29460  Biso   1.000  O
  O30      1.0000 0.26850  0.42990  0.42410  Biso   1.000  O
  O31      1.0000 0.01710  0.42070  0.99500  Biso   1.000  O
  O32      1.0000 0.14560  0.34450  0.89270  Biso   1.000  O
  C21      1.0000 0.69680  0.90840  0.74140  Biso   1.000  C
  H25      1.0000 0.77150  0.87230  0.72150  Biso   1.000  H
  H26      1.0000 0.57010  0.89470  0.76070  Biso   1.000  H
  C22      1.0000 0.77880  0.93930  0.85480  Biso   1.000  C
  C23      1.0000 0.68560  0.91190  0.51230  Biso   1.000  C
  H27      1.0000 0.59420  0.87900  0.52100  Biso   1.000  H
  H28      1.0000 0.64680  0.93740  0.44030  Biso   1.000  H
  C24      1.0000 0.87190  0.88550  0.48770  Biso   1.000  C
  C25      1.0000 0.52830  0.99100  0.62850  Biso   1.000  C
  H29      1.0000 0.50500  0.00440  0.54090  Biso   1.000  H
  H30      1.0000 0.41790  0.96850  0.65600  Biso   1.000  H
  C26      1.0000 0.55010  0.04480  0.70860  Biso   1.000  C
  H31      1.0000 0.56350  0.03280  0.79800  Biso   1.000  H
  H32      1.0000 0.44060  0.07130  0.69980  Biso   1.000  H
  C27      1.0000 0.76870  0.12210  0.76610  Biso   1.000  C
  H33      1.0000 0.76130  0.10270  0.84980  Biso   1.000  H
  H34      1.0000 0.67940  0.15590  0.76340  Biso   1.000  H
  C28      1.0000 0.96340  0.14630  0.74700  Biso   1.000  C
  C29      1.0000 0.69090  0.10910  0.54400  Biso   1.000  C
  H35      1.0000 0.75460  0.14860  0.54790  Biso   1.000  H
  H36      1.0000 0.55720  0.11700  0.53200  Biso   1.000  H
  C30      1.0000 0.75950  0.07480  0.43190  Biso   1.000  C
  C31      1.0000 0.25990  0.63110  0.23340  Biso   1.000  C
  H37      1.0000 0.27900  0.61140  0.31610  Biso   1.000  H
  H38      1.0000 0.34350  0.66640  0.22970  Biso   1.000  H
  C32      1.0000 0.06240  0.65250  0.22260  Biso   1.000  C
  C33      1.0000 0.33520  0.62090  0.01310  Biso   1.000  C
  H39      1.0000 0.26210  0.65860  0.01510  Biso   1.000  H
  H40      1.0000 0.46700  0.63220  0.00680  Biso   1.000  H
  C34      1.0000 0.27960  0.58520  0.89560  Biso   1.000  C
  C35      1.0000 0.47700  0.55340  0.17120  Biso   1.000  C
  H41      1.0000 0.46630  0.54160  0.26060  Biso   1.000  H
  H42      1.0000 0.58670  0.57980  0.16390  Biso   1.000  H
  C36      1.0000 0.50490  0.49820  0.09370  Biso   1.000  C
  H43      1.0000 0.61280  0.47560  0.12690  Biso   1.000  H
  H44      1.0000 0.53150  0.51020  0.00600  Biso   1.000  H
  C37      1.0000 0.33720  0.41990  0.20890  Biso   1.000  C
  H45      1.0000 0.26830  0.38240  0.18970  Biso   1.000  H
  H46      1.0000 0.46560  0.40860  0.23200  Biso   1.000  H
  C38      1.0000 0.24910  0.45120  0.31920  Biso   1.000  C
  C39      1.0000 0.34650  0.41960  0.98310  Biso   1.000  C
  H47      1.0000 0.38610  0.44350  0.90950  Biso   1.000  H
  H48      1.0000 0.43810  0.38710  0.99750  Biso   1.000  H
  C40      1.0000 0.15480  0.39170  0.95570  Biso   1.000  C
