data_YAQZEX_ion_b
_audit_creation_date              2014-07-02
_audit_creation_method            'Materials Studio'
_symmetry_space_group_name_H-M    'P1'
_symmetry_Int_Tables_number       1
_symmetry_cell_setting            triclinic
loop_
_symmetry_equiv_pos_as_xyz
  x,y,z
_cell_length_a                    13.1980
_cell_length_b                    14.8520
_cell_length_c                    23.4070
_cell_angle_alpha                 90.0000
_cell_angle_beta                  90.0000
_cell_angle_gamma                 90.0000
loop_
_atom_site_label
_atom_site_type_symbol
_atom_site_fract_x
_atom_site_fract_y
_atom_site_fract_z
_atom_site_U_iso_or_equiv
_atom_site_adp_type
_atom_site_occupancy
U1     U     0.32341   0.20023   0.19747   0.00000  Uiso   1.00
U2     U     0.00131   0.18899   0.18708   0.00000  Uiso   1.00
U3     U     0.18650   0.31653   0.31263   0.00000  Uiso   1.00
O4     O     0.15594   0.24989   0.22553   0.00000  Uiso   1.00
O5     O     0.03049   0.88277   0.13048   0.00000  Uiso   1.00
O6     O     0.62927   0.12567   0.12532   0.00000  Uiso   1.00
O7     O     0.13125   0.09796   0.15920   0.00000  Uiso   1.00
O8     O     0.18395   0.85457   0.16167   0.00000  Uiso   1.00
O9     O     0.50524   0.19493   0.22213   0.00000  Uiso   1.00
O10    O     0.34904   0.33775   0.16365   0.00000  Uiso   1.00
O11    O     0.29722   0.06366   0.23014   0.00000  Uiso   1.00
O12    O     0.03112   0.28604   0.11705   0.00000  Uiso   1.00
O13    O     0.24853   0.42506   0.25855   0.00000  Uiso   1.00
O14    O     0.97072   0.09425   0.25732   0.00000  Uiso   1.00
O15    O     0.26811   0.15103   0.11461   0.00000  Uiso   1.00
O16    O     0.47938   0.15435   0.16206   0.00000  Uiso   1.00
O17    O     0.33697   0.23647   0.29096   0.00000  Uiso   1.00
O18    O     0.12838   0.20479   0.36624   0.00000  Uiso   1.00
C19    C     0.18691   0.10334   0.11363   0.00000  Uiso   1.00
C20    C     0.53164   0.11477   0.12007   0.00000  Uiso   1.00
C21    C     0.49407   0.05982   0.06562   0.00000  Uiso   1.00
C22    C     0.17053   0.04368   0.06204   0.00000  Uiso   1.00
C23    C     0.15659   0.94684   0.06577   0.00000  Uiso   1.00
C24    C     0.12684   0.89369   0.12195   0.00000  Uiso   1.00
N25    N     0.31444   0.04804   0.39018   0.00000  Uiso   1.00
U26    U     0.65796   0.81706   0.19044   0.00000  Uiso   1.00
U27    U     0.98582   0.80757   0.20979   0.00000  Uiso   1.00
U28    U     0.80747   0.72484   0.30814   0.00000  Uiso   1.00
O29    O     0.81511   0.82451   0.23849   0.00000  Uiso   1.00
O30    O     0.90967   0.10740   0.12257   0.00000  Uiso   1.00
O31    O     0.39728   0.92324   0.14710   0.00000  Uiso   1.00
O32    O     0.92842   0.88193   0.12717   0.00000  Uiso   1.00
O33    O     0.73360   0.12985   0.11908   0.00000  Uiso   1.00
O34    O     0.50469   0.79294   0.24422   0.00000  Uiso   1.00
O35    O     0.67672   0.67534   0.16276   0.00000  Uiso   1.00
O36    O     0.63543   0.95802   0.21665   0.00000  Uiso   1.00
O37    O     0.95162   0.68126   0.16313   0.00000  Uiso   1.00
O38    O     0.80250   0.61374   0.24580   0.00000  Uiso   1.00
O39    O     0.02304   0.93133   0.25702   0.00000  Uiso   1.00
O40    O     0.75145   0.86618   0.11579   0.00000  Uiso   1.00
O41    O     0.52773   0.83385   0.12858   0.00000  Uiso   1.00
O42    O     0.63474   0.76339   0.28301   0.00000  Uiso   1.00
O43    O     0.81178   0.83740   0.37031   0.00000  Uiso   1.00
C44    C     0.84064   0.89311   0.09911   0.00000  Uiso   1.00
C45    C     0.47827   0.90763   0.11846   0.00000  Uiso   1.00
C46    C     0.49556   0.96247   0.06447   0.00000  Uiso   1.00
C47    C     0.83740   0.94602   0.04209   0.00000  Uiso   1.00
C48    C     0.82052   0.04152   0.04222   0.00000  Uiso   1.00
C49    C     0.82060   0.09707   0.09888   0.00000  Uiso   1.00
N50    N     0.59686   0.95546   0.37464   0.00000  Uiso   1.00
U51    U     0.16943   0.69196   0.30620   0.00000  Uiso   1.00
U52    U     0.48851   0.67672   0.30876   0.00000  Uiso   1.00
U53    U     0.33698   0.81681   0.20394   0.00000  Uiso   1.00
O54    O     0.32953   0.69948   0.26402   0.00000  Uiso   1.00
O55    O     0.45561   0.36393   0.38069   0.00000  Uiso   1.00
O56    O     0.86723   0.63807   0.38169   0.00000  Uiso   1.00
O57    O     0.39235   0.57418   0.35708   0.00000  Uiso   1.00
O58    O     0.27794   0.36718   0.38647   0.00000  Uiso   1.00
O59    O     0.98912   0.73222   0.29389   0.00000  Uiso   1.00
O60    O     0.19299   0.82223   0.35040   0.00000  Uiso   1.00
O61    O     0.14066   0.56360   0.26210   0.00000  Uiso   1.00
O62    O     0.44975   0.77653   0.37571   0.00000  Uiso   1.00
O63    O     0.31199   0.91150   0.27529   0.00000  Uiso   1.00
O64    O     0.52766   0.57792   0.24153   0.00000  Uiso   1.00
O65    O     0.23545   0.62294   0.38625   0.00000  Uiso   1.00
O66    O     0.01490   0.67315   0.34777   0.00000  Uiso   1.00
O67    O     0.16116   0.76327   0.21839   0.00000  Uiso   1.00
O68    O     0.36209   0.71771   0.13437   0.00000  Uiso   1.00
C69    C     0.32272   0.58268   0.39630   0.00000  Uiso   1.00
C70    C     0.96464   0.63164   0.38889   0.00000  Uiso   1.00
C71    C     0.00495   0.57762   0.44307   0.00000  Uiso   1.00
C72    C     0.34077   0.53403   0.45493   0.00000  Uiso   1.00
C73    C     0.36779   0.44073   0.45937   0.00000  Uiso   1.00
C74    C     0.36812   0.38462   0.40535   0.00000  Uiso   1.00
N75    N     0.14812   0.52179   0.12065   0.00000  Uiso   1.00
U76    U     0.86599   0.31821   0.29861   0.00000  Uiso   1.00
U77    U     0.50602   0.28371   0.30112   0.00000  Uiso   1.00
U78    U     0.68292   0.21425   0.19810   0.00000  Uiso   1.00
O79    O     0.68308   0.30359   0.27686   0.00000  Uiso   1.00
O80    O     0.59523   0.60614   0.36991   0.00000  Uiso   1.00
O81    O     0.07167   0.42153   0.34644   0.00000  Uiso   1.00
O82    O     0.55697   0.36713   0.37622   0.00000  Uiso   1.00
O83    O     0.76842   0.62478   0.37521   0.00000  Uiso   1.00
O84    O     0.03339   0.29293   0.25885   0.00000  Uiso   1.00
O85    O     0.86369   0.18143   0.33637   0.00000  Uiso   1.00
O86    O     0.86900   0.45465   0.26202   0.00000  Uiso   1.00
O87    O     0.54033   0.16309   0.35339   0.00000  Uiso   1.00
O88    O     0.72314   0.09916   0.25351   0.00000  Uiso   1.00
O89    O     0.47229   0.40416   0.24914   0.00000  Uiso   1.00
O90    O     0.70831   0.34692   0.33869   0.00000  Uiso   1.00
O91    O     0.92148   0.37607   0.38153   0.00000  Uiso   1.00
O92    O     0.84953   0.26680   0.20737   0.00000  Uiso   1.00
O93    O     0.64513   0.33184   0.14373   0.00000  Uiso   1.00
C94    C     0.65388   0.38031   0.38189   0.00000  Uiso   1.00
C95    C     0.00521   0.42032   0.38778   0.00000  Uiso   1.00
C96    C     1.01703   0.48026   0.44216   0.00000  Uiso   1.00
C97    C     0.68795   0.43098   0.43816   0.00000  Uiso   1.00
C98    C     0.69095   0.52768   0.44184   0.00000  Uiso   1.00
C99    C     0.68372   0.58824   0.39086   0.00000  Uiso   1.00
N100   N     0.84002   0.47298   0.11020   0.00000  Uiso   1.00
U101   U     0.64955   0.81319   0.80205   0.00000  Uiso   1.00
U102   U     1.00903   0.78910   0.79879   0.00000  Uiso   1.00
U103   U     0.83186   0.71591   0.69836   0.00000  Uiso   1.00
O104   O     0.83151   0.80759   0.77579   0.00000  Uiso   1.00
O105   O     0.96077   0.10848   0.87404   0.00000  Uiso   1.00
O106   O     0.44520   0.90959   0.85579   0.00000  Uiso   1.00
O107   O     0.96020   0.87668   0.87170   0.00000  Uiso   1.00
O108   O     0.81247   0.14260   0.84323   0.00000  Uiso   1.00
O109   O     0.48240   0.78730   0.76235   0.00000  Uiso   1.00
O110   O     0.66218   0.67464   0.83638   0.00000  Uiso   1.00
O111   O     0.63625   0.95026   0.77029   0.00000  Uiso   1.00
O112   O     0.97500   0.67081   0.85328   0.00000  Uiso   1.00
O113   O     0.79987   0.60205   0.75620   0.00000  Uiso   1.00
O114   O     0.04192   0.90789   0.74474   0.00000  Uiso   1.00
O115   O     0.80837   0.84848   0.83739   0.00000  Uiso   1.00
O116   O     0.59465   0.86048   0.88871   0.00000  Uiso   1.00
O117   O     0.66438   0.76592   0.70955   0.00000  Uiso   1.00
O118   O     0.86317   0.83273   0.64204   0.00000  Uiso   1.00
C119   C     0.86344   0.88850   0.87775   0.00000  Uiso   1.00
C120   C     0.50919   0.90103   0.89805   0.00000  Uiso   1.00
C121   C     0.49694   0.95699   0.95496   0.00000  Uiso   1.00
C122   C     0.83044   0.94354   0.93171   0.00000  Uiso   1.00
C123   C     0.82701   0.04133   0.93219   0.00000  Uiso   1.00
C124   C     0.86498   0.09765   0.88070   0.00000  Uiso   1.00
N125   N     0.63626   0.96815   0.61923   0.00000  Uiso   1.00
U126   U     0.33654   0.19982   0.79874   0.00000  Uiso   1.00
U127   U    -0.00037   0.20602   0.80426   0.00000  Uiso   1.00
U128   U     0.16599   0.30178   0.70014   0.00000  Uiso   1.00
O129   O     0.16646   0.19474   0.76784   0.00000  Uiso   1.00
O130   O     0.06014   0.87337   0.87645   0.00000  Uiso   1.00
O131   O     0.57458   0.10817   0.87236   0.00000  Uiso   1.00
O132   O     0.08023   0.11631   0.87233   0.00000  Uiso   1.00
O133   O     0.23677   0.86629   0.88724   0.00000  Uiso   1.00
O134   O     0.50288   0.25144   0.78583   0.00000  Uiso   1.00
O135   O     0.30439   0.32747   0.84428   0.00000  Uiso   1.00
O136   O     0.37424   0.07389   0.75363   0.00000  Uiso   1.00
O137   O     0.02822   0.31885   0.86416   0.00000  Uiso   1.00
O138   O     0.19258   0.40757   0.76436   0.00000  Uiso   1.00
O139   O     0.97236   0.09244   0.74494   0.00000  Uiso   1.00
O140   O     0.26104   0.12405   0.87570   0.00000  Uiso   1.00
O141   O     0.39870   0.13637   0.88059   0.00000  Uiso   1.00
O142   O     0.34364   0.26887   0.71055   0.00000  Uiso   1.00
O143   O     0.13740   0.19348   0.63693   0.00000  Uiso   1.00
C144   C     0.17037   0.09773   0.89541   0.00000  Uiso   1.00
C145   C     0.48648   0.10427   0.89865   0.00000  Uiso   1.00
C146   C     0.48683   0.05315   0.95525   0.00000  Uiso   1.00
C147   C     0.16705   0.04238   0.95293   0.00000  Uiso   1.00
C148   C     0.14668   0.94744   0.95625   0.00000  Uiso   1.00
C149   C     0.14693   0.89114   0.90264   0.00000  Uiso   1.00
N150   N     0.34031   0.02689   0.60846   0.00000  Uiso   1.00
U151   U     0.84614   0.31074   0.68516   0.00000  Uiso   1.00
U152   U     0.52121   0.31804   0.70083   0.00000  Uiso   1.00
U153   U     0.66410   0.19718   0.81079   0.00000  Uiso   1.00
O154   O     0.69118   0.30254   0.74057   0.00000  Uiso   1.00
O155   O     0.60634   0.59949   0.62756   0.00000  Uiso   1.00
O156   O     0.11072   0.40429   0.63345   0.00000  Uiso   1.00
O157   O     0.57409   0.39438   0.62483   0.00000  Uiso   1.00
O158   O     0.78177   0.62433   0.62305   0.00000  Uiso   1.00
O159   O     0.00005   0.31006   0.73477   0.00000  Uiso   1.00
O160   O     0.85974   0.16702   0.66097   0.00000  Uiso   1.00
O161   O     0.83198   0.45381   0.70729   0.00000  Uiso   1.00
O162   O     0.54416   0.19054   0.65325   0.00000  Uiso   1.00
O163   O     0.66233   0.10243   0.73855   0.00000  Uiso   1.00
O164   O     0.49334   0.44116   0.74935   0.00000  Uiso   1.00
O165   O     0.71541   0.31467   0.62234   0.00000  Uiso   1.00
O166   O     0.94554   0.35950   0.61067   0.00000  Uiso   1.00
O167   O     0.82730   0.25810   0.77882   0.00000  Uiso   1.00
O168   O     0.66741   0.29942   0.87979   0.00000  Uiso   1.00
C169   C     0.66222   0.38134   0.60320   0.00000  Uiso   1.00
C170   C     0.02510   0.41213   0.60430   0.00000  Uiso   1.00
C171   C     1.02487   0.47619   0.55219   0.00000  Uiso   1.00
C172   C     0.68851   0.43199   0.54850   0.00000  Uiso   1.00
C173   C     0.69914   0.52820   0.54979   0.00000  Uiso   1.00
C174   C     0.69596   0.58696   0.60493   0.00000  Uiso   1.00
N175   N     0.84055   0.46894   0.86191   0.00000  Uiso   1.00
U176   U     0.19154   0.70247   0.69591   0.00000  Uiso   1.00
U177   U     0.51376   0.68578   0.68953   0.00000  Uiso   1.00
U178   U     0.32875   0.81343   0.81460   0.00000  Uiso   1.00
O179   O     0.35914   0.74938   0.72650   0.00000  Uiso   1.00
O180   O     0.36498   0.34393   0.66129   0.00000  Uiso   1.00
O181   O     0.88394   0.63040   0.62333   0.00000  Uiso   1.00
O182   O     0.38310   0.59585   0.66071   0.00000  Uiso   1.00
O183   O     0.21929   0.39326   0.63018   0.00000  Uiso   1.00
O184   O     1.00986   0.69876   0.72075   0.00000  Uiso   1.00
O185   O     0.16976   0.84034   0.66179   0.00000  Uiso   1.00
O186   O     0.21403   0.56585   0.72946   0.00000  Uiso   1.00
O187   O     0.48569   0.78078   0.61816   0.00000  Uiso   1.00
O188   O     0.27714   0.92810   0.76231   0.00000  Uiso   1.00
O189   O     0.54366   0.59621   0.76218   0.00000  Uiso   1.00
O190   O     0.24964   0.65242   0.61416   0.00000  Uiso   1.00
O191   O     0.03669   0.65828   0.65671   0.00000  Uiso   1.00
O192   O     0.17650   0.73991   0.78895   0.00000  Uiso   1.00
O193   O     0.37666   0.69600   0.86651   0.00000  Uiso   1.00
C194   C     0.32895   0.60246   0.61444   0.00000  Uiso   1.00
C195   C     0.98123   0.62198   0.61465   0.00000  Uiso   1.00
C196   C     0.01427   0.57349   0.55621   0.00000  Uiso   1.00
C197   C     0.34496   0.54180   0.56334   0.00000  Uiso   1.00
C198   C     0.35744   0.44547   0.56877   0.00000  Uiso   1.00
C199   C     0.31638   0.39278   0.62245   0.00000  Uiso   1.00
N200   N     0.17145   0.53865   0.88457   0.00000  Uiso   1.00
C201   C     0.17871   0.08702   0.00669   0.00000  Uiso   1.00
C202   C     0.14309   0.90278   0.01138   0.00000  Uiso   1.00
C203   C     0.48935   0.10180   0.00962   0.00000  Uiso   1.00
H204   H     0.19235   0.15894   0.00560   0.00000  Uiso   1.00
H205   H     0.12829   0.83105   0.01176   0.00000  Uiso   1.00
H206   H     0.49198   0.17462   0.00798   0.00000  Uiso   1.00
C207   C     0.83710   0.89985  -0.01271   0.00000  Uiso   1.00
C208   C     0.81770   0.08617  -0.01282   0.00000  Uiso   1.00
C209   C     0.50038   0.91477   0.01026   0.00000  Uiso   1.00
H210   H     0.84736   0.82751  -0.01215   0.00000  Uiso   1.00
H211   H     0.81613   0.15908  -0.01272   0.00000  Uiso   1.00
H212   H     0.50384   0.84191   0.01126   0.00000  Uiso   1.00
C213   C     0.33334   0.58212   0.50752   0.00000  Uiso   1.00
C214   C     0.37173   0.39823   0.51533   0.00000  Uiso   1.00
C215   C     0.00265   0.61976   0.50054   0.00000  Uiso   1.00
H216   H     0.31717   0.65354   0.50509   0.00000  Uiso   1.00
H217   H     0.37783   0.32556   0.51685   0.00000  Uiso   1.00
H218   H     0.98444   0.69077   0.50210   0.00000  Uiso   1.00
C219   C     0.68494   0.38601   0.49327   0.00000  Uiso   1.00
C220   C     0.70192   0.57229   0.49595   0.00000  Uiso   1.00
C221   C     1.02693   0.43470   0.49630   0.00000  Uiso   1.00
H222   H     0.67183   0.31403   0.49338   0.00000  Uiso   1.00
H223   H     0.70658   0.64520   0.49616   0.00000  Uiso   1.00
H224   H     0.03264   0.36193   0.49498   0.00000  Uiso   1.00
H225   H     0.24098   0.02985   0.37826   0.00000  Uiso   1.00
H226   H     0.31179   0.10523   0.41610   0.00000  Uiso   1.00
H227   H     0.35703   0.06196   0.35364   0.00000  Uiso   1.00
H228   H     0.52471   0.95800   0.35639   0.00000  Uiso   1.00
H229   H     0.60160   1.00226   0.40783   0.00000  Uiso   1.00
H230   H     0.65107   0.97052   0.34358   0.00000  Uiso   1.00
H231   H     0.15596   0.48130   0.08444   0.00000  Uiso   1.00
H232   H     0.12396   0.58593   0.10845   0.00000  Uiso   1.00
H233   H     0.21781   0.52674   0.14156   0.00000  Uiso   1.00
H234   H     0.79939   0.47505   0.07194   0.00000  Uiso   1.00
H235   H     0.90570   0.51168   0.10622   0.00000  Uiso   1.00
H236   H     0.85967   0.40645   0.11944   0.00000  Uiso   1.00
H237   H     0.64924   0.91010   0.59514   0.00000  Uiso   1.00
H238   H     0.61309   1.02026   0.59227   0.00000  Uiso   1.00
H239   H     0.70299   0.98673   0.64011   0.00000  Uiso   1.00
H240   H     0.32461   0.07540   0.57739   0.00000  Uiso   1.00
H241   H     0.27910   0.02196   0.63657   0.00000  Uiso   1.00
H242   H     0.40516   0.04555   0.63110   0.00000  Uiso   1.00
H243   H     0.78526   0.44472   0.83393   0.00000  Uiso   1.00
H244   H     0.81728   0.53072   0.87869   0.00000  Uiso   1.00
H245   H     0.90865   0.47740   0.83982   0.00000  Uiso   1.00
H246   H     0.11913   0.52788   0.85180   0.00000  Uiso   1.00
H247   H     0.17015   0.60638   0.89656   0.00000  Uiso   1.00
H248   H     0.24394   0.52175   0.87024   0.00000  Uiso   1.00
H249   H     0.61016   0.89102   0.39080   0.00000  Uiso   1.00
H250   H     0.57974   0.95549   0.64941   0.00000  Uiso   1.00
H251   H     0.79528   0.49866   0.14319   0.00000  Uiso   1.00
H252   H     0.85093   0.42296   0.89515   0.00000  Uiso   1.00
H253   H     0.15258   0.49857   0.91965   0.00000  Uiso   1.00
H254   H     0.09477   0.49316   0.14815   0.00000  Uiso   1.00
H255   H     0.35244  -0.03533   0.58882   0.00000  Uiso   1.00
H256   H     0.34799  -0.00491   0.41265   0.00000  Uiso   1.00
loop_
_geom_bond_atom_site_label_1
_geom_bond_atom_site_label_2
_geom_bond_distance
_geom_bond_site_symmetry_2
_ccdc_geom_bond_type
U1     O4      2.421   .     S
U1     O9      2.469   .     S
U1     O10     2.216   .     S
U1     O11     2.195   .     S
U1     O15     2.197   .     S
U1     O16     2.321   .     S
U1     O17     2.261   .     S
U2     O4      2.407   .     S
U2     O7      2.279   .     S
U2     O12     2.218   .     S
U2     O84     2.320   .     S
U2     O14     2.201   1_455 S
U2     O30     2.283   1_455 S
U2     O92     2.361   1_455 S
U3     O4      2.302   .     S
U3     O13     2.207   .     S
U3     O17     2.370   .     S
U3     O18     2.217   .     S
U3     O58     2.238   .     S
U3     O81     2.314   .     S
U3     O84     2.406   .     S
O5     C24     1.297   .     A
O5     U27     2.245   1_455 S
O6     C20     1.304   .     A
O6     U78     2.266   .     S
O7     C19     1.298   .     A
O8     C24     1.330   .     A
O8     U53     2.318   .     S
O9     U77     2.271   .     S
O9     U78     2.429   .     S
O14    U2      2.201   1_655 S
O15    C19     1.285   .     A
O16    C20     1.337   .     A
O17    U77     2.351   .     S
C19    C22     1.513   .     S
C20    C21     1.593   .     S
C21    C203    1.453   .     A
C21    C46     1.446   1_545 S
C22    C201    1.451   .     A
C22    C23     1.453   1_545 S
C23    C24     1.583   .     S
C23    C202    1.442   .     A
C23    C22     1.453   1_565 S
N25    H225    1.044   .     S
N25    H226    1.044   .     S
N25    H227    1.044   .     S
N25    H256    1.045   .     S
U26    O29     2.362   .     S
U26    O34     2.409   .     S
U26    O35     2.216   .     S
U26    O36     2.202   .     S
U26    O40     2.260   .     S
U26    O41     2.261   .     S
U26    O42     2.329   .     S
U27    O29     2.364   .     S
U27    O32     2.352   .     S
U27    O37     2.217   .     S
U27    O59     2.265   .     S
U27    O5      2.245   1_655 S
U27    O39     2.200   1_655 S
U27    O67     2.414   1_655 S
U28    O29     2.204   .     S
U28    O38     2.204   .     S
U28    O42     2.423   .     S
U28    O43     2.217   .     S
U28    O56     2.291   .     S
U28    O59     2.423   .     S
U28    O83     2.222   .     S
O30    C49     1.309   .     A
O30    U2      2.283   1_655 S
O31    C45     1.283   .     A
O31    U53     2.214   .     S
O32    C44     1.342   .     A
O33    C49     1.334   .     A
O33    U78     2.332   .     S
O34    U52     2.304   .     S
O34    U53     2.432   .     S
O39    U27     2.200   1_455 S
O40    C44     1.303   .     A
O41    C45     1.297   .     A
O42    U52     2.397   .     S
C44    C47     1.549   .     S
C45    C46     1.521   .     S
C46    C209    1.455   .     A
C46    C21     1.446   1_565 S
C47    C207    1.454   .     A
C47    C48     1.436   1_565 S
C48    C49     1.562   .     S
C48    C208    1.449   .     A
C48    C47     1.436   1_545 S
N50    H228    1.044   .     S
N50    H229    1.044   .     S
N50    H230    1.044   .     S
N50    H249    1.044   .     S
U51    O54     2.335   .     S
U51    O60     2.216   .     S
U51    O61     2.201   .     S
U51    O65     2.307   .     S
U51    O66     2.277   .     S
U51    O67     2.315   .     S
U51    O59     2.471   1_455 S
U52    O54     2.369   .     S
U52    O57     2.282   .     S
U52    O62     2.217   .     S
U52    O64     2.213   .     S
U52    O80     2.265   .     S
U53    O54     2.241   .     S
U53    O63     2.208   .     S
U53    O67     2.476   .     S
U53    O68     2.220   .     S
O55    C74     1.327   .     A
O55    U77     2.309   .     S
O56    C70     1.300   .     A
O57    C69     1.305   .     A
O58    C74     1.296   .     A
O59    U51     2.471   1_655 S
O65    C69     1.319   .     A
O66    C70     1.322   1_455 A
O67    U27     2.414   1_455 S
C69    C72     1.569   .     S
C70    O66     1.322   1_655 A
C70    C71     1.592   1_655 A
C71    C215    1.484   .     A
C71    C70     1.592   1_455 A
C71    C96     1.455   1_455 S
C72    C73     1.435   .     A
C72    C213    1.427   .     A
C73    C74     1.514   .     S
C73    C214    1.455   .     A
N75    H231    1.044   .     S
N75    H232    1.044   .     S
N75    H233    1.044   .     S
N75    H254    1.044   .     S
U76    O79     2.477   .     S
U76    O85     2.216   .     S
U76    O86     2.200   .     S
U76    O90     2.322   .     S
U76    O91     2.245   .     S
U76    O92     2.278   .     S
U76    O84     2.427   1_655 S
U77    O79     2.423   .     S
U77    O82     2.253   .     S
U77    O87     2.216   .     S
U77    O89     2.209   .     S
U78    O79     2.271   .     S
U78    O88     2.210   .     S
U78    O92     2.343   .     S
U78    O93     2.218   .     S
O80    C99     1.294   .     A
O81    C95     1.306   .     A
O82    C94     1.301   .     A
O83    C99     1.296   .     A
O84    U76     2.427   1_455 S
O90    C94     1.336   .     A
O91    C95     1.294   1_655 A
O92    U2      2.361   1_655 S
C94    C97     1.582   .     S
C95    O91     1.294   1_455 A
C95    C96     1.561   1_455 S
C96    C221    1.443   .     A
C96    C71     1.455   1_655 S
C96    C95     1.561   1_655 S
C97    C98     1.439   .     A
C97    C219    1.453   .     A
C98    C99     1.497   .     S
C98    C220    1.437   .     A
N100   H234    1.044   .     S
N100   H235    1.044   .     S
N100   H236    1.044   .     S
N100   H251    1.044   .     S
U101   O104    2.480   .     S
U101   O109    2.424   .     S
U101   O110    2.215   .     S
U101   O111    2.174   .     S
U101   O115    2.314   .     S
U101   O116    2.266   .     S
U101   O117    2.285   .     S
U102   O104    2.420   .     S
U102   O107    2.240   .     S
U102   O112    2.217   .     S
U102   O184    2.267   .     S
U102   O114    2.214   1_655 A
U102   O130    2.308   1_655 S
U102   O192    2.339   1_655 A
U103   O104    2.267   .     S
U103   O113    2.207   .     S
U103   O117    2.347   .     S
U103   O118    2.218   .     S
U103   O158    2.323   .     S
U103   O181    2.274   .     S
U103   O184    2.420   .     S
O105   C124    1.284   .     A
O105   U127    2.243   1_655 S
O106   C120    1.307   .     A
O106   U178    2.309   .     S
O107   C119    1.297   .     A
O108   C124    1.302   .     A
O108   U153    2.251   .     S
O109   U177    2.313   .     S
O109   U178    2.400   .     S
O114   U102    2.214   1_455 A
O115   C119    1.332   .     A
O116   C120    1.297   .     A
O117   U177    2.364   .     S
C119   C122    1.566   .     S
C120   C121    1.578   .     S
C121   C146    1.434   1_565 S
C121   C209    1.439   1_556 S
C122   C123    1.453   1_565 S
C122   C207    1.456   1_556 S
C123   C124    1.550   .     S
C123   C122    1.453   1_545 S
C123   C208    1.454   1_556 S
N125   H237    1.044   .     S
N125   H238    1.044   .     S
N125   H239    1.044   .     S
N125   H250    1.044   .     S
U126   O129    2.360   .     S
U126   O134    2.345   .     S
U126   O135    2.216   .     S
U126   O136    2.205   .     S
U126   O140    2.346   .     S
U126   O141    2.287   .     S
U126   O142    2.307   .     S
U127   O129    2.367   .     S
U127   O132    2.334   .     S
U127   O137    2.217   .     S
U127   O159    2.244   .     S
U127   O105    2.243   1_455 S
U127   O139    2.214   1_455 S
U127   O167    2.475   1_455 S
U128   O129    2.245   .     S
U128   O138    2.203   .     S
U128   O142    2.407   .     S
U128   O143    2.218   .     S
U128   O156    2.299   .     S
U128   O159    2.339   .     S
U128   O183    2.241   .     S
O130   C149    1.326   .     A
O130   U102    2.308   1_455 S
O131   C145    1.317   .     A
O131   U153    2.285   .     S
O132   C144    1.335   .     A
O133   C149    1.293   .     A
O133   U178    2.232   .     S
O134   U152    2.235   .     S
O134   U153    2.349   .     S
O139   U127    2.214   1_655 S
O140   C144    1.341   .     A
O141   C145    1.322   .     A
O142   U152    2.465   .     S
C144   C147    1.578   .     S
C145   C146    1.527   .     S
C146   C121    1.434   1_545 S
C146   C203    1.464   1_556 S
C147   C148    1.438   1_545 S
C147   C201    1.431   1_556 S
C148   C149    1.508   .     S
C148   C147    1.438   1_565 S
C148   C202    1.452   1_556 S
N150   H240    1.044   .     S
N150   H241    1.044   .     S
N150   H242    1.044   .     S
N150   H255    1.044   .     S
U151   O154    2.425   .     S
U151   O160    2.216   .     S
U151   O161    2.195   .     S
U151   O165    2.268   .     S
U151   O166    2.299   .     S
U151   O167    2.341   .     S
U151   O159    2.340   1_655 S
U152   O154    2.439   .     S
U152   O157    2.222   .     S
U152   O162    2.218   .     S
U152   O164    2.184   .     S
U152   O180    2.293   .     S
U153   O154    2.297   .     S
U153   O163    2.200   .     S
U153   O167    2.453   .     S
U153   O168    2.217   .     S
O155   C174    1.309   .     A
O155   U177    2.289   .     S
O156   C170    1.325   .     A
O157   C169    1.283   .     A
O158   C174    1.331   .     A
O159   U151    2.340   1_455 S
O165   C169    1.294   .     A
O166   C170    1.317   1_655 S
O167   U127    2.475   1_655 S
C169   C172    1.525   .     S
C170   O166    1.317   1_455 S
C170   C171    1.547   1_455 S
C171   C221    1.446   .     A
C171   C170    1.547   1_655 S
C171   C196    1.455   1_655 A
C172   C173    1.436   .     A
C172   C219    1.463   .     A
C173   C174    1.559   .     S
C173   C220    1.421   .     A
N175   H243    1.044   .     S
N175   H244    1.044   .     S
N175   H245    1.044   .     S
N175   H252    1.044   .     S
U176   O179    2.427   .     S
U176   O185    2.217   .     S
U176   O186    2.196   .     S
U176   O190    2.191   .     S
U176   O191    2.334   .     S
U176   O192    2.256   .     S
U176   O184    2.468   1_455 S
U177   O179    2.409   .     S
U177   O182    2.283   .     S
U177   O187    2.218   .     S
U177   O189    2.195   .     S
U178   O179    2.306   .     S
U178   O188    2.205   .     S
U178   O192    2.364   .     S
U178   O193    2.218   .     S
O180   C199    1.328   .     A
O181   C195    1.306   .     A
O182   C194    1.301   .     A
O183   C199    1.294   .     A
O184   U176    2.468   1_655 S
O190   C194    1.283   .     A
O191   C195    1.340   1_455 S
O192   U102    2.339   1_455 A
C194   C197    1.512   .     S
C195   O191    1.340   1_655 S
C195   C196    1.606   1_655 S
C196   C215    1.481   .     A
C196   C171    1.455   1_455 A
C196   C195    1.606   1_455 S
C197   C198    1.446   .     A
C197   C213    1.445   .     A
C198   C199    1.576   .     S
C198   C214    1.447   .     A
N200   H246    1.044   .     S
N200   H247    1.044   .     S
N200   H248    1.044   .     S
N200   H253    1.044   .     S
C201   H204    1.084   .     S
C201   C147    1.431   1_554 S
C202   H205    1.083   .     S
C202   C148    1.452   1_554 S
C203   H206    1.083   .     S
C203   C146    1.464   1_554 S
C207   H210    1.083   .     S
C207   C122    1.456   1_554 S
C208   H211    1.083   .     S
C208   C123    1.454   1_554 S
C209   H212    1.083   .     S
C209   C121    1.439   1_554 S
C213   H216    1.083   .     S
C214   H217    1.083   .     S
C215   H218    1.082   1_455 S
H218   C215    1.082   1_655 S
C219   H222    1.083   .     S
C220   H223    1.085   .     S
C221   H224    1.084   1_655 S
H224   C221    1.084   1_455 S
