data_YAQZUN_clean
_audit_creation_date              2014-07-02
_audit_creation_method            'Materials Studio'
_symmetry_space_group_name_H-M    'P1'
_symmetry_Int_Tables_number       1
_symmetry_cell_setting            triclinic
loop_
_symmetry_equiv_pos_as_xyz
  x,y,z
_cell_length_a                    9.9736
_cell_length_b                    12.7051
_cell_length_c                    12.8489
_cell_angle_alpha                 90.0000
_cell_angle_beta                  90.0000
_cell_angle_gamma                 90.0000
loop_
_atom_site_label
_atom_site_type_symbol
_atom_site_fract_x
_atom_site_fract_y
_atom_site_fract_z
_atom_site_U_iso_or_equiv
_atom_site_adp_type
_atom_site_occupancy
U1     U     0.59489   0.18686   0.20140   0.01267  Uiso   1.00
U2     U     0.09489   0.31314   0.29860   0.01267  Uiso   1.00
U3     U     0.90511   0.18686   0.79860   0.01267  Uiso   1.00
U4     U     0.40511   0.31314   0.70140   0.01267  Uiso   1.00
U5     U     0.40511   0.81314   0.79860   0.01267  Uiso   1.00
U6     U     0.90511   0.68686   0.70140   0.01267  Uiso   1.00
U7     U     0.09489   0.81314   0.20140   0.01267  Uiso   1.00
U8     U     0.59489   0.68686   0.29860   0.01267  Uiso   1.00
H1     H     0.84950   0.93810   0.37770   0.01267  Uiso   1.00
H2     H     0.34950   0.56190   0.12230   0.01267  Uiso   1.00
H3     H     0.65050   0.93810   0.62230   0.01267  Uiso   1.00
H4     H     0.15050   0.56190   0.87770   0.01267  Uiso   1.00
H5     H     0.15050   0.06190   0.62230   0.01267  Uiso   1.00
H6     H     0.65050   0.43810   0.87770   0.01267  Uiso   1.00
H7     H     0.34950   0.06190   0.37770   0.01267  Uiso   1.00
H8     H     0.84950   0.43810   0.12230   0.01267  Uiso   1.00
C1     C     0.84520   0.14180   0.36960   0.01267  Uiso   1.00
C2     C     0.03060   0.22250   0.54580   0.01267  Uiso   1.00
C3     C     0.01630   0.10860   0.51440   0.01267  Uiso   1.00
C4     C     0.92550   0.07130   0.43970   0.01267  Uiso   1.00
C5     C     0.91020   0.96310   0.42680   0.01267  Uiso   1.00
C6     C     0.34520   0.35820   0.13040   0.01267  Uiso   1.00
C7     C     0.53060   0.27750   0.95420   0.01267  Uiso   1.00
C8     C     0.51630   0.39140   0.98560   0.01267  Uiso   1.00
C9     C     0.42550   0.42870   0.06030   0.01267  Uiso   1.00
C10    C     0.41020   0.53690   0.07320   0.01267  Uiso   1.00
C11    C     0.65480   0.14180   0.63040   0.01267  Uiso   1.00
C12    C     0.46940   0.22250   0.45420   0.01267  Uiso   1.00
C13    C     0.48370   0.10860   0.48560   0.01267  Uiso   1.00
C14    C     0.57450   0.07130   0.56030   0.01267  Uiso   1.00
C15    C     0.58980   0.96310   0.57320   0.01267  Uiso   1.00
C16    C     0.15480   0.35820   0.86960   0.01267  Uiso   1.00
C17    C     0.96940   0.27750   0.04580   0.01267  Uiso   1.00
C18    C     0.98370   0.39140   0.01440   0.01267  Uiso   1.00
C19    C     0.07450   0.42870   0.93970   0.01267  Uiso   1.00
C20    C     0.08980   0.53690   0.92680   0.01267  Uiso   1.00
C21    C     0.15480   0.85820   0.63040   0.01267  Uiso   1.00
C22    C     0.96940   0.77750   0.45420   0.01267  Uiso   1.00
C23    C     0.98370   0.89140   0.48560   0.01267  Uiso   1.00
C24    C     0.07450   0.92870   0.56030   0.01267  Uiso   1.00
C25    C     0.08980   0.03690   0.57320   0.01267  Uiso   1.00
C26    C     0.65480   0.64180   0.86960   0.01267  Uiso   1.00
C27    C     0.46940   0.72250   0.04580   0.01267  Uiso   1.00
C28    C     0.48370   0.60860   0.01440   0.01267  Uiso   1.00
C29    C     0.57450   0.57130   0.93970   0.01267  Uiso   1.00
C30    C     0.58980   0.46310   0.92680   0.01267  Uiso   1.00
C31    C     0.34520   0.85820   0.36960   0.01267  Uiso   1.00
C32    C     0.53060   0.77750   0.54580   0.01267  Uiso   1.00
C33    C     0.51630   0.89140   0.51440   0.01267  Uiso   1.00
C34    C     0.42550   0.92870   0.43970   0.01267  Uiso   1.00
C35    C     0.41020   0.03690   0.42680   0.01267  Uiso   1.00
C36    C     0.84520   0.64180   0.13040   0.01267  Uiso   1.00
C37    C     0.03060   0.72250   0.95420   0.01267  Uiso   1.00
C38    C     0.01630   0.60860   0.98560   0.01267  Uiso   1.00
C39    C     0.92550   0.57130   0.06030   0.01267  Uiso   1.00
C40    C     0.91020   0.46310   0.07320   0.01267  Uiso   1.00
O1     O     0.73310   0.11023   0.33834   0.01267  Uiso   1.00
O2     O     0.07850   0.29115   0.48574   0.01267  Uiso   1.00
O3     O     0.99960   0.24492   0.63774   0.01267  Uiso   1.00
O4     O     0.89370   0.23010   0.34440   0.01267  Uiso   1.00
O5     O     0.23310   0.38977   0.16166   0.01267  Uiso   1.00
O6     O     0.57850   0.20885   0.01426   0.01267  Uiso   1.00
O7     O     0.49960   0.25508   0.86226   0.01267  Uiso   1.00
O8     O     0.39370   0.26990   0.15560   0.01267  Uiso   1.00
O9     O     0.76690   0.11023   0.66166   0.01267  Uiso   1.00
O10    O     0.42150   0.29115   0.51426   0.01267  Uiso   1.00
O11    O     0.50040   0.24492   0.36226   0.01267  Uiso   1.00
O12    O     0.60630   0.23010   0.65560   0.01267  Uiso   1.00
O13    O     0.26690   0.38977   0.83834   0.01267  Uiso   1.00
O14    O     0.92150   0.20885   0.98574   0.01267  Uiso   1.00
O15    O     0.00040   0.25508   0.13774   0.01267  Uiso   1.00
O16    O     0.10630   0.26990   0.84440   0.01267  Uiso   1.00
O17    O     0.26690   0.88977   0.66166   0.01267  Uiso   1.00
O18    O     0.92150   0.70885   0.51426   0.01267  Uiso   1.00
O19    O     0.00040   0.75508   0.36226   0.01267  Uiso   1.00
O20    O     0.10630   0.76990   0.65560   0.01267  Uiso   1.00
O21    O     0.76690   0.61023   0.83834   0.01267  Uiso   1.00
O22    O     0.42150   0.79115   0.98574   0.01267  Uiso   1.00
O23    O     0.50040   0.74492   0.13774   0.01267  Uiso   1.00
O24    O     0.60630   0.73010   0.84440   0.01267  Uiso   1.00
O25    O     0.23310   0.88977   0.33834   0.01267  Uiso   1.00
O26    O     0.57850   0.70885   0.48574   0.01267  Uiso   1.00
O27    O     0.49960   0.75508   0.63774   0.01267  Uiso   1.00
O28    O     0.39370   0.76990   0.34440   0.01267  Uiso   1.00
O29    O     0.73310   0.61023   0.16166   0.01267  Uiso   1.00
O30    O     0.07850   0.79115   0.01426   0.01267  Uiso   1.00
O31    O     0.99960   0.74492   0.86226   0.01267  Uiso   1.00
O32    O     0.89370   0.73010   0.15560   0.01267  Uiso   1.00
