data_image0
_cell_length_a       19.469
_cell_length_b       18.077
_cell_length_c       13.265
_cell_angle_alpha    90
_cell_angle_beta     131.213
_cell_angle_gamma    90

_symmetry_space_group_name_H-M    "P 1"
_symmetry_int_tables_number       1

loop_
  _symmetry_equiv_pos_as_xyz
  'x, y, z'

loop_
  _atom_site_label
  _atom_site_occupancy
  _atom_site_fract_x
  _atom_site_fract_y
  _atom_site_fract_z
  _atom_site_thermal_displace_type
  _atom_site_B_iso_or_equiv
  _atom_site_type_symbol
  O1       1.0000 0.87631  0.96414  0.43340  Biso   1.000  O
  O2       1.0000 0.84670  0.04370  0.52800  Biso   1.000  O
  O3       1.0000 0.68680  0.05550  0.44210  Biso   1.000  O
  H1       1.0000 0.74220  0.06140  0.49170  Biso   1.000  H
  N1       1.0000 0.06660  0.91631  0.64330  Biso   1.000  N
  C1       1.0000 0.82330  0.99460  0.44210  Biso   1.000  C
  C2       1.0000 0.69560  0.92380  0.24480  Biso   1.000  C
  H2       1.0000 0.73830  0.90190  0.24390  Biso   1.000  H
  C3       1.0000 0.72350  0.97310  0.34110  Biso   1.000  C
  C4       1.0000 0.65930  0.00650  0.34410  Biso   1.000  C
  C5       1.0000 0.56680  0.98920  0.24880  Biso   1.000  C
  C6       1.0000 0.53740  0.93950  0.14660  Biso   1.000  C
  C7       1.0000 0.60240  0.90470  0.14500  Biso   1.000  C
  C8       1.0000 0.57220  0.85620  0.04220  Biso   1.000  C
  H3       1.0000 0.61460  0.83420  0.04040  Biso   1.000  H
  C9       1.0000 0.48120  0.83990  0.94270  Biso   1.000  C
  H4       1.0000 0.46230  0.80640  0.87550  Biso   1.000  H
  C10      1.0000 0.41780  0.87370  0.94370  Biso   1.000  C
  H5       1.0000 0.35610  0.86260  0.87660  Biso   1.000  H
  C11      1.0000 0.44400  0.92250  0.04030  Biso   1.000  C
  H6       1.0000 0.39990  0.94540  0.03710  Biso   1.000  H
  H7       1.0000 0.53540  0.06350  0.32810  Biso   1.000  H
  C12      1.0000 0.02970  0.84900  0.62100  Biso   1.000  C
  H8       1.0000 0.97320  0.83900  0.53750  Biso   1.000  H
  C13      1.0000 0.07240  0.79450  0.71670  Biso   1.000  C
  H9       1.0000 0.04500  0.74830  0.69630  Biso   1.000  H
  C14      1.0000 0.15550  0.80740  0.84260  Biso   1.000  C
  C15      1.0000 0.19300  0.87650  0.86420  Biso   1.000  C
  H10      1.0000 0.24950  0.88780  0.94700  Biso   1.000  H
  C16      1.0000 0.14760  0.92890  0.76420  Biso   1.000  C
  H11      1.0000 0.17450  0.97510  0.78170  Biso   1.000  H
  C17      1.0000 0.20150  0.74840  0.94810  Biso   1.000  C
  H12      1.0000 0.18600  0.70100  0.90360  Biso   1.000  H
  H13      1.0000 0.17540  0.74950  0.99000  Biso   1.000  H
  O4       1.0000 0.37631  0.46414  0.43340  Biso   1.000  O
  O5       1.0000 0.34670  0.54370  0.52800  Biso   1.000  O
  O6       1.0000 0.18680  0.55550  0.44210  Biso   1.000  O
  H14      1.0000 0.24220  0.56140  0.49170  Biso   1.000  H
  N2       1.0000 0.56660  0.41631  0.64330  Biso   1.000  N
  C18      1.0000 0.32330  0.49460  0.44210  Biso   1.000  C
  C19      1.0000 0.19560  0.42380  0.24480  Biso   1.000  C
  H15      1.0000 0.23830  0.40190  0.24390  Biso   1.000  H
  C20      1.0000 0.22350  0.47310  0.34110  Biso   1.000  C
  C21      1.0000 0.15930  0.50650  0.34410  Biso   1.000  C
  C22      1.0000 0.06680  0.48920  0.24880  Biso   1.000  C
  C23      1.0000 0.03740  0.43950  0.14660  Biso   1.000  C
  C24      1.0000 0.10240  0.40470  0.14500  Biso   1.000  C
  C25      1.0000 0.07220  0.35620  0.04220  Biso   1.000  C
  H16      1.0000 0.11460  0.33420  0.04040  Biso   1.000  H
  C26      1.0000 0.98120  0.33990  0.94270  Biso   1.000  C
  H17      1.0000 0.96230  0.30640  0.87550  Biso   1.000  H
  C27      1.0000 0.91780  0.37370  0.94370  Biso   1.000  C
  H18      1.0000 0.85610  0.36260  0.87660  Biso   1.000  H
  C28      1.0000 0.94400  0.42250  0.04030  Biso   1.000  C
  H19      1.0000 0.89990  0.44540  0.03710  Biso   1.000  H
  H20      1.0000 0.03540  0.56350  0.32810  Biso   1.000  H
  C29      1.0000 0.52970  0.34900  0.62100  Biso   1.000  C
  H21      1.0000 0.47320  0.33900  0.53750  Biso   1.000  H
  C30      1.0000 0.57240  0.29450  0.71670  Biso   1.000  C
  H22      1.0000 0.54500  0.24830  0.69630  Biso   1.000  H
  C31      1.0000 0.65550  0.30740  0.84260  Biso   1.000  C
  C32      1.0000 0.69300  0.37650  0.86420  Biso   1.000  C
  H23      1.0000 0.74950  0.38780  0.94700  Biso   1.000  H
  C33      1.0000 0.64760  0.42890  0.76420  Biso   1.000  C
  H24      1.0000 0.67450  0.47510  0.78170  Biso   1.000  H
  C34      1.0000 0.70150  0.24840  0.94810  Biso   1.000  C
  H25      1.0000 0.68600  0.20100  0.90360  Biso   1.000  H
  H26      1.0000 0.67540  0.24950  0.99000  Biso   1.000  H
  O7       1.0000 0.12369  0.96414  0.06660  Biso   1.000  O
  O8       1.0000 0.15330  0.04370  0.97200  Biso   1.000  O
  O9       1.0000 0.31320  0.05550  0.05790  Biso   1.000  O
  H27      1.0000 0.25780  0.06140  0.00830  Biso   1.000  H
  N3       1.0000 0.93340  0.91631  0.85670  Biso   1.000  N
  C35      1.0000 0.17670  0.99460  0.05790  Biso   1.000  C
  C36      1.0000 0.30440  0.92380  0.25520  Biso   1.000  C
  H28      1.0000 0.26170  0.90190  0.25610  Biso   1.000  H
  C37      1.0000 0.27650  0.97310  0.15890  Biso   1.000  C
  C38      1.0000 0.34070  0.00650  0.15590  Biso   1.000  C
  C39      1.0000 0.43320  0.98920  0.25120  Biso   1.000  C
  C40      1.0000 0.46260  0.93950  0.35340  Biso   1.000  C
  C41      1.0000 0.39760  0.90470  0.35500  Biso   1.000  C
  C42      1.0000 0.42780  0.85620  0.45780  Biso   1.000  C
  H29      1.0000 0.38540  0.83420  0.45960  Biso   1.000  H
  C43      1.0000 0.51880  0.83990  0.55730  Biso   1.000  C
  H30      1.0000 0.53770  0.80640  0.62450  Biso   1.000  H
  C44      1.0000 0.58220  0.87370  0.55630  Biso   1.000  C
  H31      1.0000 0.64390  0.86260  0.62340  Biso   1.000  H
  C45      1.0000 0.55600  0.92250  0.45970  Biso   1.000  C
  H32      1.0000 0.60010  0.94540  0.46290  Biso   1.000  H
  H33      1.0000 0.46460  0.06350  0.17190  Biso   1.000  H
  C46      1.0000 0.97030  0.84900  0.87900  Biso   1.000  C
  H34      1.0000 0.02680  0.83900  0.96250  Biso   1.000  H
  C47      1.0000 0.92760  0.79450  0.78330  Biso   1.000  C
  H35      1.0000 0.95500  0.74830  0.80370  Biso   1.000  H
  C48      1.0000 0.84450  0.80740  0.65740  Biso   1.000  C
  C49      1.0000 0.80700  0.87650  0.63580  Biso   1.000  C
  H36      1.0000 0.75050  0.88780  0.55300  Biso   1.000  H
  C50      1.0000 0.85240  0.92890  0.73580  Biso   1.000  C
  H37      1.0000 0.82550  0.97510  0.71830  Biso   1.000  H
  C51      1.0000 0.79850  0.74840  0.55190  Biso   1.000  C
  H38      1.0000 0.81400  0.70100  0.59640  Biso   1.000  H
  H39      1.0000 0.82460  0.74950  0.51000  Biso   1.000  H
  O10      1.0000 0.62369  0.46414  0.06660  Biso   1.000  O
  O11      1.0000 0.65330  0.54370  0.97200  Biso   1.000  O
  O12      1.0000 0.81320  0.55550  0.05790  Biso   1.000  O
  H40      1.0000 0.75780  0.56140  0.00830  Biso   1.000  H
  N4       1.0000 0.43340  0.41631  0.85670  Biso   1.000  N
  C52      1.0000 0.67670  0.49460  0.05790  Biso   1.000  C
  C53      1.0000 0.80440  0.42380  0.25520  Biso   1.000  C
  H41      1.0000 0.76170  0.40190  0.25610  Biso   1.000  H
  C54      1.0000 0.77650  0.47310  0.15890  Biso   1.000  C
  C55      1.0000 0.84070  0.50650  0.15590  Biso   1.000  C
  C56      1.0000 0.93320  0.48920  0.25120  Biso   1.000  C
  C57      1.0000 0.96260  0.43950  0.35340  Biso   1.000  C
  C58      1.0000 0.89760  0.40470  0.35500  Biso   1.000  C
  C59      1.0000 0.92780  0.35620  0.45780  Biso   1.000  C
  H42      1.0000 0.88540  0.33420  0.45960  Biso   1.000  H
  C60      1.0000 0.01880  0.33990  0.55730  Biso   1.000  C
  H43      1.0000 0.03770  0.30640  0.62450  Biso   1.000  H
  C61      1.0000 0.08220  0.37370  0.55630  Biso   1.000  C
  H44      1.0000 0.14390  0.36260  0.62340  Biso   1.000  H
  C62      1.0000 0.05600  0.42250  0.45970  Biso   1.000  C
  H45      1.0000 0.10010  0.44540  0.46290  Biso   1.000  H
  H46      1.0000 0.96460  0.56350  0.17190  Biso   1.000  H
  C63      1.0000 0.47030  0.34900  0.87900  Biso   1.000  C
  H47      1.0000 0.52680  0.33900  0.96250  Biso   1.000  H
  C64      1.0000 0.42760  0.29450  0.78330  Biso   1.000  C
  H48      1.0000 0.45500  0.24830  0.80370  Biso   1.000  H
  C65      1.0000 0.34450  0.30740  0.65740  Biso   1.000  C
  C66      1.0000 0.30700  0.37650  0.63580  Biso   1.000  C
  H49      1.0000 0.25050  0.38780  0.55300  Biso   1.000  H
  C67      1.0000 0.35240  0.42890  0.73580  Biso   1.000  C
  H50      1.0000 0.32550  0.47510  0.71830  Biso   1.000  H
  C68      1.0000 0.29850  0.24840  0.55190  Biso   1.000  C
  H51      1.0000 0.31400  0.20100  0.59640  Biso   1.000  H
  H52      1.0000 0.32460  0.24950  0.51000  Biso   1.000  H
  O13      1.0000 0.12369  0.03586  0.56660  Biso   1.000  O
  O14      1.0000 0.15330  0.95630  0.47200  Biso   1.000  O
  O15      1.0000 0.31320  0.94450  0.55790  Biso   1.000  O
  H53      1.0000 0.25780  0.93860  0.50830  Biso   1.000  H
  N5       1.0000 0.93340  0.08369  0.35670  Biso   1.000  N
  C69      1.0000 0.17670  0.00540  0.55790  Biso   1.000  C
  C70      1.0000 0.30440  0.07620  0.75520  Biso   1.000  C
  H54      1.0000 0.26170  0.09810  0.75610  Biso   1.000  H
  C71      1.0000 0.27650  0.02690  0.65890  Biso   1.000  C
  C72      1.0000 0.34070  0.99350  0.65590  Biso   1.000  C
  C73      1.0000 0.43320  0.01080  0.75120  Biso   1.000  C
  C74      1.0000 0.46260  0.06050  0.85340  Biso   1.000  C
  C75      1.0000 0.39760  0.09530  0.85500  Biso   1.000  C
  C76      1.0000 0.42780  0.14380  0.95780  Biso   1.000  C
  H55      1.0000 0.38540  0.16580  0.95960  Biso   1.000  H
  C77      1.0000 0.51880  0.16010  0.05730  Biso   1.000  C
  H56      1.0000 0.53770  0.19360  0.12450  Biso   1.000  H
  C78      1.0000 0.58220  0.12630  0.05630  Biso   1.000  C
  H57      1.0000 0.64390  0.13740  0.12340  Biso   1.000  H
  C79      1.0000 0.55600  0.07750  0.95970  Biso   1.000  C
  H58      1.0000 0.60010  0.05460  0.96290  Biso   1.000  H
  H59      1.0000 0.46460  0.93650  0.67190  Biso   1.000  H
  C80      1.0000 0.97030  0.15100  0.37900  Biso   1.000  C
  H60      1.0000 0.02680  0.16100  0.46250  Biso   1.000  H
  C81      1.0000 0.92760  0.20550  0.28330  Biso   1.000  C
  H61      1.0000 0.95500  0.25170  0.30370  Biso   1.000  H
  C82      1.0000 0.84450  0.19260  0.15740  Biso   1.000  C
  C83      1.0000 0.80700  0.12350  0.13580  Biso   1.000  C
  H62      1.0000 0.75050  0.11220  0.05300  Biso   1.000  H
  C84      1.0000 0.85240  0.07110  0.23580  Biso   1.000  C
  H63      1.0000 0.82550  0.02490  0.21830  Biso   1.000  H
  C85      1.0000 0.79850  0.25160  0.05190  Biso   1.000  C
  H64      1.0000 0.81400  0.29900  0.09640  Biso   1.000  H
  H65      1.0000 0.82460  0.25050  0.01000  Biso   1.000  H
  O16      1.0000 0.62369  0.53586  0.56660  Biso   1.000  O
  O17      1.0000 0.65330  0.45630  0.47200  Biso   1.000  O
  O18      1.0000 0.81320  0.44450  0.55790  Biso   1.000  O
  H66      1.0000 0.75780  0.43860  0.50830  Biso   1.000  H
  N6       1.0000 0.43340  0.58369  0.35670  Biso   1.000  N
  C86      1.0000 0.67670  0.50540  0.55790  Biso   1.000  C
  C87      1.0000 0.80440  0.57620  0.75520  Biso   1.000  C
  H67      1.0000 0.76170  0.59810  0.75610  Biso   1.000  H
  C88      1.0000 0.77650  0.52690  0.65890  Biso   1.000  C
  C89      1.0000 0.84070  0.49350  0.65590  Biso   1.000  C
  C90      1.0000 0.93320  0.51080  0.75120  Biso   1.000  C
  C91      1.0000 0.96260  0.56050  0.85340  Biso   1.000  C
  C92      1.0000 0.89760  0.59530  0.85500  Biso   1.000  C
  C93      1.0000 0.92780  0.64380  0.95780  Biso   1.000  C
  H68      1.0000 0.88540  0.66580  0.95960  Biso   1.000  H
  C94      1.0000 0.01880  0.66010  0.05730  Biso   1.000  C
  H69      1.0000 0.03770  0.69360  0.12450  Biso   1.000  H
  C95      1.0000 0.08220  0.62630  0.05630  Biso   1.000  C
  H70      1.0000 0.14390  0.63740  0.12340  Biso   1.000  H
  C96      1.0000 0.05600  0.57750  0.95970  Biso   1.000  C
  H71      1.0000 0.10010  0.55460  0.96290  Biso   1.000  H
  H72      1.0000 0.96460  0.43650  0.67190  Biso   1.000  H
  C97      1.0000 0.47030  0.65100  0.37900  Biso   1.000  C
  H73      1.0000 0.52680  0.66100  0.46250  Biso   1.000  H
  C98      1.0000 0.42760  0.70550  0.28330  Biso   1.000  C
  H74      1.0000 0.45500  0.75170  0.30370  Biso   1.000  H
  C99      1.0000 0.34450  0.69260  0.15740  Biso   1.000  C
  C100     1.0000 0.30700  0.62350  0.13580  Biso   1.000  C
  H75      1.0000 0.25050  0.61220  0.05300  Biso   1.000  H
  C101     1.0000 0.35240  0.57110  0.23580  Biso   1.000  C
  H76      1.0000 0.32550  0.52490  0.21830  Biso   1.000  H
  C102     1.0000 0.29850  0.75160  0.05190  Biso   1.000  C
  H77      1.0000 0.31400  0.79900  0.09640  Biso   1.000  H
  H78      1.0000 0.32460  0.75050  0.01000  Biso   1.000  H
  O19      1.0000 0.87631  0.03586  0.93340  Biso   1.000  O
  O20      1.0000 0.84670  0.95630  0.02800  Biso   1.000  O
  O21      1.0000 0.68680  0.94450  0.94210  Biso   1.000  O
  H79      1.0000 0.74220  0.93860  0.99170  Biso   1.000  H
  N7       1.0000 0.06660  0.08369  0.14330  Biso   1.000  N
  C103     1.0000 0.82330  0.00540  0.94210  Biso   1.000  C
  C104     1.0000 0.69560  0.07620  0.74480  Biso   1.000  C
  H80      1.0000 0.73830  0.09810  0.74390  Biso   1.000  H
  C105     1.0000 0.72350  0.02690  0.84110  Biso   1.000  C
  C106     1.0000 0.65930  0.99350  0.84410  Biso   1.000  C
  C107     1.0000 0.56680  0.01080  0.74880  Biso   1.000  C
  C108     1.0000 0.53740  0.06050  0.64660  Biso   1.000  C
  C109     1.0000 0.60240  0.09530  0.64500  Biso   1.000  C
  C110     1.0000 0.57220  0.14380  0.54220  Biso   1.000  C
  H81      1.0000 0.61460  0.16580  0.54040  Biso   1.000  H
  C111     1.0000 0.48120  0.16010  0.44270  Biso   1.000  C
  H82      1.0000 0.46230  0.19360  0.37550  Biso   1.000  H
  C112     1.0000 0.41780  0.12630  0.44370  Biso   1.000  C
  H83      1.0000 0.35610  0.13740  0.37660  Biso   1.000  H
  C113     1.0000 0.44400  0.07750  0.54030  Biso   1.000  C
  H84      1.0000 0.39990  0.05460  0.53710  Biso   1.000  H
  H85      1.0000 0.53540  0.93650  0.82810  Biso   1.000  H
  C114     1.0000 0.02970  0.15100  0.12100  Biso   1.000  C
  H86      1.0000 0.97320  0.16100  0.03750  Biso   1.000  H
  C115     1.0000 0.07240  0.20550  0.21670  Biso   1.000  C
  H87      1.0000 0.04500  0.25170  0.19630  Biso   1.000  H
  C116     1.0000 0.15550  0.19260  0.34260  Biso   1.000  C
  C117     1.0000 0.19300  0.12350  0.36420  Biso   1.000  C
  H88      1.0000 0.24950  0.11220  0.44700  Biso   1.000  H
  C118     1.0000 0.14760  0.07110  0.26420  Biso   1.000  C
  H89      1.0000 0.17450  0.02490  0.28170  Biso   1.000  H
  C119     1.0000 0.20150  0.25160  0.44810  Biso   1.000  C
  H90      1.0000 0.18600  0.29900  0.40360  Biso   1.000  H
  H91      1.0000 0.17540  0.25050  0.49000  Biso   1.000  H
  O22      1.0000 0.37631  0.53586  0.93340  Biso   1.000  O
  O23      1.0000 0.34670  0.45630  0.02800  Biso   1.000  O
  O24      1.0000 0.18680  0.44450  0.94210  Biso   1.000  O
  H92      1.0000 0.24220  0.43860  0.99170  Biso   1.000  H
  N8       1.0000 0.56660  0.58369  0.14330  Biso   1.000  N
  C120     1.0000 0.32330  0.50540  0.94210  Biso   1.000  C
  C121     1.0000 0.19560  0.57620  0.74480  Biso   1.000  C
  H93      1.0000 0.23830  0.59810  0.74390  Biso   1.000  H
  C122     1.0000 0.22350  0.52690  0.84110  Biso   1.000  C
  C123     1.0000 0.15930  0.49350  0.84410  Biso   1.000  C
  C124     1.0000 0.06680  0.51080  0.74880  Biso   1.000  C
  C125     1.0000 0.03740  0.56050  0.64660  Biso   1.000  C
  C126     1.0000 0.10240  0.59530  0.64500  Biso   1.000  C
  C127     1.0000 0.07220  0.64380  0.54220  Biso   1.000  C
  H94      1.0000 0.11460  0.66580  0.54040  Biso   1.000  H
  C128     1.0000 0.98120  0.66010  0.44270  Biso   1.000  C
  H95      1.0000 0.96230  0.69360  0.37550  Biso   1.000  H
  C129     1.0000 0.91780  0.62630  0.44370  Biso   1.000  C
  H96      1.0000 0.85610  0.63740  0.37660  Biso   1.000  H
  C130     1.0000 0.94400  0.57750  0.54030  Biso   1.000  C
  H97      1.0000 0.89990  0.55460  0.53710  Biso   1.000  H
  H98      1.0000 0.03540  0.43650  0.82810  Biso   1.000  H
  C131     1.0000 0.52970  0.65100  0.12100  Biso   1.000  C
  H99      1.0000 0.47320  0.66100  0.03750  Biso   1.000  H
  C132     1.0000 0.57240  0.70550  0.21670  Biso   1.000  C
  H100     1.0000 0.54500  0.75170  0.19630  Biso   1.000  H
  C133     1.0000 0.65550  0.69260  0.34260  Biso   1.000  C
  C134     1.0000 0.69300  0.62350  0.36420  Biso   1.000  C
  H101     1.0000 0.74950  0.61220  0.44700  Biso   1.000  H
  C135     1.0000 0.64760  0.57110  0.26420  Biso   1.000  C
  H102     1.0000 0.67450  0.52490  0.28170  Biso   1.000  H
  C136     1.0000 0.70150  0.75160  0.44810  Biso   1.000  C
  H103     1.0000 0.68600  0.79900  0.40360  Biso   1.000  H
  H104     1.0000 0.67540  0.75050  0.49000  Biso   1.000  H
  Ni1      1.0000 0.00000  0.00000  0.50000  Biso   1.000  Ni
  Ni2      1.0000 0.50000  0.50000  0.50000  Biso   1.000  Ni
  Ni3      1.0000 0.00000  0.00000  0.00000  Biso   1.000  Ni
  Ni4      1.0000 0.50000  0.50000  0.00000  Biso   1.000  Ni
  C137     1.0000 0.50000  0.03160  0.25000  Biso   1.000  C
  C138     1.0000 0.00000  0.53160  0.25000  Biso   1.000  C
  C139     1.0000 0.50000  0.96840  0.75000  Biso   1.000  C
  C140     1.0000 0.00000  0.46840  0.75000  Biso   1.000  C
