data_YARBUQ_clean
_audit_creation_date              2014-07-02
_audit_creation_method            'Materials Studio'
_symmetry_space_group_name_H-M    'P1'
_symmetry_Int_Tables_number       1
_symmetry_cell_setting            triclinic
loop_
_symmetry_equiv_pos_as_xyz
  x,y,z
_cell_length_a                    13.9830
_cell_length_b                    23.7756
_cell_length_c                    23.7756
_cell_angle_alpha                 76.6763
_cell_angle_beta                  72.8988
_cell_angle_gamma                 72.8987
loop_
_atom_site_label
_atom_site_type_symbol
_atom_site_fract_x
_atom_site_fract_y
_atom_site_fract_z
_atom_site_U_iso_or_equiv
_atom_site_adp_type
_atom_site_occupancy
Ni1    Ni    0.92433   0.24338   0.64506   0.01267  Uiso   1.00
Ni2    Ni    0.80370   0.06798   0.32162   0.01267  Uiso   1.00
Ni3    Ni    0.68723   0.74338   0.14506   0.01267  Uiso   1.00
Ni4    Ni    0.30670   0.56798   0.82162   0.01267  Uiso   1.00
H1     H     0.74030   0.06600   0.74760   0.01267  Uiso   1.00
H2     H     0.63020   0.89440   0.03460   0.01267  Uiso   1.00
H3     H     0.04220   0.04340   0.34940   0.01267  Uiso   1.00
H4     H     0.55900   0.04630   0.35050   0.01267  Uiso   1.00
H5     H     0.87820   0.16480   0.82960   0.01267  Uiso   1.00
H6     H     0.85960   0.17020   0.92940   0.01267  Uiso   1.00
H7     H     0.84300   0.12250   0.02830   0.01267  Uiso   1.00
H8     H     0.75420   0.04860   0.06060   0.01267  Uiso   1.00
H9     H     0.71320   0.00540   0.99520   0.01267  Uiso   1.00
H10    H     0.68060   0.98150   0.86290   0.01267  Uiso   1.00
H11    H     0.64830   0.99350   0.92870   0.01267  Uiso   1.00
H12    H     0.92990   0.77710   0.97210   0.01267  Uiso   1.00
H13    H     0.06370   0.78140   0.88140   0.01267  Uiso   1.00
H14    H     0.12710   0.83070   0.78750   0.01267  Uiso   1.00
H15    H     0.03060   0.92190   0.75110   0.01267  Uiso   1.00
H16    H     0.87070   0.96410   0.80850   0.01267  Uiso   1.00
H17    H     0.98540   0.22590   0.37010   0.01267  Uiso   1.00
H18    H     0.08760   0.28430   0.38510   0.01267  Uiso   1.00
H19    H     0.24380   0.29270   0.39350   0.01267  Uiso   1.00
H20    H     0.38580   0.21170   0.38530   0.01267  Uiso   1.00
H21    H     0.37160   0.12240   0.36860   0.01267  Uiso   1.00
H22    H     0.32970   0.03400   0.38680   0.01267  Uiso   1.00
H23    H     0.26900   0.00660   0.35900   0.01267  Uiso   1.00
H24    H     0.61770   0.02530   0.16110   0.01267  Uiso   1.00
H25    H     0.51370   0.01030   0.10370   0.01267  Uiso   1.00
H26    H     0.35680   0.00160   0.09680   0.01267  Uiso   1.00
H27    H     0.21660   0.00880   0.17880   0.01267  Uiso   1.00
H28    H     0.23340   0.02470   0.26770   0.01267  Uiso   1.00
H29    H     0.04370   0.39220   0.82400   0.01267  Uiso   1.00
H30    H     0.95040   0.37040   0.86980   0.01267  Uiso   1.00
H31    H     0.96260   0.36080   0.66240   0.01267  Uiso   1.00
H32    H     0.99180   0.40300   0.73280   0.01267  Uiso   1.00
H33    H     0.00770   0.24670   0.84370   0.01267  Uiso   1.00
H34    H     0.97840   0.20460   0.77340   0.01267  Uiso   1.00
H35    H     0.08280   0.27450   0.88350   0.01267  Uiso   1.00
H36    H     0.07090   0.32530   0.91890   0.01267  Uiso   1.00
H37    H     0.22100   0.30520   0.81100   0.01267  Uiso   1.00
H38    H     0.24590   0.28580   0.87340   0.01267  Uiso   1.00
H39    H     0.34920   0.47000   0.74560   0.01267  Uiso   1.00
H40    H     0.30350   0.38160   0.75480   0.01267  Uiso   1.00
H41    H     0.17490   0.38630   0.92910   0.01267  Uiso   1.00
H42    H     0.22060   0.47490   0.91990   0.01267  Uiso   1.00
H43    H     0.07210   0.14810   0.69810   0.01267  Uiso   1.00
H44    H     0.24330   0.10180   0.67620   0.01267  Uiso   1.00
H45    H     0.27540   0.19050   0.51110   0.01267  Uiso   1.00
H46    H     0.10380   0.23680   0.53220   0.01267  Uiso   1.00
H47    H     0.42380   0.12310   0.60270   0.01267  Uiso   1.00
H48    H     0.42310   0.12530   0.53690   0.01267  Uiso   1.00
H49    H     0.42970   0.02940   0.54940   0.01267  Uiso   1.00
H50    H     0.38650   0.02490   0.61850   0.01267  Uiso   1.00
H51    H     0.55600   0.04100   0.61820   0.01267  Uiso   1.00
H52    H     0.55710   0.97690   0.60890   0.01267  Uiso   1.00
H53    H     0.67230   0.98340   0.40220   0.01267  Uiso   1.00
H54    H     0.58100   0.96510   0.49830   0.01267  Uiso   1.00
H55    H     0.66050   0.09570   0.53790   0.01267  Uiso   1.00
H56    H     0.69080   0.13460   0.43540   0.01267  Uiso   1.00
H57    H     0.94610   0.56600   0.24760   0.01267  Uiso   1.00
H58    H     0.94080   0.39440   0.53460   0.01267  Uiso   1.00
H59    H     0.06500   0.54340   0.84940   0.01267  Uiso   1.00
H60    H     0.54420   0.54630   0.85050   0.01267  Uiso   1.00
H61    H     0.62740   0.66480   0.32960   0.01267  Uiso   1.00
H62    H     0.54080   0.67020   0.42940   0.01267  Uiso   1.00
H63    H     0.50620   0.62250   0.52830   0.01267  Uiso   1.00
H64    H     0.63660   0.54860   0.56060   0.01267  Uiso   1.00
H65    H     0.78620   0.50540   0.49520   0.01267  Uiso   1.00
H66    H     0.97500   0.48150   0.36290   0.01267  Uiso   1.00
H67    H     0.92950   0.49350   0.42870   0.01267  Uiso   1.00
H68    H     0.82090   0.27710   0.47210   0.01267  Uiso   1.00
H69    H     0.77350   0.28140   0.38140   0.01267  Uiso   1.00
H70    H     0.75470   0.33070   0.28750   0.01267  Uiso   1.00
H71    H     0.79640   0.42190   0.25110   0.01267  Uiso   1.00
H72    H     0.85670   0.46410   0.30850   0.01267  Uiso   1.00
H73    H     0.91860   0.72590   0.87010   0.01267  Uiso   1.00
H74    H     0.74300   0.78430   0.88510   0.01267  Uiso   1.00
H75    H     0.57000   0.79270   0.89350   0.01267  Uiso   1.00
H76    H     0.51720   0.71170   0.88530   0.01267  Uiso   1.00
H77    H     0.63740   0.62240   0.86860   0.01267  Uiso   1.00
H78    H     0.74950   0.53400   0.88680   0.01267  Uiso   1.00
H79    H     0.86540   0.50660   0.85900   0.01267  Uiso   1.00
H80    H     0.69590   0.52530   0.66110   0.01267  Uiso   1.00
H81    H     0.87230   0.51030   0.60370   0.01267  Uiso   1.00
H82    H     0.04480   0.50160   0.59680   0.01267  Uiso   1.00
H83    H     0.09580   0.50880   0.67880   0.01267  Uiso   1.00
H84    H     0.97420   0.52470   0.76770   0.01267  Uiso   1.00
H85    H     0.24010   0.89220   0.32400   0.01267  Uiso   1.00
H86    H     0.30940   0.87040   0.36980   0.01267  Uiso   1.00
H87    H     0.51420   0.86080   0.16240   0.01267  Uiso   1.00
H88    H     0.37240   0.90300   0.23280   0.01267  Uiso   1.00
H89    H     0.40190   0.74670   0.34370   0.01267  Uiso   1.00
H90    H     0.54360   0.70460   0.27340   0.01267  Uiso   1.00
H91    H     0.25920   0.77450   0.38350   0.01267  Uiso   1.00
H92    H     0.18490   0.82530   0.41890   0.01267  Uiso   1.00
H93    H     0.16280   0.80520   0.31100   0.01267  Uiso   1.00
H94    H     0.09490   0.78580   0.37340   0.01267  Uiso   1.00
H95    H     0.93520   0.97000   0.24560   0.01267  Uiso   1.00
H96    H     0.06010   0.88160   0.25480   0.01267  Uiso   1.00
H97    H     0.00970   0.88630   0.42910   0.01267  Uiso   1.00
H98    H     0.88460   0.97490   0.41990   0.01267  Uiso   1.00
H99    H     0.58170   0.64810   0.19810   0.01267  Uiso   1.00
H100   H     0.47870   0.60180   0.17620   0.01267  Uiso   1.00
H101   H     0.52300   0.69050   0.01110   0.01267  Uiso   1.00
H102   H     0.62720   0.73680   0.03220   0.01267  Uiso   1.00
H103   H     0.35040   0.62310   0.10270   0.01267  Uiso   1.00
H104   H     0.41470   0.62530   0.03690   0.01267  Uiso   1.00
H105   H     0.49150   0.52940   0.04940   0.01267  Uiso   1.00
H106   H     0.47010   0.52490   0.11850   0.01267  Uiso   1.00
H107   H     0.28480   0.54100   0.11820   0.01267  Uiso   1.00
H108   H     0.35710   0.47690   0.10890   0.01267  Uiso   1.00
H109   H     0.44210   0.48340   0.90220   0.01267  Uiso   1.00
H110   H     0.45560   0.46510   0.99830   0.01267  Uiso   1.00
H111   H     0.20590   0.59570   0.03790   0.01267  Uiso   1.00
H112   H     0.23920   0.63460   0.93540   0.01267  Uiso   1.00
C1     C     0.83560   0.14530   0.73470   0.01267  Uiso   1.00
C2     C     0.74030   0.80180   0.05560   0.01267  Uiso   1.00
C3     C     0.84340   0.13460   0.84060   0.01267  Uiso   1.00
C4     C     0.81950   0.11430   0.79670   0.01267  Uiso   1.00
C5     C     0.77290   0.06590   0.81790   0.01267  Uiso   1.00
C6     C     0.75920   0.03500   0.87600   0.01267  Uiso   1.00
C7     C     0.77320   0.06010   0.92070   0.01267  Uiso   1.00
C8     C     0.81590   0.11020   0.90040   0.01267  Uiso   1.00
C9     C     0.83630   0.13560   0.94180   0.01267  Uiso   1.00
C10    C     0.82050   0.10940   0.00160   0.01267  Uiso   1.00
C11    C     0.77150   0.06300   0.02000   0.01267  Uiso   1.00
C12    C     0.74600   0.03660   0.98160   0.01267  Uiso   1.00
C13    C     0.70690   0.98430   0.89530   0.01267  Uiso   1.00
C14    C     0.89120   0.81370   0.95750   0.01267  Uiso   1.00
C15    C     0.79550   0.83890   0.99190   0.01267  Uiso   1.00
C16    C     0.73770   0.89360   0.97000   0.01267  Uiso   1.00
C17    C     0.77560   0.92320   0.91380   0.01267  Uiso   1.00
C18    C     0.87150   0.89790   0.87930   0.01267  Uiso   1.00
C19    C     0.92920   0.84320   0.90120   0.01267  Uiso   1.00
C20    C     0.02500   0.81800   0.86680   0.01267  Uiso   1.00
C21    C     0.06300   0.84750   0.81050   0.01267  Uiso   1.00
C22    C     0.00520   0.90230   0.78870   0.01267  Uiso   1.00
C23    C     0.90940   0.92750   0.82310   0.01267  Uiso   1.00
C24    C     0.92880   0.14010   0.35510   0.01267  Uiso   1.00
C25    C     0.67730   0.04190   0.24930   0.01267  Uiso   1.00
C26    C     0.04230   0.19340   0.36680   0.01267  Uiso   1.00
C27    C     0.03370   0.14000   0.35680   0.01267  Uiso   1.00
C28    C     0.11880   0.09150   0.35190   0.01267  Uiso   1.00
C29    C     0.21240   0.09640   0.35700   0.01267  Uiso   1.00
C30    C     0.22100   0.14990   0.36690   0.01267  Uiso   1.00
C31    C     0.13590   0.19840   0.37180   0.01267  Uiso   1.00
C32    C     0.14450   0.25180   0.38180   0.01267  Uiso   1.00
C33    C     0.23800   0.25690   0.38690   0.01267  Uiso   1.00
C34    C     0.32320   0.20830   0.38190   0.01267  Uiso   1.00
C35    C     0.31460   0.15490   0.37190   0.01267  Uiso   1.00
C36    C     0.29940   0.03990   0.35350   0.01267  Uiso   1.00
C37    C     0.56160   0.02810   0.19390   0.01267  Uiso   1.00
C38    C     0.57150   0.03770   0.24730   0.01267  Uiso   1.00
C39    C     0.48760   0.04200   0.29640   0.01267  Uiso   1.00
C40    C     0.39360   0.03680   0.29220   0.01267  Uiso   1.00
C41    C     0.38350   0.02720   0.23900   0.01267  Uiso   1.00
C42    C     0.46760   0.02280   0.18980   0.01267  Uiso   1.00
C43    C     0.45750   0.01320   0.13660   0.01267  Uiso   1.00
C44    C     0.36350   0.00800   0.13240   0.01267  Uiso   1.00
C45    C     0.27950   0.01230   0.18150   0.01267  Uiso   1.00
C46    C     0.28960   0.02180   0.23480   0.01267  Uiso   1.00
C47    C     0.01680   0.35730   0.84310   0.01267  Uiso   1.00
C48    C     0.97160   0.33800   0.69880   0.01267  Uiso   1.00
C49    C     0.98910   0.36320   0.74100   0.01267  Uiso   1.00
C50    C     0.00270   0.32900   0.79520   0.01267  Uiso   1.00
C51    C     0.99860   0.26960   0.80740   0.01267  Uiso   1.00
C52    C     0.98110   0.24430   0.76530   0.01267  Uiso   1.00
C53    C     0.08990   0.31480   0.87940   0.01267  Uiso   1.00
C54    C     0.20370   0.31640   0.85020   0.01267  Uiso   1.00
C55    C     0.31430   0.45330   0.78230   0.01267  Uiso   1.00
C56    C     0.28690   0.40030   0.78790   0.01267  Uiso   1.00
C57    C     0.23470   0.37520   0.84280   0.01267  Uiso   1.00
C58    C     0.20990   0.40310   0.89230   0.01267  Uiso   1.00
C59    C     0.23720   0.45620   0.88680   0.01267  Uiso   1.00
C60    C     0.11240   0.15710   0.66010   0.01267  Uiso   1.00
C61    C     0.21600   0.12920   0.64680   0.01267  Uiso   1.00
C62    C     0.28010   0.14060   0.59120   0.01267  Uiso   1.00
C63    C     0.23460   0.18170   0.54910   0.01267  Uiso   1.00
C64    C     0.13120   0.20970   0.56190   0.01267  Uiso   1.00
C65    C     0.39320   0.10970   0.57790   0.01267  Uiso   1.00
C66    C     0.43250   0.04250   0.58450   0.01267  Uiso   1.00
C67    C     0.54210   0.01900   0.59280   0.01267  Uiso   1.00
C68    C     0.66660   0.00780   0.42900   0.01267  Uiso   1.00
C69    C     0.61200   0.99690   0.48710   0.01267  Uiso   1.00
C70    C     0.60180   0.03080   0.52960   0.01267  Uiso   1.00
C71    C     0.65130   0.07710   0.51030   0.01267  Uiso   1.00
C72    C     0.68650   0.09540   0.44960   0.01267  Uiso   1.00
C73    C     0.78440   0.64530   0.23470   0.01267  Uiso   1.00
C74    C     0.90230   0.30180   0.55560   0.01267  Uiso   1.00
C75    C     0.68140   0.63460   0.34060   0.01267  Uiso   1.00
C76    C     0.76950   0.61430   0.29670   0.01267  Uiso   1.00
C77    C     0.84330   0.56590   0.31790   0.01267  Uiso   1.00
C78    C     0.82980   0.53500   0.37600   0.01267  Uiso   1.00
C79    C     0.74600   0.56010   0.42070   0.01267  Uiso   1.00
C80    C     0.67350   0.61020   0.40040   0.01267  Uiso   1.00
C81    C     0.58630   0.63560   0.44180   0.01267  Uiso   1.00
C82    C     0.56850   0.60940   0.50160   0.01267  Uiso   1.00
C83    C     0.64550   0.56300   0.52000   0.01267  Uiso   1.00
C84    C     0.73580   0.53660   0.48160   0.01267  Uiso   1.00
C85    C     0.91350   0.48430   0.39530   0.01267  Uiso   1.00
C86    C     0.83760   0.31370   0.45750   0.01267  Uiso   1.00
C87    C     0.87370   0.33890   0.49190   0.01267  Uiso   1.00
C88    C     0.89870   0.39360   0.47000   0.01267  Uiso   1.00
C89    C     0.88740   0.42320   0.41380   0.01267  Uiso   1.00
C90    C     0.85130   0.39790   0.37930   0.01267  Uiso   1.00
C91    C     0.82640   0.34320   0.40120   0.01267  Uiso   1.00
C92    C     0.79020   0.31800   0.36680   0.01267  Uiso   1.00
C93    C     0.77900   0.34750   0.31050   0.01267  Uiso   1.00
C94    C     0.80380   0.40230   0.28870   0.01267  Uiso   1.00
C95    C     0.84000   0.42750   0.32310   0.01267  Uiso   1.00
C96    C     0.07600   0.64010   0.85510   0.01267  Uiso   1.00
C97    C     0.53150   0.54190   0.74930   0.01267  Uiso   1.00
C98    C     0.89750   0.69340   0.86680   0.01267  Uiso   1.00
C99    C     0.96950   0.64000   0.85680   0.01267  Uiso   1.00
C100   C     0.93780   0.59150   0.85190   0.01267  Uiso   1.00
C101   C     0.83420   0.59640   0.85700   0.01267  Uiso   1.00
C102   C     0.76220   0.64990   0.86690   0.01267  Uiso   1.00
C103   C     0.79390   0.69840   0.87180   0.01267  Uiso   1.00
C104   C     0.72190   0.75180   0.88180   0.01267  Uiso   1.00
C105   C     0.61820   0.75690   0.88690   0.01267  Uiso   1.00
C106   C     0.58660   0.70830   0.88190   0.01267  Uiso   1.00
C107   C     0.65860   0.65490   0.87190   0.01267  Uiso   1.00
C108   C     0.80720   0.53990   0.85350   0.01267  Uiso   1.00
C109   C     0.71640   0.52810   0.69390   0.01267  Uiso   1.00
C110   C     0.64350   0.53770   0.74730   0.01267  Uiso   1.00
C111   C     0.67400   0.54200   0.79640   0.01267  Uiso   1.00
C112   C     0.77740   0.53680   0.79220   0.01267  Uiso   1.00
C113   C     0.85030   0.52720   0.73900   0.01267  Uiso   1.00
C114   C     0.81980   0.52280   0.68980   0.01267  Uiso   1.00
C115   C     0.89270   0.51320   0.63660   0.01267  Uiso   1.00
C116   C     0.99610   0.50800   0.63240   0.01267  Uiso   1.00
C117   C     0.02670   0.51230   0.68150   0.01267  Uiso   1.00
C118   C     0.95380   0.52180   0.73480   0.01267  Uiso   1.00
C119   C     0.28280   0.85730   0.34310   0.01267  Uiso   1.00
C120   C     0.49160   0.83800   0.19880   0.01267  Uiso   1.00
C121   C     0.40670   0.86320   0.24100   0.01267  Uiso   1.00
C122   C     0.37310   0.82900   0.29520   0.01267  Uiso   1.00
C123   C     0.42440   0.76960   0.30740   0.01267  Uiso   1.00
C124   C     0.50930   0.74430   0.26530   0.01267  Uiso   1.00
C125   C     0.21590   0.81480   0.37940   0.01267  Uiso   1.00
C126   C     0.12970   0.81640   0.35020   0.01267  Uiso   1.00
C127   C     0.95010   0.95330   0.28230   0.01267  Uiso   1.00
C128   C     0.02490   0.90030   0.28790   0.01267  Uiso   1.00
C129   C     0.04730   0.87520   0.34280   0.01267  Uiso   1.00
C130   C     0.99470   0.90310   0.39230   0.01267  Uiso   1.00
C131   C     0.91980   0.95620   0.38680   0.01267  Uiso   1.00
C132   C     0.57040   0.65710   0.16010   0.01267  Uiso   1.00
C133   C     0.50800   0.62920   0.14680   0.01267  Uiso   1.00
C134   C     0.48810   0.64060   0.09120   0.01267  Uiso   1.00
C135   C     0.53460   0.68170   0.04910   0.01267  Uiso   1.00
C136   C     0.59720   0.70970   0.06190   0.01267  Uiso   1.00
C137   C     0.41920   0.60970   0.07790   0.01267  Uiso   1.00
C138   C     0.44050   0.54250   0.08450   0.01267  Uiso   1.00
C139   C     0.34610   0.51900   0.09280   0.01267  Uiso   1.00
C140   C     0.39660   0.50780   0.92900   0.01267  Uiso   1.00
C141   C     0.40400   0.49690   0.98710   0.01267  Uiso   1.00
C142   C     0.33780   0.53080   0.02960   0.01267  Uiso   1.00
C143   C     0.26130   0.57710   0.01030   0.01267  Uiso   1.00
C144   C     0.26850   0.59540   0.94960   0.01267  Uiso   1.00
N1     N     0.06760   0.19820   0.61760   0.01267  Uiso   1.00
N2     N     0.71420   0.05500   0.41020   0.01267  Uiso   1.00
N3     N     0.96770   0.27850   0.71090   0.01267  Uiso   1.00
N4     N     0.28940   0.48130   0.83190   0.01267  Uiso   1.00
N5     N     0.61660   0.69820   0.11760   0.01267  Uiso   1.00
N6     N     0.32060   0.55500   0.91020   0.01267  Uiso   1.00
N7     N     0.54290   0.77850   0.21090   0.01267  Uiso   1.00
N8     N     0.89740   0.98130   0.33190   0.01267  Uiso   1.00
O1     O     0.88490   0.18140   0.71260   0.01267  Uiso   1.00
O2     O     0.81910   0.12580   0.69580   0.01267  Uiso   1.00
O3     O     0.66380   0.82140   0.08160   0.01267  Uiso   1.00
O4     O     0.80600   0.75030   0.06330   0.01267  Uiso   1.00
O5     O     0.73610   0.04400   0.78000   0.01267  Uiso   1.00
O6     O     0.64170   0.91620   0.00260   0.01267  Uiso   1.00
O7     O     0.91900   0.09060   0.34780   0.01267  Uiso   1.00
O8     O     0.85570   0.18320   0.35980   0.01267  Uiso   1.00
O9     O     0.69070   0.04830   0.29890   0.01267  Uiso   1.00
O10    O     0.74770   0.04560   0.20160   0.01267  Uiso   1.00
O11    O     0.10280   0.03870   0.34930   0.01267  Uiso   1.00
O12    O     0.50030   0.04360   0.35400   0.01267  Uiso   1.00
O13    O     0.72110   0.68140   0.21260   0.01267  Uiso   1.00
O14    O     0.85930   0.62580   0.19580   0.01267  Uiso   1.00
O15    O     0.93320   0.32140   0.58160   0.01267  Uiso   1.00
O16    O     0.88040   0.25030   0.56330   0.01267  Uiso   1.00
O17    O     0.93990   0.54400   0.28000   0.01267  Uiso   1.00
O18    O     0.93950   0.41620   0.50260   0.01267  Uiso   1.00
O19    O     0.14260   0.59060   0.84780   0.01267  Uiso   1.00
O20    O     0.10130   0.68320   0.85980   0.01267  Uiso   1.00
O21    O     0.46210   0.54830   0.79890   0.01267  Uiso   1.00
O22    O     0.50510   0.54560   0.70160   0.01267  Uiso   1.00
O23    O     0.00920   0.53870   0.84930   0.01267  Uiso   1.00
O24    O     0.60210   0.54360   0.85400   0.01267  Uiso   1.00
Ni5    Ni    0.18723   0.64506   0.24338   0.01267  Uiso   1.00
Ni6    Ni    0.80670   0.32162   0.06798   0.01267  Uiso   1.00
Ni7    Ni    0.42433   0.14506   0.74338   0.01267  Uiso   1.00
Ni8    Ni    0.30370   0.82162   0.56798   0.01267  Uiso   1.00
H113   H     0.44610   0.74760   0.06600   0.01267  Uiso   1.00
H114   H     0.44080   0.03460   0.89440   0.01267  Uiso   1.00
H115   H     0.56500   0.34940   0.04340   0.01267  Uiso   1.00
H116   H     0.04420   0.35050   0.04630   0.01267  Uiso   1.00
H117   H     0.12740   0.82960   0.16480   0.01267  Uiso   1.00
H118   H     0.04080   0.92940   0.17020   0.01267  Uiso   1.00
H119   H     0.00620   0.02830   0.12250   0.01267  Uiso   1.00
H120   H     0.13660   0.06060   0.04860   0.01267  Uiso   1.00
H121   H     0.28620   0.99520   0.00540   0.01267  Uiso   1.00
H122   H     0.47500   0.86290   0.98150   0.01267  Uiso   1.00
H123   H     0.42950   0.92870   0.99350   0.01267  Uiso   1.00
H124   H     0.32090   0.97210   0.77710   0.01267  Uiso   1.00
H125   H     0.27350   0.88140   0.78140   0.01267  Uiso   1.00
H126   H     0.25470   0.78750   0.83070   0.01267  Uiso   1.00
H127   H     0.29640   0.75110   0.92190   0.01267  Uiso   1.00
H128   H     0.35670   0.80850   0.96410   0.01267  Uiso   1.00
H129   H     0.41860   0.37010   0.22590   0.01267  Uiso   1.00
H130   H     0.24300   0.38510   0.28430   0.01267  Uiso   1.00
H131   H     0.07000   0.39350   0.29270   0.01267  Uiso   1.00
H132   H     0.01720   0.38530   0.21170   0.01267  Uiso   1.00
H133   H     0.13740   0.36860   0.12240   0.01267  Uiso   1.00
H134   H     0.24950   0.38680   0.03400   0.01267  Uiso   1.00
H135   H     0.36540   0.35900   0.00660   0.01267  Uiso   1.00
H136   H     0.19590   0.16110   0.02530   0.01267  Uiso   1.00
H137   H     0.37230   0.10370   0.01030   0.01267  Uiso   1.00
H138   H     0.54480   0.09680   0.00160   0.01267  Uiso   1.00
H139   H     0.59580   0.17880   0.00880   0.01267  Uiso   1.00
H140   H     0.47420   0.26770   0.02470   0.01267  Uiso   1.00
H141   H     0.74010   0.82400   0.39220   0.01267  Uiso   1.00
H142   H     0.80940   0.86980   0.37040   0.01267  Uiso   1.00
H143   H     0.01420   0.66240   0.36080   0.01267  Uiso   1.00
H144   H     0.87240   0.73280   0.40300   0.01267  Uiso   1.00
H145   H     0.90190   0.84370   0.24670   0.01267  Uiso   1.00
H146   H     0.04360   0.77340   0.20460   0.01267  Uiso   1.00
H147   H     0.75920   0.88350   0.27450   0.01267  Uiso   1.00
H148   H     0.68490   0.91890   0.32530   0.01267  Uiso   1.00
H149   H     0.66280   0.81100   0.30520   0.01267  Uiso   1.00
H150   H     0.59490   0.87340   0.28580   0.01267  Uiso   1.00
H151   H     0.43520   0.74560   0.47000   0.01267  Uiso   1.00
H152   H     0.56010   0.75480   0.38160   0.01267  Uiso   1.00
H153   H     0.50970   0.92910   0.38630   0.01267  Uiso   1.00
H154   H     0.38460   0.91990   0.47490   0.01267  Uiso   1.00
H155   H     0.08170   0.69810   0.14810   0.01267  Uiso   1.00
H156   H     0.97870   0.67620   0.10180   0.01267  Uiso   1.00
H157   H     0.02300   0.51110   0.19050   0.01267  Uiso   1.00
H158   H     0.12720   0.53220   0.23680   0.01267  Uiso   1.00
H159   H     0.85040   0.60270   0.12310   0.01267  Uiso   1.00
H160   H     0.91470   0.53690   0.12530   0.01267  Uiso   1.00
H161   H     0.99150   0.54940   0.02940   0.01267  Uiso   1.00
H162   H     0.97010   0.61850   0.02490   0.01267  Uiso   1.00
H163   H     0.78480   0.61820   0.04100   0.01267  Uiso   1.00
H164   H     0.85710   0.60890   0.97690   0.01267  Uiso   1.00
H165   H     0.94210   0.40220   0.98340   0.01267  Uiso   1.00
H166   H     0.95560   0.49830   0.96510   0.01267  Uiso   1.00
H167   H     0.70590   0.53790   0.09570   0.01267  Uiso   1.00
H168   H     0.73920   0.43540   0.13460   0.01267  Uiso   1.00
H169   H     0.24030   0.24760   0.56600   0.01267  Uiso   1.00
H170   H     0.13020   0.53460   0.39440   0.01267  Uiso   1.00
H171   H     0.54220   0.84940   0.54340   0.01267  Uiso   1.00
H172   H     0.05900   0.85050   0.54630   0.01267  Uiso   1.00
H173   H     0.37820   0.32960   0.66480   0.01267  Uiso   1.00
H174   H     0.35960   0.42940   0.67020   0.01267  Uiso   1.00
H175   H     0.34300   0.52830   0.62250   0.01267  Uiso   1.00
H176   H     0.25420   0.56060   0.54860   0.01267  Uiso   1.00
H177   H     0.21320   0.49520   0.50540   0.01267  Uiso   1.00
H178   H     0.18060   0.36290   0.48150   0.01267  Uiso   1.00
H179   H     0.14830   0.42870   0.49350   0.01267  Uiso   1.00
H180   H     0.42990   0.47210   0.27710   0.01267  Uiso   1.00
H181   H     0.56370   0.38140   0.28140   0.01267  Uiso   1.00
H182   H     0.62710   0.28750   0.33070   0.01267  Uiso   1.00
H183   H     0.53060   0.25110   0.42190   0.01267  Uiso   1.00
H184   H     0.37070   0.30850   0.46410   0.01267  Uiso   1.00
H185   H     0.48540   0.87010   0.72590   0.01267  Uiso   1.00
H186   H     0.58760   0.88510   0.78430   0.01267  Uiso   1.00
H187   H     0.74380   0.89350   0.79270   0.01267  Uiso   1.00
H188   H     0.88580   0.88530   0.71170   0.01267  Uiso   1.00
H189   H     0.87160   0.86860   0.62240   0.01267  Uiso   1.00
H190   H     0.82970   0.88680   0.53400   0.01267  Uiso   1.00
H191   H     0.76900   0.85900   0.50660   0.01267  Uiso   1.00
H192   H     0.11770   0.66110   0.52530   0.01267  Uiso   1.00
H193   H     0.01370   0.60370   0.51030   0.01267  Uiso   1.00
H194   H     0.85680   0.59680   0.50160   0.01267  Uiso   1.00
H195   H     0.71660   0.67880   0.50880   0.01267  Uiso   1.00
H196   H     0.73340   0.76770   0.52470   0.01267  Uiso   1.00
H197   H     0.54370   0.32400   0.89220   0.01267  Uiso   1.00
H198   H     0.45040   0.36980   0.87040   0.01267  Uiso   1.00
H199   H     0.46260   0.16240   0.86080   0.01267  Uiso   1.00
H200   H     0.49180   0.23280   0.90300   0.01267  Uiso   1.00
H201   H     0.50770   0.34370   0.74670   0.01267  Uiso   1.00
H202   H     0.47840   0.27340   0.70460   0.01267  Uiso   1.00
H203   H     0.58280   0.38350   0.77450   0.01267  Uiso   1.00
H204   H     0.57090   0.41890   0.82530   0.01267  Uiso   1.00
H205   H     0.72100   0.31100   0.80520   0.01267  Uiso   1.00
H206   H     0.74590   0.37340   0.78580   0.01267  Uiso   1.00
H207   H     0.84920   0.24560   0.97000   0.01267  Uiso   1.00
H208   H     0.80350   0.25480   0.88160   0.01267  Uiso   1.00
H209   H     0.67490   0.42910   0.88630   0.01267  Uiso   1.00
H210   H     0.72060   0.41990   0.97490   0.01267  Uiso   1.00
H211   H     0.57210   0.19810   0.64810   0.01267  Uiso   1.00
H212   H     0.74330   0.17620   0.60180   0.01267  Uiso   1.00
H213   H     0.77540   0.01110   0.69050   0.01267  Uiso   1.00
H214   H     0.60380   0.03220   0.73680   0.01267  Uiso   1.00
H215   H     0.92380   0.10270   0.62310   0.01267  Uiso   1.00
H216   H     0.92310   0.03690   0.62530   0.01267  Uiso   1.00
H217   H     0.92970   0.04940   0.52940   0.01267  Uiso   1.00
H218   H     0.88650   0.11850   0.52490   0.01267  Uiso   1.00
H219   H     0.05600   0.11820   0.54100   0.01267  Uiso   1.00
H220   H     0.05710   0.10890   0.47690   0.01267  Uiso   1.00
H221   H     0.17230   0.90220   0.48340   0.01267  Uiso   1.00
H222   H     0.08100   0.99830   0.46510   0.01267  Uiso   1.00
H223   H     0.16050   0.03790   0.59570   0.01267  Uiso   1.00
H224   H     0.19080   0.93540   0.63460   0.01267  Uiso   1.00
C145   C     0.28440   0.73470   0.14530   0.01267  Uiso   1.00
C146   C     0.40230   0.05560   0.80180   0.01267  Uiso   1.00
C147   C     0.18140   0.84060   0.13460   0.01267  Uiso   1.00
C148   C     0.26950   0.79670   0.11430   0.01267  Uiso   1.00
C149   C     0.34330   0.81790   0.06590   0.01267  Uiso   1.00
C150   C     0.32980   0.87600   0.03500   0.01267  Uiso   1.00
C151   C     0.24600   0.92070   0.06010   0.01267  Uiso   1.00
C152   C     0.17350   0.90040   0.11020   0.01267  Uiso   1.00
C153   C     0.08630   0.94180   0.13560   0.01267  Uiso   1.00
C154   C     0.06850   0.00160   0.10940   0.01267  Uiso   1.00
C155   C     0.14550   0.02000   0.06300   0.01267  Uiso   1.00
C156   C     0.23580   0.98160   0.03660   0.01267  Uiso   1.00
C157   C     0.41350   0.89530   0.98430   0.01267  Uiso   1.00
C158   C     0.33760   0.95750   0.81370   0.01267  Uiso   1.00
C159   C     0.37370   0.99190   0.83890   0.01267  Uiso   1.00
C160   C     0.39870   0.97000   0.89360   0.01267  Uiso   1.00
C161   C     0.38740   0.91380   0.92320   0.01267  Uiso   1.00
C162   C     0.35130   0.87930   0.89790   0.01267  Uiso   1.00
C163   C     0.32640   0.90120   0.84320   0.01267  Uiso   1.00
C164   C     0.29020   0.86680   0.81800   0.01267  Uiso   1.00
C165   C     0.27900   0.81050   0.84750   0.01267  Uiso   1.00
C166   C     0.30380   0.78870   0.90230   0.01267  Uiso   1.00
C167   C     0.34000   0.82310   0.92750   0.01267  Uiso   1.00
C168   C     0.57600   0.35510   0.14010   0.01267  Uiso   1.00
C169   C     0.03150   0.24930   0.04190   0.01267  Uiso   1.00
C170   C     0.39750   0.36680   0.19340   0.01267  Uiso   1.00
C171   C     0.46950   0.35680   0.14000   0.01267  Uiso   1.00
C172   C     0.43780   0.35190   0.09150   0.01267  Uiso   1.00
C173   C     0.33420   0.35700   0.09640   0.01267  Uiso   1.00
C174   C     0.26220   0.36690   0.14990   0.01267  Uiso   1.00
C175   C     0.29390   0.37180   0.19840   0.01267  Uiso   1.00
C176   C     0.22190   0.38180   0.25180   0.01267  Uiso   1.00
C177   C     0.11820   0.38690   0.25690   0.01267  Uiso   1.00
C178   C     0.08660   0.38190   0.20830   0.01267  Uiso   1.00
C179   C     0.15860   0.37190   0.15490   0.01267  Uiso   1.00
C180   C     0.30720   0.35350   0.03990   0.01267  Uiso   1.00
C181   C     0.21640   0.19390   0.02810   0.01267  Uiso   1.00
C182   C     0.14350   0.24730   0.03770   0.01267  Uiso   1.00
C183   C     0.17400   0.29640   0.04200   0.01267  Uiso   1.00
C184   C     0.27740   0.29220   0.03680   0.01267  Uiso   1.00
C185   C     0.35030   0.23900   0.02720   0.01267  Uiso   1.00
C186   C     0.31980   0.18980   0.02280   0.01267  Uiso   1.00
C187   C     0.39270   0.13660   0.01320   0.01267  Uiso   1.00
C188   C     0.49610   0.13240   0.00800   0.01267  Uiso   1.00
C189   C     0.52670   0.18150   0.01230   0.01267  Uiso   1.00
C190   C     0.45380   0.23480   0.02180   0.01267  Uiso   1.00
C191   C     0.78280   0.84310   0.35730   0.01267  Uiso   1.00
C192   C     0.99160   0.69880   0.33800   0.01267  Uiso   1.00
C193   C     0.90670   0.74100   0.36320   0.01267  Uiso   1.00
C194   C     0.87310   0.79520   0.32900   0.01267  Uiso   1.00
C195   C     0.92440   0.80740   0.26960   0.01267  Uiso   1.00
C196   C     0.00930   0.76530   0.24430   0.01267  Uiso   1.00
C197   C     0.71590   0.87940   0.31480   0.01267  Uiso   1.00
C198   C     0.62970   0.85020   0.31640   0.01267  Uiso   1.00
C199   C     0.45010   0.78230   0.45330   0.01267  Uiso   1.00
C200   C     0.52490   0.78790   0.40030   0.01267  Uiso   1.00
C201   C     0.54730   0.84280   0.37520   0.01267  Uiso   1.00
C202   C     0.49470   0.89230   0.40310   0.01267  Uiso   1.00
C203   C     0.41980   0.88680   0.45620   0.01267  Uiso   1.00
C204   C     0.07040   0.66010   0.15710   0.01267  Uiso   1.00
C205   C     0.00800   0.64680   0.12920   0.01267  Uiso   1.00
C206   C     0.98810   0.59120   0.14060   0.01267  Uiso   1.00
C207   C     0.03460   0.54910   0.18170   0.01267  Uiso   1.00
C208   C     0.09720   0.56190   0.20970   0.01267  Uiso   1.00
C209   C     0.91920   0.57790   0.10970   0.01267  Uiso   1.00
C210   C     0.94050   0.58450   0.04250   0.01267  Uiso   1.00
C211   C     0.84610   0.59280   0.01900   0.01267  Uiso   1.00
C212   C     0.89660   0.42900   0.00780   0.01267  Uiso   1.00
C213   C     0.90400   0.48710   0.99690   0.01267  Uiso   1.00
C214   C     0.83780   0.52960   0.03080   0.01267  Uiso   1.00
C215   C     0.76130   0.51030   0.07710   0.01267  Uiso   1.00
C216   C     0.76850   0.44960   0.09540   0.01267  Uiso   1.00
C217   C     0.33560   0.23470   0.64530   0.01267  Uiso   1.00
C218   C     0.24030   0.55560   0.30180   0.01267  Uiso   1.00
C219   C     0.34340   0.34060   0.63460   0.01267  Uiso   1.00
C220   C     0.31950   0.29670   0.61430   0.01267  Uiso   1.00
C221   C     0.27290   0.31790   0.56590   0.01267  Uiso   1.00
C222   C     0.25920   0.37600   0.53500   0.01267  Uiso   1.00
C223   C     0.27320   0.42070   0.56010   0.01267  Uiso   1.00
C224   C     0.31590   0.40040   0.61020   0.01267  Uiso   1.00
C225   C     0.33630   0.44180   0.63560   0.01267  Uiso   1.00
C226   C     0.32050   0.50160   0.60940   0.01267  Uiso   1.00
C227   C     0.27150   0.52000   0.56300   0.01267  Uiso   1.00
C228   C     0.24600   0.48160   0.53660   0.01267  Uiso   1.00
C229   C     0.20690   0.39530   0.48430   0.01267  Uiso   1.00
C230   C     0.39120   0.45750   0.31370   0.01267  Uiso   1.00
C231   C     0.29550   0.49190   0.33890   0.01267  Uiso   1.00
C232   C     0.23770   0.47000   0.39360   0.01267  Uiso   1.00
C233   C     0.27560   0.41380   0.42320   0.01267  Uiso   1.00
C234   C     0.37150   0.37930   0.39790   0.01267  Uiso   1.00
C235   C     0.42920   0.40120   0.34320   0.01267  Uiso   1.00
C236   C     0.52500   0.36680   0.31800   0.01267  Uiso   1.00
C237   C     0.56300   0.31050   0.34750   0.01267  Uiso   1.00
C238   C     0.50520   0.28870   0.40230   0.01267  Uiso   1.00
C239   C     0.40940   0.32310   0.42750   0.01267  Uiso   1.00
C240   C     0.42880   0.85510   0.64010   0.01267  Uiso   1.00
C241   C     0.17730   0.74930   0.54190   0.01267  Uiso   1.00
C242   C     0.54230   0.86680   0.69340   0.01267  Uiso   1.00
C243   C     0.53370   0.85680   0.64000   0.01267  Uiso   1.00
C244   C     0.61880   0.85190   0.59150   0.01267  Uiso   1.00
C245   C     0.71240   0.85700   0.59640   0.01267  Uiso   1.00
C246   C     0.72100   0.86690   0.64990   0.01267  Uiso   1.00
C247   C     0.63590   0.87180   0.69840   0.01267  Uiso   1.00
C248   C     0.64450   0.88180   0.75180   0.01267  Uiso   1.00
C249   C     0.73800   0.88690   0.75690   0.01267  Uiso   1.00
C250   C     0.82320   0.88190   0.70830   0.01267  Uiso   1.00
C251   C     0.81460   0.87190   0.65490   0.01267  Uiso   1.00
C252   C     0.79940   0.85350   0.53990   0.01267  Uiso   1.00
C253   C     0.06160   0.69390   0.52810   0.01267  Uiso   1.00
C254   C     0.07150   0.74730   0.53770   0.01267  Uiso   1.00
C255   C     0.98760   0.79640   0.54200   0.01267  Uiso   1.00
C256   C     0.89360   0.79220   0.53680   0.01267  Uiso   1.00
C257   C     0.88350   0.73900   0.52720   0.01267  Uiso   1.00
C258   C     0.96760   0.68980   0.52280   0.01267  Uiso   1.00
C259   C     0.95750   0.63660   0.51320   0.01267  Uiso   1.00
C260   C     0.86350   0.63240   0.50800   0.01267  Uiso   1.00
C261   C     0.77950   0.68150   0.51230   0.01267  Uiso   1.00
C262   C     0.78960   0.73480   0.52180   0.01267  Uiso   1.00
C263   C     0.51680   0.34310   0.85730   0.01267  Uiso   1.00
C264   C     0.47160   0.19880   0.83800   0.01267  Uiso   1.00
C265   C     0.48910   0.24100   0.86320   0.01267  Uiso   1.00
C266   C     0.50270   0.29520   0.82900   0.01267  Uiso   1.00
C267   C     0.49860   0.30740   0.76960   0.01267  Uiso   1.00
C268   C     0.48110   0.26530   0.74430   0.01267  Uiso   1.00
C269   C     0.58990   0.37940   0.81480   0.01267  Uiso   1.00
C270   C     0.70370   0.35020   0.81640   0.01267  Uiso   1.00
C271   C     0.81430   0.28230   0.95330   0.01267  Uiso   1.00
C272   C     0.78690   0.28790   0.90030   0.01267  Uiso   1.00
C273   C     0.73470   0.34280   0.87520   0.01267  Uiso   1.00
C274   C     0.70990   0.39230   0.90310   0.01267  Uiso   1.00
C275   C     0.73720   0.38680   0.95620   0.01267  Uiso   1.00
C276   C     0.61240   0.16010   0.65710   0.01267  Uiso   1.00
C277   C     0.71600   0.14680   0.62920   0.01267  Uiso   1.00
C278   C     0.78010   0.09120   0.64060   0.01267  Uiso   1.00
C279   C     0.73460   0.04910   0.68170   0.01267  Uiso   1.00
C280   C     0.63120   0.06190   0.70970   0.01267  Uiso   1.00
C281   C     0.89320   0.07790   0.60970   0.01267  Uiso   1.00
C282   C     0.93250   0.08450   0.54250   0.01267  Uiso   1.00
C283   C     0.04210   0.09280   0.51900   0.01267  Uiso   1.00
C284   C     0.16660   0.92900   0.50780   0.01267  Uiso   1.00
C285   C     0.11200   0.98710   0.49690   0.01267  Uiso   1.00
C286   C     0.10180   0.02960   0.53080   0.01267  Uiso   1.00
C287   C     0.15130   0.01030   0.57710   0.01267  Uiso   1.00
C288   C     0.18650   0.94960   0.59540   0.01267  Uiso   1.00
N9     N     0.11660   0.61760   0.19820   0.01267  Uiso   1.00
N10    N     0.82060   0.41020   0.05500   0.01267  Uiso   1.00
N11    N     0.04290   0.71090   0.27850   0.01267  Uiso   1.00
N12    N     0.39740   0.83190   0.48130   0.01267  Uiso   1.00
N13    N     0.56760   0.11760   0.69820   0.01267  Uiso   1.00
N14    N     0.21420   0.91020   0.55500   0.01267  Uiso   1.00
N15    N     0.46770   0.21090   0.77850   0.01267  Uiso   1.00
N16    N     0.78940   0.33190   0.98130   0.01267  Uiso   1.00
O25    O     0.22110   0.71260   0.18140   0.01267  Uiso   1.00
O26    O     0.35930   0.69580   0.12580   0.01267  Uiso   1.00
O27    O     0.43320   0.08160   0.82140   0.01267  Uiso   1.00
O28    O     0.38040   0.06330   0.75030   0.01267  Uiso   1.00
O29    O     0.43990   0.78000   0.04400   0.01267  Uiso   1.00
O30    O     0.43950   0.00260   0.91620   0.01267  Uiso   1.00
O31    O     0.64260   0.34780   0.09060   0.01267  Uiso   1.00
O32    O     0.60130   0.35980   0.18320   0.01267  Uiso   1.00
O33    O     0.96210   0.29890   0.04830   0.01267  Uiso   1.00
O34    O     0.00510   0.20160   0.04560   0.01267  Uiso   1.00
O35    O     0.50920   0.34930   0.03870   0.01267  Uiso   1.00
O36    O     0.10210   0.35400   0.04360   0.01267  Uiso   1.00
O37    O     0.38490   0.21260   0.68140   0.01267  Uiso   1.00
O38    O     0.31910   0.19580   0.62580   0.01267  Uiso   1.00
O39    O     0.16380   0.58160   0.32140   0.01267  Uiso   1.00
O40    O     0.30600   0.56330   0.25030   0.01267  Uiso   1.00
O41    O     0.23610   0.28000   0.54400   0.01267  Uiso   1.00
O42    O     0.14170   0.50260   0.41620   0.01267  Uiso   1.00
O43    O     0.41900   0.84780   0.59060   0.01267  Uiso   1.00
O44    O     0.35570   0.85980   0.68320   0.01267  Uiso   1.00
O45    O     0.19070   0.79890   0.54830   0.01267  Uiso   1.00
O46    O     0.24770   0.70160   0.54560   0.01267  Uiso   1.00
O47    O     0.60280   0.84930   0.53870   0.01267  Uiso   1.00
O48    O     0.00030   0.85400   0.54360   0.01267  Uiso   1.00
