data_YARDIG_clean
_audit_creation_date              2014-07-02
_audit_creation_method            'Materials Studio'
_symmetry_space_group_name_H-M    'P1'
_symmetry_Int_Tables_number       1
_symmetry_cell_setting            triclinic
loop_
_symmetry_equiv_pos_as_xyz
  x,y,z
_cell_length_a                    11.4539
_cell_length_b                    11.7270
_cell_length_c                    14.1389
_cell_angle_alpha                 112.6570
_cell_angle_beta                  90.0000
_cell_angle_gamma                 119.2320
loop_
_atom_site_label
_atom_site_type_symbol
_atom_site_fract_x
_atom_site_fract_y
_atom_site_fract_z
_atom_site_U_iso_or_equiv
_atom_site_adp_type
_atom_site_occupancy
Co1    Co    0.01439   0.00000   0.75000   0.01267  Uiso   1.00
Co2    Co    0.98561   0.00000   0.25000   0.01267  Uiso   1.00
H1     H     0.16310   0.70060   0.64820   0.01267  Uiso   1.00
H2     H     0.20780   0.52460   0.54750   0.01267  Uiso   1.00
H3     H     0.94840   0.16100   0.96450   0.01267  Uiso   1.00
H4     H     0.80280   0.74300   0.80440   0.01267  Uiso   1.00
H5     H     0.69830   0.77500   0.95560   0.01267  Uiso   1.00
H6     H     0.76110   0.02460   0.13450   0.01267  Uiso   1.00
H7     H     0.83310   0.16760   0.11880   0.01267  Uiso   1.00
H8     H     0.51330   0.85400   0.06580   0.01267  Uiso   1.00
H9     H     0.30100   0.79860   0.99350   0.01267  Uiso   1.00
H10    H     0.46250   0.29940   0.85180   0.01267  Uiso   1.00
H11    H     0.68320   0.47540   0.95250   0.01267  Uiso   1.00
H12    H     0.78740   0.83900   0.53550   0.01267  Uiso   1.00
H13    H     0.05980   0.25700   0.69560   0.01267  Uiso   1.00
H14    H     0.92330   0.22500   0.54440   0.01267  Uiso   1.00
H15    H     0.73650   0.97540   0.36550   0.01267  Uiso   1.00
H16    H     0.66550   0.83240   0.38120   0.01267  Uiso   1.00
H17    H     0.65930   0.14600   0.43420   0.01267  Uiso   1.00
H18    H     0.50240   0.20140   0.50650   0.01267  Uiso   1.00
H19    H     0.83690   0.29940   0.35180   0.01267  Uiso   1.00
H20    H     0.79220   0.47540   0.45250   0.01267  Uiso   1.00
H21    H     0.05160   0.83900   0.03550   0.01267  Uiso   1.00
H22    H     0.19720   0.25700   0.19560   0.01267  Uiso   1.00
H23    H     0.30170   0.22500   0.04440   0.01267  Uiso   1.00
H24    H     0.23890   0.97540   0.86550   0.01267  Uiso   1.00
H25    H     0.16690   0.83240   0.88120   0.01267  Uiso   1.00
H26    H     0.48670   0.14600   0.93420   0.01267  Uiso   1.00
H27    H     0.69900   0.20140   0.00650   0.01267  Uiso   1.00
H28    H     0.53750   0.70060   0.14820   0.01267  Uiso   1.00
H29    H     0.31680   0.52460   0.04750   0.01267  Uiso   1.00
H30    H     0.21260   0.16100   0.46450   0.01267  Uiso   1.00
H31    H     0.94020   0.74300   0.30440   0.01267  Uiso   1.00
H32    H     0.07670   0.77500   0.45560   0.01267  Uiso   1.00
H33    H     0.26350   0.02460   0.63450   0.01267  Uiso   1.00
H34    H     0.33450   0.16760   0.61880   0.01267  Uiso   1.00
H35    H     0.34070   0.85400   0.56580   0.01267  Uiso   1.00
H36    H     0.49760   0.79860   0.49350   0.01267  Uiso   1.00
C1     C     0.94702   0.72424   0.62391   0.01267  Uiso   1.00
C2     C     0.97316   0.60632   0.56092   0.01267  Uiso   1.00
C3     C     0.09737   0.61974   0.58849   0.01267  Uiso   1.00
C4     C     0.12446   0.51452   0.52829   0.01267  Uiso   1.00
C5     C     0.89966   0.06096   0.94304   0.01267  Uiso   1.00
C6     C     0.81918   0.83136   0.85548   0.01267  Uiso   1.00
C7     C     0.76132   0.84824   0.93897   0.01267  Uiso   1.00
C8     C     0.76725   0.06330   0.08389   0.01267  Uiso   1.00
C9     C     0.62796   0.03332   0.04424   0.01267  Uiso   1.00
C10    C     0.50821   0.91322   0.03940   0.01267  Uiso   1.00
C11    C     0.38071   0.87962   0.99580   0.01267  Uiso   1.00
C12    C     0.22278   0.27576   0.87609   0.01267  Uiso   1.00
C13    C     0.36684   0.39368   0.93908   0.01267  Uiso   1.00
C14    C     0.47763   0.38026   0.91151   0.01267  Uiso   1.00
C15    C     0.60994   0.48548   0.97171   0.01267  Uiso   1.00
C16    C     0.83870   0.93904   0.55696   0.01267  Uiso   1.00
C17    C     0.98782   0.16864   0.64452   0.01267  Uiso   1.00
C18    C     0.91308   0.15176   0.56103   0.01267  Uiso   1.00
C19    C     0.70395   0.93670   0.41611   0.01267  Uiso   1.00
C20    C     0.59464   0.96668   0.45576   0.01267  Uiso   1.00
C21    C     0.59499   0.08678   0.46060   0.01267  Uiso   1.00
C22    C     0.50109   0.12038   0.50420   0.01267  Uiso   1.00
C23    C     0.05298   0.27576   0.37609   0.01267  Uiso   1.00
C24    C     0.02684   0.39368   0.43908   0.01267  Uiso   1.00
C25    C     0.90263   0.38026   0.41151   0.01267  Uiso   1.00
C26    C     0.87554   0.48548   0.47171   0.01267  Uiso   1.00
C27    C     0.10034   0.93904   0.05696   0.01267  Uiso   1.00
C28    C     0.18082   0.16864   0.14452   0.01267  Uiso   1.00
C29    C     0.23868   0.15176   0.06103   0.01267  Uiso   1.00
C30    C     0.23275   0.93670   0.91611   0.01267  Uiso   1.00
C31    C     0.37204   0.96668   0.95576   0.01267  Uiso   1.00
C32    C     0.49179   0.08678   0.96060   0.01267  Uiso   1.00
C33    C     0.61929   0.12038   0.00420   0.01267  Uiso   1.00
C34    C     0.77722   0.72424   0.12391   0.01267  Uiso   1.00
C35    C     0.63316   0.60632   0.06092   0.01267  Uiso   1.00
C36    C     0.52237   0.61974   0.08849   0.01267  Uiso   1.00
C37    C     0.39006   0.51452   0.02829   0.01267  Uiso   1.00
C38    C     0.16130   0.06096   0.44304   0.01267  Uiso   1.00
C39    C     0.01218   0.83136   0.35548   0.01267  Uiso   1.00
C40    C     0.08692   0.84824   0.43897   0.01267  Uiso   1.00
C41    C     0.29605   0.06330   0.58389   0.01267  Uiso   1.00
C42    C     0.40536   0.03332   0.54424   0.01267  Uiso   1.00
C43    C     0.40501   0.91322   0.53940   0.01267  Uiso   1.00
C44    C     0.49891   0.87962   0.49580   0.01267  Uiso   1.00
N1     N     0.90621   0.96534   0.85771   0.01267  Uiso   1.00
N2     N     0.81343   0.99416   0.99424   0.01267  Uiso   1.00
N3     N     0.94087   0.03466   0.64229   0.01267  Uiso   1.00
N4     N     0.81927   0.00584   0.50576   0.01267  Uiso   1.00
N5     N     0.09379   0.03466   0.14229   0.01267  Uiso   1.00
N6     N     0.18657   0.00584   0.00576   0.01267  Uiso   1.00
N7     N     0.05913   0.96534   0.35771   0.01267  Uiso   1.00
N8     N     0.18073   0.99416   0.49424   0.01267  Uiso   1.00
O1     O     0.05311   0.84476   0.68690   0.01267  Uiso   1.00
O2     O     0.83009   0.70252   0.61086   0.01267  Uiso   1.00
O3     O     0.20835   0.15524   0.81310   0.01267  Uiso   1.00
O4     O     0.12757   0.29748   0.88914   0.01267  Uiso   1.00
O5     O     0.94689   0.15524   0.31310   0.01267  Uiso   1.00
O6     O     0.16991   0.29748   0.38914   0.01267  Uiso   1.00
O7     O     0.79165   0.84476   0.18690   0.01267  Uiso   1.00
O8     O     0.87243   0.70252   0.11086   0.01267  Uiso   1.00
