data_YARKEJ_clean
_audit_creation_date              2014-07-02
_audit_creation_method            'Materials Studio'
_symmetry_space_group_name_H-M    'P1'
_symmetry_Int_Tables_number       1
_symmetry_cell_setting            triclinic
loop_
_symmetry_equiv_pos_as_xyz
  x,y,z
_cell_length_a                    12.0995
_cell_length_b                    14.0077
_cell_length_c                    14.0077
_cell_angle_alpha                 97.5462
_cell_angle_beta                  100.0830
_cell_angle_gamma                 79.9168
loop_
_atom_site_label
_atom_site_type_symbol
_atom_site_fract_x
_atom_site_fract_y
_atom_site_fract_z
_atom_site_U_iso_or_equiv
_atom_site_adp_type
_atom_site_occupancy
Zn1    Zn    0.10065   0.23015   0.81609   0.01267  Uiso   1.00
Zn2    Zn    0.39935   0.81609   0.23015   0.01267  Uiso   1.00
Zn3    Zn    0.89935   0.76985   0.18391   0.01267  Uiso   1.00
Zn4    Zn    0.60065   0.18391   0.76985   0.01267  Uiso   1.00
H1     H     0.03580   0.33810   0.15330   0.01267  Uiso   1.00
H2     H     0.94430   0.32330   0.28130   0.01267  Uiso   1.00
H3     H     0.68190   0.24100   0.09260   0.01267  Uiso   1.00
H4     H     0.87750   0.34450   0.76950   0.01267  Uiso   1.00
H5     H     0.77370   0.43900   0.65540   0.01267  Uiso   1.00
H6     H     0.00400   0.34440   0.48200   0.01267  Uiso   1.00
H7     H     0.10840   0.25500   0.60400   0.01267  Uiso   1.00
H8     H     0.83500   0.44030   0.41650   0.01267  Uiso   1.00
H9     H     0.83420   0.53090   0.49450   0.01267  Uiso   1.00
H10    H     0.34200   0.20730   0.91010   0.01267  Uiso   1.00
H11    H     0.48610   0.29650   0.96110   0.01267  Uiso   1.00
H12    H     0.28160   0.52720   0.85920   0.01267  Uiso   1.00
H13    H     0.14060   0.43450   0.81450   0.01267  Uiso   1.00
H14    H     0.48020   0.54110   0.91150   0.01267  Uiso   1.00
H15    H     0.56690   0.44630   0.93330   0.01267  Uiso   1.00
H16    H     0.46420   0.15330   0.33810   0.01267  Uiso   1.00
H17    H     0.55570   0.28130   0.32330   0.01267  Uiso   1.00
H18    H     0.81810   0.09260   0.24100   0.01267  Uiso   1.00
H19    H     0.62250   0.76950   0.34450   0.01267  Uiso   1.00
H20    H     0.72630   0.65540   0.43900   0.01267  Uiso   1.00
H21    H     0.49600   0.48200   0.34440   0.01267  Uiso   1.00
H22    H     0.39160   0.60400   0.25500   0.01267  Uiso   1.00
H23    H     0.66500   0.41650   0.44030   0.01267  Uiso   1.00
H24    H     0.66580   0.49450   0.53090   0.01267  Uiso   1.00
H25    H     0.15800   0.91010   0.20730   0.01267  Uiso   1.00
H26    H     0.01390   0.96110   0.29650   0.01267  Uiso   1.00
H27    H     0.21840   0.85920   0.52720   0.01267  Uiso   1.00
H28    H     0.35940   0.81450   0.43450   0.01267  Uiso   1.00
H29    H     0.01980   0.91150   0.54110   0.01267  Uiso   1.00
H30    H     0.93310   0.93330   0.44630   0.01267  Uiso   1.00
H31    H     0.96420   0.66190   0.84670   0.01267  Uiso   1.00
H32    H     0.05570   0.67670   0.71870   0.01267  Uiso   1.00
H33    H     0.31810   0.75900   0.90740   0.01267  Uiso   1.00
H34    H     0.12250   0.65550   0.23050   0.01267  Uiso   1.00
H35    H     0.22630   0.56100   0.34460   0.01267  Uiso   1.00
H36    H     0.99600   0.65560   0.51800   0.01267  Uiso   1.00
H37    H     0.89160   0.74500   0.39600   0.01267  Uiso   1.00
H38    H     0.16500   0.55970   0.58350   0.01267  Uiso   1.00
H39    H     0.16580   0.46910   0.50550   0.01267  Uiso   1.00
H40    H     0.65800   0.79270   0.08990   0.01267  Uiso   1.00
H41    H     0.51390   0.70350   0.03890   0.01267  Uiso   1.00
H42    H     0.71840   0.47280   0.14080   0.01267  Uiso   1.00
H43    H     0.85940   0.56550   0.18550   0.01267  Uiso   1.00
H44    H     0.51980   0.45890   0.08850   0.01267  Uiso   1.00
H45    H     0.43310   0.55370   0.06670   0.01267  Uiso   1.00
H46    H     0.53580   0.84670   0.66190   0.01267  Uiso   1.00
H47    H     0.44430   0.71870   0.67670   0.01267  Uiso   1.00
H48    H     0.18190   0.90740   0.75900   0.01267  Uiso   1.00
H49    H     0.37750   0.23050   0.65550   0.01267  Uiso   1.00
H50    H     0.27370   0.34460   0.56100   0.01267  Uiso   1.00
H51    H     0.50400   0.51800   0.65560   0.01267  Uiso   1.00
H52    H     0.60840   0.39600   0.74500   0.01267  Uiso   1.00
H53    H     0.33500   0.58350   0.55970   0.01267  Uiso   1.00
H54    H     0.33420   0.50550   0.46910   0.01267  Uiso   1.00
H55    H     0.84200   0.08990   0.79270   0.01267  Uiso   1.00
H56    H     0.98610   0.03890   0.70350   0.01267  Uiso   1.00
H57    H     0.78160   0.14080   0.47280   0.01267  Uiso   1.00
H58    H     0.64060   0.18550   0.56550   0.01267  Uiso   1.00
H59    H     0.98020   0.08850   0.45890   0.01267  Uiso   1.00
H60    H     0.06690   0.06670   0.55370   0.01267  Uiso   1.00
C1     C     0.80780   0.26874   0.02706   0.01267  Uiso   1.00
C2     C     0.91460   0.29620   0.04500   0.01267  Uiso   1.00
C3     C     0.96510   0.31770   0.14070   0.01267  Uiso   1.00
C4     C     0.91020   0.30900   0.21740   0.01267  Uiso   1.00
C5     C     0.80600   0.27917   0.19903   0.01267  Uiso   1.00
C6     C     0.75350   0.25998   0.10462   0.01267  Uiso   1.00
C7     C     0.74180   0.26173   0.92647   0.01267  Uiso   1.00
C8     C     0.98160   0.30090   0.96530   0.01267  Uiso   1.00
C9     C     0.90540   0.34550   0.71190   0.01267  Uiso   1.00
C10    C     0.84190   0.40140   0.64280   0.01267  Uiso   1.00
C11    C     0.87720   0.40280   0.55480   0.01267  Uiso   1.00
C12    C     0.97700   0.34690   0.54070   0.01267  Uiso   1.00
C13    C     0.03960   0.29284   0.61476   0.01267  Uiso   1.00
C14    C     0.81180   0.46680   0.47880   0.01267  Uiso   1.00
C15    C     0.32910   0.27290   0.90010   0.01267  Uiso   1.00
C16    C     0.41660   0.32590   0.92990   0.01267  Uiso   1.00
C17    C     0.40110   0.42330   0.91330   0.01267  Uiso   1.00
C18    C     0.29620   0.46190   0.87050   0.01267  Uiso   1.00
C19    C     0.21150   0.40560   0.84360   0.01267  Uiso   1.00
C20    C     0.49530   0.48430   0.94730   0.01267  Uiso   1.00
C21    C     0.69220   0.02706   0.26874   0.01267  Uiso   1.00
C22    C     0.58540   0.04500   0.29620   0.01267  Uiso   1.00
C23    C     0.53490   0.14070   0.31770   0.01267  Uiso   1.00
C24    C     0.58980   0.21740   0.30900   0.01267  Uiso   1.00
C25    C     0.69400   0.19903   0.27917   0.01267  Uiso   1.00
C26    C     0.74650   0.10462   0.25998   0.01267  Uiso   1.00
C27    C     0.75820   0.92647   0.26173   0.01267  Uiso   1.00
C28    C     0.51840   0.96530   0.30090   0.01267  Uiso   1.00
C29    C     0.59460   0.71190   0.34550   0.01267  Uiso   1.00
C30    C     0.65810   0.64280   0.40140   0.01267  Uiso   1.00
C31    C     0.62280   0.55480   0.40280   0.01267  Uiso   1.00
C32    C     0.52300   0.54070   0.34690   0.01267  Uiso   1.00
C33    C     0.46040   0.61476   0.29284   0.01267  Uiso   1.00
C34    C     0.68820   0.47880   0.46680   0.01267  Uiso   1.00
C35    C     0.17090   0.90010   0.27290   0.01267  Uiso   1.00
C36    C     0.08340   0.92990   0.32590   0.01267  Uiso   1.00
C37    C     0.09890   0.91330   0.42330   0.01267  Uiso   1.00
C38    C     0.20380   0.87050   0.46190   0.01267  Uiso   1.00
C39    C     0.28850   0.84360   0.40560   0.01267  Uiso   1.00
C40    C     0.00470   0.94730   0.48430   0.01267  Uiso   1.00
C41    C     0.19220   0.73126   0.97294   0.01267  Uiso   1.00
C42    C     0.08540   0.70380   0.95500   0.01267  Uiso   1.00
C43    C     0.03490   0.68230   0.85930   0.01267  Uiso   1.00
C44    C     0.08980   0.69100   0.78260   0.01267  Uiso   1.00
C45    C     0.19400   0.72083   0.80097   0.01267  Uiso   1.00
C46    C     0.24650   0.74002   0.89538   0.01267  Uiso   1.00
C47    C     0.25820   0.73827   0.07353   0.01267  Uiso   1.00
C48    C     0.01840   0.69910   0.03470   0.01267  Uiso   1.00
C49    C     0.09460   0.65450   0.28810   0.01267  Uiso   1.00
C50    C     0.15810   0.59860   0.35720   0.01267  Uiso   1.00
C51    C     0.12280   0.59720   0.44520   0.01267  Uiso   1.00
C52    C     0.02300   0.65310   0.45930   0.01267  Uiso   1.00
C53    C     0.96040   0.70716   0.38524   0.01267  Uiso   1.00
C54    C     0.18820   0.53320   0.52120   0.01267  Uiso   1.00
C55    C     0.67090   0.72710   0.09990   0.01267  Uiso   1.00
C56    C     0.58340   0.67410   0.07010   0.01267  Uiso   1.00
C57    C     0.59890   0.57670   0.08670   0.01267  Uiso   1.00
C58    C     0.70380   0.53810   0.12950   0.01267  Uiso   1.00
C59    C     0.78850   0.59440   0.15640   0.01267  Uiso   1.00
C60    C     0.50470   0.51570   0.05270   0.01267  Uiso   1.00
C61    C     0.30780   0.97294   0.73126   0.01267  Uiso   1.00
C62    C     0.41460   0.95500   0.70380   0.01267  Uiso   1.00
C63    C     0.46510   0.85930   0.68230   0.01267  Uiso   1.00
C64    C     0.41020   0.78260   0.69100   0.01267  Uiso   1.00
C65    C     0.30600   0.80097   0.72083   0.01267  Uiso   1.00
C66    C     0.25350   0.89538   0.74002   0.01267  Uiso   1.00
C67    C     0.24180   0.07353   0.73827   0.01267  Uiso   1.00
C68    C     0.48160   0.03470   0.69910   0.01267  Uiso   1.00
C69    C     0.40540   0.28810   0.65450   0.01267  Uiso   1.00
C70    C     0.34190   0.35720   0.59860   0.01267  Uiso   1.00
C71    C     0.37720   0.44520   0.59720   0.01267  Uiso   1.00
C72    C     0.47700   0.45930   0.65310   0.01267  Uiso   1.00
C73    C     0.53960   0.38524   0.70716   0.01267  Uiso   1.00
C74    C     0.31180   0.52120   0.53320   0.01267  Uiso   1.00
C75    C     0.82910   0.09990   0.72710   0.01267  Uiso   1.00
C76    C     0.91660   0.07010   0.67410   0.01267  Uiso   1.00
C77    C     0.90110   0.08670   0.57670   0.01267  Uiso   1.00
C78    C     0.79620   0.12950   0.53810   0.01267  Uiso   1.00
C79    C     0.71150   0.15640   0.59440   0.01267  Uiso   1.00
C80    C     0.99530   0.05270   0.51570   0.01267  Uiso   1.00
N1     N     0.00480   0.29292   0.70028   0.01267  Uiso   1.00
N2     N     0.22640   0.31130   0.85734   0.01267  Uiso   1.00
N3     N     0.49520   0.70028   0.29292   0.01267  Uiso   1.00
N4     N     0.27360   0.85734   0.31130   0.01267  Uiso   1.00
N5     N     0.99520   0.70708   0.29972   0.01267  Uiso   1.00
N6     N     0.77360   0.68870   0.14266   0.01267  Uiso   1.00
N7     N     0.50480   0.29972   0.70708   0.01267  Uiso   1.00
N8     N     0.72640   0.14266   0.68870   0.01267  Uiso   1.00
O1     O     0.67820   0.19534   0.90500   0.01267  Uiso   1.00
O2     O     0.74820   0.31884   0.86998   0.01267  Uiso   1.00
O3     O     0.99590   0.22475   0.90669   0.01267  Uiso   1.00
O4     O     0.01650   0.37590   0.95790   0.01267  Uiso   1.00
O5     O     0.82180   0.90500   0.19534   0.01267  Uiso   1.00
O6     O     0.75180   0.86998   0.31884   0.01267  Uiso   1.00
O7     O     0.50410   0.90669   0.22475   0.01267  Uiso   1.00
O8     O     0.48350   0.95790   0.37590   0.01267  Uiso   1.00
O9     O     0.32180   0.80466   0.09500   0.01267  Uiso   1.00
O10    O     0.25180   0.68116   0.13002   0.01267  Uiso   1.00
O11    O     0.00410   0.77525   0.09331   0.01267  Uiso   1.00
O12    O     0.98350   0.62410   0.04210   0.01267  Uiso   1.00
O13    O     0.17820   0.09500   0.80466   0.01267  Uiso   1.00
O14    O     0.24820   0.13002   0.68116   0.01267  Uiso   1.00
O15    O     0.49590   0.09331   0.77525   0.01267  Uiso   1.00
O16    O     0.51650   0.04210   0.62410   0.01267  Uiso   1.00
O17    O     0.75000   0.27810   0.27810   0.01267  Uiso   1.00
O18    O     0.25000   0.72190   0.72190   0.01267  Uiso   1.00
