data_YARKAF_clean
_audit_creation_date              2014-07-02
_audit_creation_method            'Materials Studio'
_symmetry_space_group_name_H-M    'P1'
_symmetry_Int_Tables_number       1
_symmetry_cell_setting            triclinic
loop_
_symmetry_equiv_pos_as_xyz
  x,y,z
_cell_length_a                    13.8606
_cell_length_b                    16.9142
_cell_length_c                    18.1588
_cell_angle_alpha                 112.8950
_cell_angle_beta                  96.8400
_cell_angle_gamma                 101.8400
loop_
_atom_site_label
_atom_site_type_symbol
_atom_site_fract_x
_atom_site_fract_y
_atom_site_fract_z
_atom_site_U_iso_or_equiv
_atom_site_adp_type
_atom_site_occupancy
Zn1    Zn    0.16113   0.34662   0.85179   0.01267  Uiso   1.00
Zn2    Zn    0.82146   0.14901   0.15318   0.01267  Uiso   1.00
Zn3    Zn    0.14119   0.92769   0.59850   0.01267  Uiso   1.00
Zn4    Zn    0.14996   0.41367   0.60365   0.01267  Uiso   1.00
Zn5    Zn    0.83887   0.65338   0.14821   0.01267  Uiso   1.00
Zn6    Zn    0.17854   0.85099   0.84682   0.01267  Uiso   1.00
Zn7    Zn    0.85881   0.07231   0.40150   0.01267  Uiso   1.00
Zn8    Zn    0.85004   0.58633   0.39635   0.01267  Uiso   1.00
H1     H     0.81910   0.38550   0.84490   0.01267  Uiso   1.00
H2     H     0.63750   0.32790   0.63220   0.01267  Uiso   1.00
H3     H     0.77450   0.33150   0.57150   0.01267  Uiso   1.00
H4     H     0.46320   0.37430   0.79510   0.01267  Uiso   1.00
H5     H     0.61090   0.19240   0.69850   0.01267  Uiso   1.00
H6     H     0.46160   0.08130   0.65450   0.01267  Uiso   1.00
H7     H     0.51450   0.14430   0.20640   0.01267  Uiso   1.00
H8     H     0.37120   0.33480   0.25530   0.01267  Uiso   1.00
H9     H     0.52430   0.44160   0.30000   0.01267  Uiso   1.00
H10    H     0.15210   0.12190   0.14720   0.01267  Uiso   1.00
H11    H     0.36370   0.19790   0.35000   0.01267  Uiso   1.00
H12    H     0.23860   0.17780   0.41980   0.01267  Uiso   1.00
H13    H     0.20850   0.24250   0.94830   0.01267  Uiso   1.00
H14    H     0.19770   0.23970   0.07150   0.01267  Uiso   1.00
H15    H     0.04030   0.41780   0.11160   0.01267  Uiso   1.00
H16    H     0.05520   0.41830   0.98740   0.01267  Uiso   1.00
H17    H     0.26740   0.41780   0.48380   0.01267  Uiso   1.00
H18    H     0.25700   0.41650   0.35590   0.01267  Uiso   1.00
H19    H     0.97060   0.39760   0.33790   0.01267  Uiso   1.00
H20    H     0.98530   0.39960   0.46550   0.01267  Uiso   1.00
H21    H     0.16120   0.30620   0.20530   0.01267  Uiso   1.00
H22    H     0.04400   0.28630   0.18010   0.01267  Uiso   1.00
H23    H     0.17250   0.45720   0.25720   0.01267  Uiso   1.00
H24    H     0.05410   0.43220   0.23900   0.01267  Uiso   1.00
H25    H     0.21420   0.50140   0.81240   0.01267  Uiso   1.00
H26    H     0.32360   0.64010   0.86110   0.01267  Uiso   1.00
H27    H     0.42510   0.61160   0.06050   0.01267  Uiso   1.00
H28    H     0.32100   0.47010   0.00180   0.01267  Uiso   1.00
H29    H     0.77570   0.99670   0.19650   0.01267  Uiso   1.00
H30    H     0.67070   0.85580   0.14950   0.01267  Uiso   1.00
H31    H     0.55580   0.88520   0.95180   0.01267  Uiso   1.00
H32    H     0.65390   0.02830   0.01110   0.01267  Uiso   1.00
H33    H     0.43970   0.77270   0.06830   0.01267  Uiso   1.00
H34    H     0.41540   0.78200   0.98500   0.01267  Uiso   1.00
H35    H     0.57100   0.71510   0.02740   0.01267  Uiso   1.00
H36    H     0.54670   0.72440   0.94420   0.01267  Uiso   1.00
H37    H     0.78410   0.25530   0.05990   0.01267  Uiso   1.00
H38    H     0.79690   0.26100   0.93840   0.01267  Uiso   1.00
H39    H     0.94630   0.07520   0.89390   0.01267  Uiso   1.00
H40    H     0.92260   0.07010   0.01570   0.01267  Uiso   1.00
H41    H     0.72150   0.05710   0.50560   0.01267  Uiso   1.00
H42    H     0.71890   0.05950   0.63230   0.01267  Uiso   1.00
H43    H     0.01830   0.11100   0.67980   0.01267  Uiso   1.00
H44    H     0.01550   0.10900   0.55340   0.01267  Uiso   1.00
H45    H     0.82960   0.19290   0.80290   0.01267  Uiso   1.00
H46    H     0.94610   0.20550   0.82470   0.01267  Uiso   1.00
H47    H     0.80520   0.04010   0.74980   0.01267  Uiso   1.00
H48    H     0.92280   0.05670   0.76580   0.01267  Uiso   1.00
H49    H     0.18090   0.61450   0.15510   0.01267  Uiso   1.00
H50    H     0.36250   0.67210   0.36780   0.01267  Uiso   1.00
H51    H     0.22550   0.66850   0.42850   0.01267  Uiso   1.00
H52    H     0.53680   0.62570   0.20490   0.01267  Uiso   1.00
H53    H     0.38910   0.80760   0.30150   0.01267  Uiso   1.00
H54    H     0.53840   0.91870   0.34550   0.01267  Uiso   1.00
H55    H     0.48550   0.85570   0.79360   0.01267  Uiso   1.00
H56    H     0.62880   0.66520   0.74470   0.01267  Uiso   1.00
H57    H     0.47570   0.55840   0.70000   0.01267  Uiso   1.00
H58    H     0.84790   0.87810   0.85280   0.01267  Uiso   1.00
H59    H     0.63630   0.80210   0.65000   0.01267  Uiso   1.00
H60    H     0.76140   0.82220   0.58020   0.01267  Uiso   1.00
H61    H     0.79150   0.75750   0.05170   0.01267  Uiso   1.00
H62    H     0.80230   0.76030   0.92850   0.01267  Uiso   1.00
H63    H     0.95970   0.58220   0.88840   0.01267  Uiso   1.00
H64    H     0.94480   0.58170   0.01260   0.01267  Uiso   1.00
H65    H     0.73260   0.58220   0.51620   0.01267  Uiso   1.00
H66    H     0.74300   0.58350   0.64410   0.01267  Uiso   1.00
H67    H     0.02940   0.60240   0.66210   0.01267  Uiso   1.00
H68    H     0.01470   0.60040   0.53450   0.01267  Uiso   1.00
H69    H     0.83880   0.69380   0.79470   0.01267  Uiso   1.00
H70    H     0.95600   0.71370   0.81990   0.01267  Uiso   1.00
H71    H     0.82750   0.54280   0.74280   0.01267  Uiso   1.00
H72    H     0.94590   0.56780   0.76100   0.01267  Uiso   1.00
H73    H     0.78580   0.49860   0.18760   0.01267  Uiso   1.00
H74    H     0.67640   0.35990   0.13890   0.01267  Uiso   1.00
H75    H     0.57490   0.38840   0.93950   0.01267  Uiso   1.00
H76    H     0.67900   0.52990   0.99820   0.01267  Uiso   1.00
H77    H     0.22430   0.00330   0.80350   0.01267  Uiso   1.00
H78    H     0.32930   0.14420   0.85050   0.01267  Uiso   1.00
H79    H     0.44420   0.11480   0.04820   0.01267  Uiso   1.00
H80    H     0.34610   0.97170   0.98890   0.01267  Uiso   1.00
H81    H     0.56030   0.22730   0.93170   0.01267  Uiso   1.00
H82    H     0.58460   0.21800   0.01500   0.01267  Uiso   1.00
H83    H     0.42900   0.28490   0.97260   0.01267  Uiso   1.00
H84    H     0.45330   0.27560   0.05580   0.01267  Uiso   1.00
H85    H     0.21590   0.74470   0.94010   0.01267  Uiso   1.00
H86    H     0.20310   0.73900   0.06160   0.01267  Uiso   1.00
H87    H     0.05370   0.92480   0.10610   0.01267  Uiso   1.00
H88    H     0.07740   0.92990   0.98430   0.01267  Uiso   1.00
H89    H     0.27850   0.94290   0.49440   0.01267  Uiso   1.00
H90    H     0.28110   0.94050   0.36770   0.01267  Uiso   1.00
H91    H     0.98170   0.88900   0.32020   0.01267  Uiso   1.00
H92    H     0.98450   0.89100   0.44660   0.01267  Uiso   1.00
H93    H     0.17040   0.80710   0.19710   0.01267  Uiso   1.00
H94    H     0.05390   0.79450   0.17530   0.01267  Uiso   1.00
H95    H     0.19480   0.95990   0.25020   0.01267  Uiso   1.00
H96    H     0.07720   0.94330   0.23420   0.01267  Uiso   1.00
C1     C     0.88180   0.35710   0.67030   0.01267  Uiso   1.00
C2     C     0.89430   0.37320   0.75280   0.01267  Uiso   1.00
C3     C     0.81080   0.37390   0.78970   0.01267  Uiso   1.00
C4     C     0.71720   0.35740   0.74370   0.01267  Uiso   1.00
C5     C     0.70210   0.34020   0.66250   0.01267  Uiso   1.00
C6     C     0.78410   0.34140   0.62630   0.01267  Uiso   1.00
C7     C     0.96760   0.36470   0.62930   0.01267  Uiso   1.00
C8     C     0.99370   0.38620   0.80560   0.01267  Uiso   1.00
C9     C     0.37090   0.16050   0.70020   0.01267  Uiso   1.00
C10    C     0.37330   0.24810   0.74140   0.01267  Uiso   1.00
C11    C     0.46290   0.31510   0.76710   0.01267  Uiso   1.00
C12    C     0.55120   0.29440   0.75160   0.01267  Uiso   1.00
C13    C     0.55120   0.20660   0.70930   0.01267  Uiso   1.00
C14    C     0.46200   0.14040   0.68350   0.01267  Uiso   1.00
C15    C     0.27360   0.08760   0.66850   0.01267  Uiso   1.00
C16    C     0.28170   0.27770   0.76520   0.01267  Uiso   1.00
C17    C     0.61360   0.35750   0.28110   0.01267  Uiso   1.00
C18    C     0.60940   0.26920   0.25310   0.01267  Uiso   1.00
C19    C     0.51650   0.20430   0.22560   0.01267  Uiso   1.00
C20    C     0.42880   0.22900   0.22700   0.01267  Uiso   1.00
C21    C     0.43110   0.31800   0.25470   0.01267  Uiso   1.00
C22    C     0.52270   0.38170   0.28140   0.01267  Uiso   1.00
C23    C     0.71130   0.42830   0.31910   0.01267  Uiso   1.00
C24    C     0.70130   0.23400   0.24310   0.01267  Uiso   1.00
C25    C     0.11750   0.14170   0.32750   0.01267  Uiso   1.00
C26    C     0.09290   0.12620   0.24520   0.01267  Uiso   1.00
C27    C     0.16910   0.13430   0.20240   0.01267  Uiso   1.00
C28    C     0.26930   0.16050   0.24190   0.01267  Uiso   1.00
C29    C     0.29590   0.17860   0.32330   0.01267  Uiso   1.00
C30    C     0.22050   0.16760   0.36520   0.01267  Uiso   1.00
C31    C     0.03960   0.12470   0.37340   0.01267  Uiso   1.00
C32    C     0.98820   0.10740   0.19820   0.01267  Uiso   1.00
C33    C     0.17470   0.27890   0.98180   0.01267  Uiso   1.00
C34    C     0.16800   0.27680   0.05560   0.01267  Uiso   1.00
C35    C     0.11740   0.32910   0.10660   0.01267  Uiso   1.00
C36    C     0.07550   0.38170   0.07940   0.01267  Uiso   1.00
C37    C     0.08470   0.38180   0.00440   0.01267  Uiso   1.00
C38    C     0.20530   0.41480   0.45540   0.01267  Uiso   1.00
C39    C     0.19940   0.41390   0.37740   0.01267  Uiso   1.00
C40    C     0.11430   0.40940   0.33460   0.01267  Uiso   1.00
C41    C     0.03340   0.40290   0.36700   0.01267  Uiso   1.00
C42    C     0.04320   0.40420   0.44450   0.01267  Uiso   1.00
C43    C     0.10780   0.32830   0.18780   0.01267  Uiso   1.00
C44    C     0.11230   0.41310   0.25280   0.01267  Uiso   1.00
C45    C     0.25960   0.52320   0.86230   0.01267  Uiso   1.00
C46    C     0.32480   0.60760   0.89220   0.01267  Uiso   1.00
C47    C     0.38880   0.64340   0.96400   0.01267  Uiso   1.00
C48    C     0.38460   0.58950   0.00830   0.01267  Uiso   1.00
C49    C     0.32070   0.50540   0.97320   0.01267  Uiso   1.00
C50    C     0.72720   0.97460   0.14810   0.01267  Uiso   1.00
C51    C     0.66560   0.88880   0.11920   0.01267  Uiso   1.00
C52    C     0.59880   0.85310   0.04800   0.01267  Uiso   1.00
C53    C     0.59740   0.90790   0.00360   0.01267  Uiso   1.00
C54    C     0.65740   0.99240   0.03870   0.01267  Uiso   1.00
C55    C     0.44340   0.74880   0.01100   0.01267  Uiso   1.00
C56    C     0.54320   0.74840   0.00150   0.01267  Uiso   1.00
C57    C     0.81570   0.21730   0.02540   0.01267  Uiso   1.00
C58    C     0.82370   0.22150   0.95280   0.01267  Uiso   1.00
C59    C     0.87180   0.16660   0.90020   0.01267  Uiso   1.00
C60    C     0.91100   0.11130   0.92580   0.01267  Uiso   1.00
C61    C     0.89770   0.10950   0.00010   0.01267  Uiso   1.00
C62    C     0.78170   0.06670   0.54060   0.01267  Uiso   1.00
C63    C     0.78020   0.06830   0.61660   0.01267  Uiso   1.00
C64    C     0.86760   0.08270   0.66980   0.01267  Uiso   1.00
C65    C     0.95690   0.09890   0.64500   0.01267  Uiso   1.00
C66    C     0.95460   0.09700   0.56890   0.01267  Uiso   1.00
C67    C     0.88030   0.16710   0.81860   0.01267  Uiso   1.00
C68    C     0.86820   0.08030   0.75300   0.01267  Uiso   1.00
C69    C     0.11820   0.64290   0.32970   0.01267  Uiso   1.00
C70    C     0.10570   0.62680   0.24720   0.01267  Uiso   1.00
C71    C     0.18920   0.62610   0.21030   0.01267  Uiso   1.00
C72    C     0.28280   0.64260   0.25630   0.01267  Uiso   1.00
C73    C     0.29790   0.65980   0.33750   0.01267  Uiso   1.00
C74    C     0.21590   0.65860   0.37370   0.01267  Uiso   1.00
C75    C     0.03240   0.63530   0.37070   0.01267  Uiso   1.00
C76    C     0.00630   0.61380   0.19440   0.01267  Uiso   1.00
C77    C     0.62910   0.83950   0.29980   0.01267  Uiso   1.00
C78    C     0.62670   0.75190   0.25860   0.01267  Uiso   1.00
C79    C     0.53710   0.68490   0.23290   0.01267  Uiso   1.00
C80    C     0.44880   0.70560   0.24840   0.01267  Uiso   1.00
C81    C     0.44880   0.79340   0.29070   0.01267  Uiso   1.00
C82    C     0.53800   0.85960   0.31650   0.01267  Uiso   1.00
C83    C     0.72640   0.91240   0.33150   0.01267  Uiso   1.00
C84    C     0.71830   0.72230   0.23480   0.01267  Uiso   1.00
C85    C     0.38640   0.64250   0.71890   0.01267  Uiso   1.00
C86    C     0.39060   0.73080   0.74690   0.01267  Uiso   1.00
C87    C     0.48350   0.79570   0.77440   0.01267  Uiso   1.00
C88    C     0.57120   0.77100   0.77300   0.01267  Uiso   1.00
C89    C     0.56890   0.68200   0.74530   0.01267  Uiso   1.00
C90    C     0.47730   0.61830   0.71860   0.01267  Uiso   1.00
C91    C     0.28870   0.57170   0.68090   0.01267  Uiso   1.00
C92    C     0.29870   0.76600   0.75690   0.01267  Uiso   1.00
C93    C     0.88250   0.85830   0.67250   0.01267  Uiso   1.00
C94    C     0.90710   0.87380   0.75480   0.01267  Uiso   1.00
C95    C     0.83090   0.86570   0.79760   0.01267  Uiso   1.00
C96    C     0.73070   0.83950   0.75810   0.01267  Uiso   1.00
C97    C     0.70410   0.82140   0.67670   0.01267  Uiso   1.00
C98    C     0.77950   0.83240   0.63480   0.01267  Uiso   1.00
C99    C     0.96040   0.87530   0.62660   0.01267  Uiso   1.00
C100   C     0.01180   0.89260   0.80180   0.01267  Uiso   1.00
C101   C     0.82530   0.72110   0.01820   0.01267  Uiso   1.00
C102   C     0.83200   0.72320   0.94440   0.01267  Uiso   1.00
C103   C     0.88260   0.67090   0.89340   0.01267  Uiso   1.00
C104   C     0.92450   0.61830   0.92060   0.01267  Uiso   1.00
C105   C     0.91530   0.61820   0.99560   0.01267  Uiso   1.00
C106   C     0.79470   0.58520   0.54460   0.01267  Uiso   1.00
C107   C     0.80060   0.58610   0.62260   0.01267  Uiso   1.00
C108   C     0.88570   0.59060   0.66540   0.01267  Uiso   1.00
C109   C     0.96660   0.59710   0.63300   0.01267  Uiso   1.00
C110   C     0.95680   0.59580   0.55550   0.01267  Uiso   1.00
C111   C     0.89220   0.67170   0.81220   0.01267  Uiso   1.00
C112   C     0.88770   0.58690   0.74720   0.01267  Uiso   1.00
C113   C     0.74040   0.47680   0.13770   0.01267  Uiso   1.00
C114   C     0.67520   0.39240   0.10780   0.01267  Uiso   1.00
C115   C     0.61120   0.35660   0.03600   0.01267  Uiso   1.00
C116   C     0.61540   0.41050   0.99170   0.01267  Uiso   1.00
C117   C     0.67930   0.49460   0.02680   0.01267  Uiso   1.00
C118   C     0.27280   0.02540   0.85190   0.01267  Uiso   1.00
C119   C     0.33440   0.11120   0.88080   0.01267  Uiso   1.00
C120   C     0.40120   0.14690   0.95200   0.01267  Uiso   1.00
C121   C     0.40260   0.09210   0.99640   0.01267  Uiso   1.00
C122   C     0.34260   0.00760   0.96130   0.01267  Uiso   1.00
C123   C     0.55660   0.25120   0.98900   0.01267  Uiso   1.00
C124   C     0.45680   0.25160   0.99850   0.01267  Uiso   1.00
C125   C     0.18430   0.78270   0.97460   0.01267  Uiso   1.00
C126   C     0.17630   0.77850   0.04720   0.01267  Uiso   1.00
C127   C     0.12820   0.83340   0.09980   0.01267  Uiso   1.00
C128   C     0.08900   0.88870   0.07420   0.01267  Uiso   1.00
C129   C     0.10230   0.89050   0.99990   0.01267  Uiso   1.00
C130   C     0.21830   0.93330   0.45940   0.01267  Uiso   1.00
C131   C     0.21980   0.93170   0.38340   0.01267  Uiso   1.00
C132   C     0.13240   0.91730   0.33020   0.01267  Uiso   1.00
C133   C     0.04310   0.90110   0.35500   0.01267  Uiso   1.00
C134   C     0.04540   0.90300   0.43110   0.01267  Uiso   1.00
C135   C     0.11970   0.83290   0.18140   0.01267  Uiso   1.00
C136   C     0.13180   0.91970   0.24700   0.01267  Uiso   1.00
N1     N     0.13370   0.33220   0.95600   0.01267  Uiso   1.00
N2     N     0.12860   0.41150   0.49040   0.01267  Uiso   1.00
N3     N     0.25890   0.47180   0.90160   0.01267  Uiso   1.00
N4     N     0.72110   0.02650   0.11090   0.01267  Uiso   1.00
N5     N     0.85080   0.16170   0.04940   0.01267  Uiso   1.00
N6     N     0.86950   0.07880   0.51610   0.01267  Uiso   1.00
N7     N     0.86630   0.66780   0.04400   0.01267  Uiso   1.00
N8     N     0.87140   0.58850   0.50960   0.01267  Uiso   1.00
N9     N     0.74110   0.52820   0.09840   0.01267  Uiso   1.00
N10    N     0.27890   0.97350   0.88910   0.01267  Uiso   1.00
N11    N     0.14920   0.83830   0.95060   0.01267  Uiso   1.00
N12    N     0.13050   0.92120   0.48390   0.01267  Uiso   1.00
O1     O     0.05160   0.41990   0.67340   0.01267  Uiso   1.00
O2     O     0.95530   0.32130   0.55510   0.01267  Uiso   1.00
O3     O     0.03470   0.32350   0.77950   0.01267  Uiso   1.00
O4     O     0.02610   0.45260   0.87100   0.01267  Uiso   1.00
O5     O     0.27870   0.00840   0.65620   0.01267  Uiso   1.00
O6     O     0.19320   0.10410   0.65530   0.01267  Uiso   1.00
O7     O     0.24200   0.31780   0.73110   0.01267  Uiso   1.00
O8     O     0.25530   0.26910   0.82660   0.01267  Uiso   1.00
O9     O     0.63820   0.36400   0.78420   0.01267  Uiso   1.00
O10    O     0.71080   0.50900   0.34100   0.01267  Uiso   1.00
O11    O     0.79090   0.40820   0.33020   0.01267  Uiso   1.00
O12    O     0.73640   0.23130   0.18190   0.01267  Uiso   1.00
O13    O     0.72800   0.19860   0.28710   0.01267  Uiso   1.00
O14    O     0.95400   0.07120   0.33060   0.01267  Uiso   1.00
O15    O     0.05860   0.16000   0.44820   0.01267  Uiso   1.00
O16    O     0.94490   0.16920   0.22650   0.01267  Uiso   1.00
O17    O     0.95370   0.03960   0.13440   0.01267  Uiso   1.00
O18    O     0.33810   0.16280   0.19330   0.01267  Uiso   1.00
O19    O     0.94840   0.58010   0.32660   0.01267  Uiso   1.00
O20    O     0.04470   0.67870   0.44490   0.01267  Uiso   1.00
O21    O     0.96530   0.67650   0.22050   0.01267  Uiso   1.00
O22    O     0.97390   0.54740   0.12900   0.01267  Uiso   1.00
O23    O     0.72130   0.99160   0.34380   0.01267  Uiso   1.00
O24    O     0.80680   0.89590   0.34470   0.01267  Uiso   1.00
O25    O     0.75800   0.68220   0.26890   0.01267  Uiso   1.00
O26    O     0.74470   0.73090   0.17340   0.01267  Uiso   1.00
O27    O     0.36180   0.63600   0.21580   0.01267  Uiso   1.00
O28    O     0.28920   0.49100   0.65900   0.01267  Uiso   1.00
O29    O     0.20910   0.59180   0.66980   0.01267  Uiso   1.00
O30    O     0.26360   0.76870   0.81810   0.01267  Uiso   1.00
O31    O     0.27200   0.80140   0.71290   0.01267  Uiso   1.00
O32    O     0.04600   0.92880   0.66940   0.01267  Uiso   1.00
O33    O     0.94140   0.84000   0.55180   0.01267  Uiso   1.00
O34    O     0.05510   0.83080   0.77350   0.01267  Uiso   1.00
O35    O     0.04630   0.96040   0.86560   0.01267  Uiso   1.00
O36    O     0.66190   0.83720   0.80670   0.01267  Uiso   1.00
