data_image0
_cell_length_a       9.5741
_cell_length_b       11.4403
_cell_length_c       25.674
_cell_angle_alpha    90
_cell_angle_beta     90
_cell_angle_gamma    90

_symmetry_space_group_name_H-M    "P 1"
_symmetry_int_tables_number       1

loop_
  _symmetry_equiv_pos_as_xyz
  'x, y, z'

loop_
  _atom_site_label
  _atom_site_occupancy
  _atom_site_fract_x
  _atom_site_fract_y
  _atom_site_fract_z
  _atom_site_thermal_displace_type
  _atom_site_B_iso_or_equiv
  _atom_site_type_symbol
  O1       1.0000 0.79740  0.91290  0.05600  Biso   1.000  O
  C1       1.0000 0.94040  0.80000  0.10880  Biso   1.000  C
  C2       1.0000 0.86740  0.83310  0.15260  Biso   1.000  C
  H1       1.0000 0.80090  0.89200  0.14960  Biso   1.000  H
  O2       1.0000 0.00690  0.86300  0.02430  Biso   1.000  O
  C3       1.0000 0.88850  0.78310  0.20020  Biso   1.000  C
  H2       1.0000 0.83970  0.80910  0.22930  Biso   1.000  H
  O3       1.0000 0.06900  0.59420  0.03781  Biso   1.000  O
  O4       1.0000 0.25320  0.69050  0.06830  Biso   1.000  O
  C4       1.0000 0.98420  0.69300  0.20420  Biso   1.000  C
  C5       1.0000 0.05890  0.65480  0.16140  Biso   1.000  C
  H3       1.0000 0.12100  0.59270  0.16430  Biso   1.000  H
  C6       1.0000 0.03900  0.71220  0.11310  Biso   1.000  C
  C7       1.0000 0.91470  0.86350  0.05860  Biso   1.000  C
  C8       1.0000 0.12820  0.66560  0.06930  Biso   1.000  C
  O5       1.0000 0.29740  0.41290  0.05600  Biso   1.000  O
  C9       1.0000 0.44040  0.30000  0.10880  Biso   1.000  C
  C10      1.0000 0.36740  0.33310  0.15260  Biso   1.000  C
  H4       1.0000 0.30090  0.39200  0.14960  Biso   1.000  H
  O6       1.0000 0.50690  0.36300  0.02430  Biso   1.000  O
  C11      1.0000 0.38850  0.28310  0.20020  Biso   1.000  C
  H5       1.0000 0.33970  0.30910  0.22930  Biso   1.000  H
  O7       1.0000 0.56900  0.09420  0.03781  Biso   1.000  O
  O8       1.0000 0.75320  0.19050  0.06830  Biso   1.000  O
  C12      1.0000 0.48420  0.19300  0.20420  Biso   1.000  C
  C13      1.0000 0.55890  0.15480  0.16140  Biso   1.000  C
  H6       1.0000 0.62100  0.09270  0.16430  Biso   1.000  H
  C14      1.0000 0.53900  0.21220  0.11310  Biso   1.000  C
  C15      1.0000 0.41470  0.36350  0.05860  Biso   1.000  C
  C16      1.0000 0.62820  0.16560  0.06930  Biso   1.000  C
  O9       1.0000 0.20260  0.08710  0.55600  Biso   1.000  O
  C17      1.0000 0.05960  0.20000  0.60880  Biso   1.000  C
  C18      1.0000 0.13260  0.16690  0.65260  Biso   1.000  C
  H7       1.0000 0.19910  0.10800  0.64960  Biso   1.000  H
  O10      1.0000 0.99310  0.13700  0.52430  Biso   1.000  O
  C19      1.0000 0.11150  0.21690  0.70020  Biso   1.000  C
  H8       1.0000 0.16030  0.19090  0.72930  Biso   1.000  H
  O11      1.0000 0.93100  0.40580  0.53781  Biso   1.000  O
  O12      1.0000 0.74680  0.30950  0.56830  Biso   1.000  O
  C20      1.0000 0.01580  0.30700  0.70420  Biso   1.000  C
  C21      1.0000 0.94110  0.34520  0.66140  Biso   1.000  C
  H9       1.0000 0.87900  0.40730  0.66430  Biso   1.000  H
  C22      1.0000 0.96100  0.28780  0.61310  Biso   1.000  C
  C23      1.0000 0.08530  0.13650  0.55860  Biso   1.000  C
  C24      1.0000 0.87180  0.33440  0.56930  Biso   1.000  C
  O13      1.0000 0.70260  0.58710  0.55600  Biso   1.000  O
  C25      1.0000 0.55960  0.70000  0.60880  Biso   1.000  C
  C26      1.0000 0.63260  0.66690  0.65260  Biso   1.000  C
  H10      1.0000 0.69910  0.60800  0.64960  Biso   1.000  H
  O14      1.0000 0.49310  0.63700  0.52430  Biso   1.000  O
  C27      1.0000 0.61150  0.71690  0.70020  Biso   1.000  C
  H11      1.0000 0.66030  0.69090  0.72930  Biso   1.000  H
  O15      1.0000 0.43100  0.90580  0.53781  Biso   1.000  O
  O16      1.0000 0.24680  0.80950  0.56830  Biso   1.000  O
  C28      1.0000 0.51580  0.80700  0.70420  Biso   1.000  C
  C29      1.0000 0.44110  0.84520  0.66140  Biso   1.000  C
  H12      1.0000 0.37900  0.90730  0.66430  Biso   1.000  H
  C30      1.0000 0.46100  0.78780  0.61310  Biso   1.000  C
  C31      1.0000 0.58530  0.63650  0.55860  Biso   1.000  C
  C32      1.0000 0.37180  0.83440  0.56930  Biso   1.000  C
  O17      1.0000 0.20260  0.91290  0.44400  Biso   1.000  O
  C33      1.0000 0.05960  0.80000  0.39120  Biso   1.000  C
  C34      1.0000 0.13260  0.83310  0.34740  Biso   1.000  C
  H13      1.0000 0.19910  0.89200  0.35040  Biso   1.000  H
  O18      1.0000 0.99310  0.86300  0.47570  Biso   1.000  O
  C35      1.0000 0.11150  0.78310  0.29980  Biso   1.000  C
  H14      1.0000 0.16030  0.80910  0.27070  Biso   1.000  H
  O19      1.0000 0.93100  0.59420  0.46219  Biso   1.000  O
  O20      1.0000 0.74680  0.69050  0.43170  Biso   1.000  O
  C36      1.0000 0.01580  0.69300  0.29580  Biso   1.000  C
  C37      1.0000 0.94110  0.65480  0.33860  Biso   1.000  C
  H15      1.0000 0.87900  0.59270  0.33570  Biso   1.000  H
  C38      1.0000 0.96100  0.71220  0.38690  Biso   1.000  C
  C39      1.0000 0.08530  0.86350  0.44140  Biso   1.000  C
  C40      1.0000 0.87180  0.66560  0.43070  Biso   1.000  C
  O21      1.0000 0.70260  0.41290  0.44400  Biso   1.000  O
  C41      1.0000 0.55960  0.30000  0.39120  Biso   1.000  C
  C42      1.0000 0.63260  0.33310  0.34740  Biso   1.000  C
  H16      1.0000 0.69910  0.39200  0.35040  Biso   1.000  H
  O22      1.0000 0.49310  0.36300  0.47570  Biso   1.000  O
  C43      1.0000 0.61150  0.28310  0.29980  Biso   1.000  C
  H17      1.0000 0.66030  0.30910  0.27070  Biso   1.000  H
  O23      1.0000 0.43100  0.09420  0.46219  Biso   1.000  O
  O24      1.0000 0.24680  0.19050  0.43170  Biso   1.000  O
  C44      1.0000 0.51580  0.19300  0.29580  Biso   1.000  C
  C45      1.0000 0.44110  0.15480  0.33860  Biso   1.000  C
  H18      1.0000 0.37900  0.09270  0.33570  Biso   1.000  H
  C46      1.0000 0.46100  0.21220  0.38690  Biso   1.000  C
  C47      1.0000 0.58530  0.36350  0.44140  Biso   1.000  C
  C48      1.0000 0.37180  0.16560  0.43070  Biso   1.000  C
  O25      1.0000 0.79740  0.08710  0.94400  Biso   1.000  O
  C49      1.0000 0.94040  0.20000  0.89120  Biso   1.000  C
  C50      1.0000 0.86740  0.16690  0.84740  Biso   1.000  C
  H19      1.0000 0.80090  0.10800  0.85040  Biso   1.000  H
  O26      1.0000 0.00690  0.13700  0.97570  Biso   1.000  O
  C51      1.0000 0.88850  0.21690  0.79980  Biso   1.000  C
  H20      1.0000 0.83970  0.19090  0.77070  Biso   1.000  H
  O27      1.0000 0.06900  0.40580  0.96219  Biso   1.000  O
  O28      1.0000 0.25320  0.30950  0.93170  Biso   1.000  O
  C52      1.0000 0.98420  0.30700  0.79580  Biso   1.000  C
  C53      1.0000 0.05890  0.34520  0.83860  Biso   1.000  C
  H21      1.0000 0.12100  0.40730  0.83570  Biso   1.000  H
  C54      1.0000 0.03900  0.28780  0.88690  Biso   1.000  C
  C55      1.0000 0.91470  0.13650  0.94140  Biso   1.000  C
  C56      1.0000 0.12820  0.33440  0.93070  Biso   1.000  C
  O29      1.0000 0.29740  0.58710  0.94400  Biso   1.000  O
  C57      1.0000 0.44040  0.70000  0.89120  Biso   1.000  C
  C58      1.0000 0.36740  0.66690  0.84740  Biso   1.000  C
  H22      1.0000 0.30090  0.60800  0.85040  Biso   1.000  H
  O30      1.0000 0.50690  0.63700  0.97570  Biso   1.000  O
  C59      1.0000 0.38850  0.71690  0.79980  Biso   1.000  C
  H23      1.0000 0.33970  0.69090  0.77070  Biso   1.000  H
  O31      1.0000 0.56900  0.90580  0.96219  Biso   1.000  O
  O32      1.0000 0.75320  0.80950  0.93170  Biso   1.000  O
  C60      1.0000 0.48420  0.80700  0.79580  Biso   1.000  C
  C61      1.0000 0.55890  0.84520  0.83860  Biso   1.000  C
  H24      1.0000 0.62100  0.90730  0.83570  Biso   1.000  H
  C62      1.0000 0.53900  0.78780  0.88690  Biso   1.000  C
  C63      1.0000 0.41470  0.63650  0.94140  Biso   1.000  C
  C64      1.0000 0.62820  0.83440  0.93070  Biso   1.000  C
  Zn1      1.0000 0.71314  0.00000  0.00000  Biso   1.000  Zn
  Zn2      1.0000 0.21314  0.50000  0.00000  Biso   1.000  Zn
  Zn3      1.0000 0.28686  0.00000  0.50000  Biso   1.000  Zn
  Zn4      1.0000 0.78686  0.50000  0.50000  Biso   1.000  Zn
  O33      1.0000 0.00000  0.62680  0.25000  Biso   1.000  O
  O34      1.0000 0.50000  0.12680  0.25000  Biso   1.000  O
  O35      1.0000 0.00000  0.37320  0.75000  Biso   1.000  O
  O36      1.0000 0.50000  0.87320  0.75000  Biso   1.000  O
