data_YARSIV_clean
_audit_creation_date              2014-07-02
_audit_creation_method            'Materials Studio'
_symmetry_space_group_name_H-M    'P1'
_symmetry_Int_Tables_number       1
_symmetry_cell_setting            triclinic
loop_
_symmetry_equiv_pos_as_xyz
  x,y,z
_cell_length_a                    12.0300
_cell_length_b                    12.8542
_cell_length_c                    12.8542
_cell_angle_alpha                 108.0110
_cell_angle_beta                  106.1350
_cell_angle_gamma                 106.1350
loop_
_atom_site_label
_atom_site_type_symbol
_atom_site_fract_x
_atom_site_fract_y
_atom_site_fract_z
_atom_site_U_iso_or_equiv
_atom_site_adp_type
_atom_site_occupancy
Zn1    Zn    0.99048   0.25481   0.48877   0.01267  Uiso   1.00
Zn2    Zn    0.50952   0.51123   0.74519   0.01267  Uiso   1.00
Zn3    Zn    0.75000   0.78027   0.21973   0.01267  Uiso   1.00
H1     H     0.68400   0.33540   0.18260   0.01267  Uiso   1.00
H2     H     0.80100   0.44990   0.91410   0.01267  Uiso   1.00
H3     H     0.97500   0.24040   0.24160   0.01267  Uiso   1.00
H4     H     0.91900   0.48510   0.61290   0.01267  Uiso   1.00
H5     H     0.96200   0.23970   0.70630   0.01267  Uiso   1.00
H6     H     0.77000   0.41780   0.07420   0.01267  Uiso   1.00
H7     H     0.74900   0.31900   0.38100   0.01267  Uiso   1.00
H8     H     0.86800   0.50440   0.79360   0.01267  Uiso   1.00
H9     H     0.93000   0.18800   0.03600   0.01267  Uiso   1.00
H10    H     0.97400   0.22600   0.88000   0.01267  Uiso   1.00
H11    H     0.81600   0.81740   0.66460   0.01267  Uiso   1.00
H12    H     0.69900   0.08590   0.55010   0.01267  Uiso   1.00
H13    H     0.52500   0.75840   0.75960   0.01267  Uiso   1.00
H14    H     0.58100   0.38710   0.51490   0.01267  Uiso   1.00
H15    H     0.53800   0.29370   0.76030   0.01267  Uiso   1.00
H16    H     0.73000   0.92580   0.58220   0.01267  Uiso   1.00
H17    H     0.75100   0.61900   0.68100   0.01267  Uiso   1.00
H18    H     0.63200   0.20640   0.49560   0.01267  Uiso   1.00
H19    H     0.57000   0.96400   0.81200   0.01267  Uiso   1.00
H20    H     0.52600   0.12000   0.77400   0.01267  Uiso   1.00
C1     C     0.91890   0.44108   0.65892   0.01267  Uiso   1.00
C2     C     0.94490   0.30295   0.70885   0.01267  Uiso   1.00
C3     C     0.75160   0.31370   0.22150   0.01267  Uiso   1.00
C4     C     0.82810   0.00849   0.38591   0.01267  Uiso   1.00
C5     C     0.84680   0.29985   0.06975   0.01267  Uiso   1.00
C6     C     0.92780   0.01217   0.33063   0.01267  Uiso   1.00
C7     C     0.90970   0.26069   0.24951   0.01267  Uiso   1.00
C8     C     0.88880   0.34261   0.88439   0.01267  Uiso   1.00
C9     C     0.80730   0.37762   0.03478   0.01267  Uiso   1.00
C10    C     0.92920   0.26305   0.91935   0.01267  Uiso   1.00
C11    C     0.90610   0.24081   0.01179   0.01267  Uiso   1.00
C12    C     0.82760   0.39852   0.94108   0.01267  Uiso   1.00
C13    C     0.89390   0.45487   0.75633   0.01267  Uiso   1.00
C14    C     0.78360   0.30380   0.32500   0.01267  Uiso   1.00
C15    C     0.58110   0.34108   0.55892   0.01267  Uiso   1.00
C16    C     0.55510   0.29115   0.69705   0.01267  Uiso   1.00
C17    C     0.74840   0.77850   0.68630   0.01267  Uiso   1.00
C18    C     0.67190   0.61409   0.99151   0.01267  Uiso   1.00
C19    C     0.65320   0.93025   0.70015   0.01267  Uiso   1.00
C20    C     0.57220   0.66937   0.98783   0.01267  Uiso   1.00
C21    C     0.59030   0.75049   0.73931   0.01267  Uiso   1.00
C22    C     0.61120   0.11561   0.65739   0.01267  Uiso   1.00
C23    C     0.69270   0.96522   0.62238   0.01267  Uiso   1.00
C24    C     0.57080   0.08065   0.73695   0.01267  Uiso   1.00
C25    C     0.59390   0.98821   0.75919   0.01267  Uiso   1.00
C26    C     0.67240   0.05892   0.60148   0.01267  Uiso   1.00
C27    C     0.60610   0.24367   0.54513   0.01267  Uiso   1.00
C28    C     0.71640   0.67500   0.69620   0.01267  Uiso   1.00
C29    C     0.25000   0.34340   0.65660   0.01267  Uiso   1.00
C30    C     0.25000   0.41770   0.58230   0.01267  Uiso   1.00
N1     N     0.95170   0.34544   0.62936   0.01267  Uiso   1.00
N2     N     0.88330   0.27029   0.34331   0.01267  Uiso   1.00
N3     N     0.83370   0.28635   0.17265   0.01267  Uiso   1.00
N4     N     0.90970   0.36559   0.78801   0.01267  Uiso   1.00
N5     N     0.54830   0.37064   0.65456   0.01267  Uiso   1.00
N6     N     0.61670   0.65669   0.72971   0.01267  Uiso   1.00
N7     N     0.66630   0.82735   0.71365   0.01267  Uiso   1.00
N8     N     0.59030   0.21199   0.63441   0.01267  Uiso   1.00
O1     O     0.90980   0.91628   0.25004   0.01267  Uiso   1.00
O2     O     0.73570   0.91176   0.34380   0.01267  Uiso   1.00
O3     O     0.84870   0.10217   0.46737   0.01267  Uiso   1.00
O4     O     0.01630   0.10992   0.36962   0.01267  Uiso   1.00
O5     O     0.59020   0.74996   0.08372   0.01267  Uiso   1.00
O6     O     0.76430   0.65620   0.08824   0.01267  Uiso   1.00
O7     O     0.65130   0.53263   0.89783   0.01267  Uiso   1.00
O8     O     0.48370   0.63038   0.89008   0.01267  Uiso   1.00
O9     O     0.14750   0.38958   0.50104   0.01267  Uiso   1.00
O10    O     0.14900   0.26085   0.63131   0.01267  Uiso   1.00
O11    O     0.35250   0.49896   0.61042   0.01267  Uiso   1.00
O12    O     0.35100   0.36869   0.73915   0.01267  Uiso   1.00
Zn4    Zn    0.00952   0.74519   0.51123   0.01267  Uiso   1.00
Zn5    Zn    0.49048   0.48877   0.25481   0.01267  Uiso   1.00
Zn6    Zn    0.25000   0.21973   0.78027   0.01267  Uiso   1.00
H21    H     0.31600   0.66460   0.81740   0.01267  Uiso   1.00
H22    H     0.19900   0.55010   0.08590   0.01267  Uiso   1.00
H23    H     0.02500   0.75960   0.75840   0.01267  Uiso   1.00
H24    H     0.08100   0.51490   0.38710   0.01267  Uiso   1.00
H25    H     0.03800   0.76030   0.29370   0.01267  Uiso   1.00
H26    H     0.23000   0.58220   0.92580   0.01267  Uiso   1.00
H27    H     0.25100   0.68100   0.61900   0.01267  Uiso   1.00
H28    H     0.13200   0.49560   0.20640   0.01267  Uiso   1.00
H29    H     0.07000   0.81200   0.96400   0.01267  Uiso   1.00
H30    H     0.02600   0.77400   0.12000   0.01267  Uiso   1.00
H31    H     0.18400   0.18260   0.33540   0.01267  Uiso   1.00
H32    H     0.30100   0.91410   0.44990   0.01267  Uiso   1.00
H33    H     0.47500   0.24160   0.24040   0.01267  Uiso   1.00
H34    H     0.41900   0.61290   0.48510   0.01267  Uiso   1.00
H35    H     0.46200   0.70630   0.23970   0.01267  Uiso   1.00
H36    H     0.27000   0.07420   0.41780   0.01267  Uiso   1.00
H37    H     0.24900   0.38100   0.31900   0.01267  Uiso   1.00
H38    H     0.36800   0.79360   0.50440   0.01267  Uiso   1.00
H39    H     0.43000   0.03600   0.18800   0.01267  Uiso   1.00
H40    H     0.47400   0.88000   0.22600   0.01267  Uiso   1.00
C31    C     0.08110   0.55892   0.34108   0.01267  Uiso   1.00
C32    C     0.05510   0.69705   0.29115   0.01267  Uiso   1.00
C33    C     0.24840   0.68630   0.77850   0.01267  Uiso   1.00
C34    C     0.17190   0.99151   0.61409   0.01267  Uiso   1.00
C35    C     0.15320   0.70015   0.93025   0.01267  Uiso   1.00
C36    C     0.07220   0.98783   0.66937   0.01267  Uiso   1.00
C37    C     0.09030   0.73931   0.75049   0.01267  Uiso   1.00
C38    C     0.11120   0.65739   0.11561   0.01267  Uiso   1.00
C39    C     0.19270   0.62238   0.96522   0.01267  Uiso   1.00
C40    C     0.07080   0.73695   0.08065   0.01267  Uiso   1.00
C41    C     0.09390   0.75919   0.98821   0.01267  Uiso   1.00
C42    C     0.17240   0.60148   0.05892   0.01267  Uiso   1.00
C43    C     0.10610   0.54513   0.24367   0.01267  Uiso   1.00
C44    C     0.21640   0.69620   0.67500   0.01267  Uiso   1.00
C45    C     0.41890   0.65892   0.44108   0.01267  Uiso   1.00
C46    C     0.44490   0.70885   0.30295   0.01267  Uiso   1.00
C47    C     0.25160   0.22150   0.31370   0.01267  Uiso   1.00
C48    C     0.32810   0.38591   0.00849   0.01267  Uiso   1.00
C49    C     0.34680   0.06975   0.29985   0.01267  Uiso   1.00
C50    C     0.42780   0.33063   0.01217   0.01267  Uiso   1.00
C51    C     0.40970   0.24951   0.26069   0.01267  Uiso   1.00
C52    C     0.38880   0.88439   0.34261   0.01267  Uiso   1.00
C53    C     0.30730   0.03478   0.37762   0.01267  Uiso   1.00
C54    C     0.42920   0.91935   0.26305   0.01267  Uiso   1.00
C55    C     0.40610   0.01179   0.24081   0.01267  Uiso   1.00
C56    C     0.32760   0.94108   0.39852   0.01267  Uiso   1.00
C57    C     0.39390   0.75633   0.45487   0.01267  Uiso   1.00
C58    C     0.28360   0.32500   0.30380   0.01267  Uiso   1.00
C59    C     0.75000   0.65660   0.34340   0.01267  Uiso   1.00
C60    C     0.75000   0.58230   0.41770   0.01267  Uiso   1.00
N9     N     0.04830   0.65456   0.37064   0.01267  Uiso   1.00
N10    N     0.11670   0.72971   0.65669   0.01267  Uiso   1.00
N11    N     0.16630   0.71365   0.82735   0.01267  Uiso   1.00
N12    N     0.09030   0.63441   0.21199   0.01267  Uiso   1.00
N13    N     0.45170   0.62936   0.34544   0.01267  Uiso   1.00
N14    N     0.38330   0.34331   0.27029   0.01267  Uiso   1.00
N15    N     0.33370   0.17265   0.28635   0.01267  Uiso   1.00
N16    N     0.40970   0.78801   0.36559   0.01267  Uiso   1.00
O13    O     0.85250   0.61042   0.49896   0.01267  Uiso   1.00
O14    O     0.85100   0.73915   0.36869   0.01267  Uiso   1.00
O15    O     0.64750   0.50104   0.38958   0.01267  Uiso   1.00
O16    O     0.64900   0.63131   0.26085   0.01267  Uiso   1.00
O17    O     0.09020   0.08372   0.74996   0.01267  Uiso   1.00
O18    O     0.26430   0.08824   0.65620   0.01267  Uiso   1.00
O19    O     0.15130   0.89783   0.53263   0.01267  Uiso   1.00
O20    O     0.98370   0.89008   0.63038   0.01267  Uiso   1.00
O21    O     0.40980   0.25004   0.91628   0.01267  Uiso   1.00
O22    O     0.23570   0.34380   0.91176   0.01267  Uiso   1.00
O23    O     0.34870   0.46737   0.10217   0.01267  Uiso   1.00
O24    O     0.51630   0.36962   0.10992   0.01267  Uiso   1.00
