data_image0
_cell_length_a       13.6147
_cell_length_b       17.8396
_cell_length_c       20.182
_cell_angle_alpha    90
_cell_angle_beta     94.425
_cell_angle_gamma    90

_symmetry_space_group_name_H-M    "P 1"
_symmetry_int_tables_number       1

loop_
  _symmetry_equiv_pos_as_xyz
  'x, y, z'

loop_
  _atom_site_label
  _atom_site_occupancy
  _atom_site_fract_x
  _atom_site_fract_y
  _atom_site_fract_z
  _atom_site_thermal_displace_type
  _atom_site_B_iso_or_equiv
  _atom_site_type_symbol
  C1       1.0000 0.58830  0.50870  0.66190  Biso   1.000  C
  C2       1.0000 0.58630  0.47110  0.72210  Biso   1.000  C
  H1       1.0000 0.63100  0.43240  0.73160  Biso   1.000  H
  C3       1.0000 0.52070  0.48910  0.76800  Biso   1.000  C
  H2       1.0000 0.52210  0.46320  0.80810  Biso   1.000  H
  C4       1.0000 0.45290  0.54550  0.75490  Biso   1.000  C
  C5       1.0000 0.44810  0.58020  0.69340  Biso   1.000  C
  H3       1.0000 0.39930  0.61560  0.68260  Biso   1.000  H
  C6       1.0000 0.51610  0.56250  0.64780  Biso   1.000  C
  H4       1.0000 0.51310  0.58720  0.60720  Biso   1.000  H
  C7       1.0000 0.67740  0.40690  0.55790  Biso   1.000  C
  C8       1.0000 0.59230  0.36540  0.55530  Biso   1.000  C
  H5       1.0000 0.54550  0.37600  0.58510  Biso   1.000  H
  C9       1.0000 0.57400  0.30800  0.50950  Biso   1.000  C
  H6       1.0000 0.51550  0.28090  0.50900  Biso   1.000  H
  C10      1.0000 0.64240  0.29110  0.46470  Biso   1.000  C
  C11      1.0000 0.72880  0.33130  0.46810  Biso   1.000  C
  H7       1.0000 0.77690  0.31970  0.43940  Biso   1.000  H
  C12      1.0000 0.74500  0.38820  0.51330  Biso   1.000  C
  H8       1.0000 0.80350  0.41510  0.51380  Biso   1.000  H
  C13      1.0000 0.70700  0.57240  0.55200  Biso   1.000  C
  C14      1.0000 0.67360  0.56840  0.48560  Biso   1.000  C
  H9       1.0000 0.63940  0.52590  0.47040  Biso   1.000  H
  C15      1.0000 0.68920  0.62540  0.44120  Biso   1.000  C
  H10      1.0000 0.66560  0.62050  0.39700  Biso   1.000  H
  C16      1.0000 0.73960  0.68940  0.46190  Biso   1.000  C
  C17      1.0000 0.77090  0.69530  0.52860  Biso   1.000  C
  H11      1.0000 0.80360  0.73830  0.54420  Biso   1.000  H
  C18      1.0000 0.75390  0.63780  0.57220  Biso   1.000  C
  H12      1.0000 0.77490  0.64350  0.61690  Biso   1.000  H
  C19      1.0000 0.80230  0.48990  0.67440  Biso   1.000  C
  C20      1.0000 0.87990  0.44000  0.67360  Biso   1.000  C
  H13      1.0000 0.88230  0.40700  0.63810  Biso   1.000  H
  C21      1.0000 0.95470  0.43770  0.72470  Biso   1.000  C
  H14      1.0000 0.00610  0.40370  0.72280  Biso   1.000  H
  C22      1.0000 0.95280  0.48590  0.77850  Biso   1.000  C
  C23      1.0000 0.87650  0.53680  0.77970  Biso   1.000  C
  H15      1.0000 0.87480  0.57010  0.81510  Biso   1.000  H
  C24      1.0000 0.80250  0.53860  0.72860  Biso   1.000  C
  H16      1.0000 0.75170  0.57320  0.73040  Biso   1.000  H
  C25      1.0000 0.02470  0.75340  0.34490  Biso   1.000  C
  H17      1.0000 0.98860  0.75490  0.38220  Biso   1.000  H
  C26      1.0000 0.05750  0.74700  0.24500  Biso   1.000  C
  H18      1.0000 0.05310  0.74360  0.19890  Biso   1.000  H
  C27      1.0000 0.24160  0.74760  0.26660  Biso   1.000  C
  C28      1.0000 0.26290  0.71980  0.20630  Biso   1.000  C
  H19      1.0000 0.21240  0.70480  0.17550  Biso   1.000  H
  C29      1.0000 0.36020  0.71420  0.19150  Biso   1.000  C
  H20      1.0000 0.37500  0.69610  0.15020  Biso   1.000  H
  C30      1.0000 0.43570  0.73520  0.23760  Biso   1.000  C
  C31      1.0000 0.41240  0.76320  0.29760  Biso   1.000  C
  H21      1.0000 0.46270  0.77880  0.32840  Biso   1.000  H
  C32      1.0000 0.31630  0.76880  0.31320  Biso   1.000  C
  H22      1.0000 0.30160  0.78670  0.35460  Biso   1.000  H
  C33      1.0000 0.53850  0.72340  0.22260  Biso   1.000  C
  Cu1      1.0000 0.75358  0.08141  0.37155  Biso   1.000  Cu
  Cu2      1.0000 0.83686  0.74387  0.25515  Biso   1.000  Cu
  Cu3      1.0000 0.64720  0.85727  0.30268  Biso   1.000  Cu
  N1       1.0000 0.98200  0.74820  0.28196  Biso   1.000  N
  N2       1.0000 0.12030  0.75600  0.34850  Biso   1.000  N
  N3       1.0000 0.14150  0.75150  0.28370  Biso   1.000  N
  N4       1.0000 0.61750  0.75870  0.25023  Biso   1.000  N
  N5       1.0000 0.69500  0.72500  0.22579  Biso   1.000  N
  N6       1.0000 0.66330  0.67220  0.18380  Biso   1.000  N
  N7       1.0000 0.56530  0.67060  0.18100  Biso   1.000  N
  O1       1.0000 0.42370  0.58320  0.88191  Biso   1.000  O
  O2       1.0000 0.30460  0.49730  0.81920  Biso   1.000  O
  O3       1.0000 0.30520  0.63333  0.78902  Biso   1.000  O
  O4       1.0000 0.51880  0.18815  0.41017  Biso   1.000  O
  O5       1.0000 0.63660  0.25052  0.33784  Biso   1.000  O
  O6       1.0000 0.70060  0.15661  0.42752  Biso   1.000  O
  O7       1.0000 0.81050  0.71736  0.34574  Biso   1.000  O
  O8       1.0000 0.67470  0.80180  0.38371  Biso   1.000  O
  O9       1.0000 0.84720  0.80790  0.44091  Biso   1.000  O
  H23      1.0000 0.86150  0.84320  0.41750  Biso   1.000  H
  O10      1.0000 0.12520  0.43089  0.82348  Biso   1.000  O
  O11      1.0000 0.08610  0.56584  0.85412  Biso   1.000  O
  O12      1.0000 0.00490  0.46010  0.90833  Biso   1.000  O
  P1       1.0000 0.36771  0.56755  0.81539  Biso   1.000  P
  P2       1.0000 0.62658  0.21710  0.40484  Biso   1.000  P
  P3       1.0000 0.76749  0.75821  0.40210  Biso   1.000  P
  P4       1.0000 0.04901  0.48617  0.84480  Biso   1.000  P
  Si1      1.0000 0.69393  0.49293  0.61050  Biso   1.000  Si
  C34      1.0000 0.68160  0.97810  0.21120  Biso   1.000  C
  C35      1.0000 0.57060  0.90760  0.16570  Biso   1.000  C
  N8       1.0000 0.66140  0.01010  0.15420  Biso   1.000  N
  C36      1.0000 0.55230  0.05330  0.03630  Biso   1.000  C
  H24      1.0000 0.58830  0.08920  0.06130  Biso   1.000  H
  C37      1.0000 0.54300  0.98190  0.06120  Biso   1.000  C
  C38      1.0000 0.49110  0.92850  0.02480  Biso   1.000  C
  H25      1.0000 0.48530  0.88030  0.04160  Biso   1.000  H
  C39      1.0000 0.59040  0.96430  0.12450  Biso   1.000  C
  N9       1.0000 0.62820  0.91610  0.21920  Biso   1.000  N
  C40      1.0000 0.91170  0.00870  0.83810  Biso   1.000  C
  C41      1.0000 0.91370  0.97110  0.77790  Biso   1.000  C
  H26      1.0000 0.86900  0.93240  0.76840  Biso   1.000  H
  C42      1.0000 0.97930  0.98910  0.73200  Biso   1.000  C
  H27      1.0000 0.97790  0.96320  0.69190  Biso   1.000  H
  C43      1.0000 0.04710  0.04550  0.74510  Biso   1.000  C
  C44      1.0000 0.05190  0.08020  0.80660  Biso   1.000  C
  H28      1.0000 0.10070  0.11560  0.81740  Biso   1.000  H
  C45      1.0000 0.98390  0.06250  0.85220  Biso   1.000  C
  H29      1.0000 0.98690  0.08720  0.89280  Biso   1.000  H
  C46      1.0000 0.82260  0.90690  0.94210  Biso   1.000  C
  C47      1.0000 0.90770  0.86540  0.94470  Biso   1.000  C
  H30      1.0000 0.95450  0.87600  0.91490  Biso   1.000  H
  C48      1.0000 0.92600  0.80800  0.99050  Biso   1.000  C
  H31      1.0000 0.98450  0.78090  0.99100  Biso   1.000  H
  C49      1.0000 0.85760  0.79110  0.03530  Biso   1.000  C
  C50      1.0000 0.77120  0.83130  0.03190  Biso   1.000  C
  H32      1.0000 0.72310  0.81970  0.06060  Biso   1.000  H
  C51      1.0000 0.75500  0.88820  0.98670  Biso   1.000  C
  H33      1.0000 0.69650  0.91510  0.98620  Biso   1.000  H
  C52      1.0000 0.79300  0.07240  0.94800  Biso   1.000  C
  C53      1.0000 0.82640  0.06840  0.01440  Biso   1.000  C
  H34      1.0000 0.86060  0.02590  0.02960  Biso   1.000  H
  C54      1.0000 0.81080  0.12540  0.05880  Biso   1.000  C
  H35      1.0000 0.83440  0.12050  0.10300  Biso   1.000  H
  C55      1.0000 0.76040  0.18940  0.03810  Biso   1.000  C
  C56      1.0000 0.72910  0.19530  0.97140  Biso   1.000  C
  H36      1.0000 0.69640  0.23830  0.95580  Biso   1.000  H
  C57      1.0000 0.74610  0.13780  0.92780  Biso   1.000  C
  H37      1.0000 0.72510  0.14350  0.88310  Biso   1.000  H
  C58      1.0000 0.69770  0.98990  0.82560  Biso   1.000  C
  C59      1.0000 0.62010  0.94000  0.82640  Biso   1.000  C
  H38      1.0000 0.61770  0.90700  0.86190  Biso   1.000  H
  C60      1.0000 0.54530  0.93770  0.77530  Biso   1.000  C
  H39      1.0000 0.49390  0.90370  0.77720  Biso   1.000  H
  C61      1.0000 0.54720  0.98590  0.72150  Biso   1.000  C
  C62      1.0000 0.62350  0.03680  0.72030  Biso   1.000  C
  H40      1.0000 0.62520  0.07010  0.68490  Biso   1.000  H
  C63      1.0000 0.69750  0.03860  0.77140  Biso   1.000  C
  H41      1.0000 0.74830  0.07320  0.76960  Biso   1.000  H
  C64      1.0000 0.47530  0.25340  0.15510  Biso   1.000  C
  H42      1.0000 0.51140  0.25490  0.11780  Biso   1.000  H
  C65      1.0000 0.44250  0.24700  0.25500  Biso   1.000  C
  H43      1.0000 0.44690  0.24360  0.30110  Biso   1.000  H
  C66      1.0000 0.25840  0.24760  0.23340  Biso   1.000  C
  C67      1.0000 0.23710  0.21980  0.29370  Biso   1.000  C
  H44      1.0000 0.28760  0.20480  0.32450  Biso   1.000  H
  C68      1.0000 0.13980  0.21420  0.30850  Biso   1.000  C
  H45      1.0000 0.12500  0.19610  0.34980  Biso   1.000  H
  C69      1.0000 0.06430  0.23520  0.26240  Biso   1.000  C
  C70      1.0000 0.08760  0.26320  0.20240  Biso   1.000  C
  H46      1.0000 0.03730  0.27880  0.17160  Biso   1.000  H
  C71      1.0000 0.18370  0.26880  0.18680  Biso   1.000  C
  H47      1.0000 0.19840  0.28670  0.14540  Biso   1.000  H
  C72      1.0000 0.96150  0.22340  0.27740  Biso   1.000  C
  Cu4      1.0000 0.74642  0.58141  0.12845  Biso   1.000  Cu
  Cu5      1.0000 0.66314  0.24387  0.24485  Biso   1.000  Cu
  Cu6      1.0000 0.85280  0.35727  0.19732  Biso   1.000  Cu
  N10      1.0000 0.51800  0.24820  0.21804  Biso   1.000  N
  N11      1.0000 0.37970  0.25600  0.15150  Biso   1.000  N
  N12      1.0000 0.35850  0.25150  0.21630  Biso   1.000  N
  N13      1.0000 0.88250  0.25870  0.24977  Biso   1.000  N
  N14      1.0000 0.80500  0.22500  0.27421  Biso   1.000  N
  N15      1.0000 0.83670  0.17220  0.31620  Biso   1.000  N
  N16      1.0000 0.93470  0.17060  0.31900  Biso   1.000  N
  O13      1.0000 0.07630  0.08320  0.61809  Biso   1.000  O
  O14      1.0000 0.19540  0.99730  0.68080  Biso   1.000  O
  O15      1.0000 0.19480  0.13333  0.71098  Biso   1.000  O
  O16      1.0000 0.98120  0.68815  0.08983  Biso   1.000  O
  O17      1.0000 0.86340  0.75052  0.16216  Biso   1.000  O
  O18      1.0000 0.79940  0.65661  0.07248  Biso   1.000  O
  O19      1.0000 0.68950  0.21736  0.15426  Biso   1.000  O
  O20      1.0000 0.82530  0.30180  0.11629  Biso   1.000  O
  O21      1.0000 0.65280  0.30790  0.05909  Biso   1.000  O
  H48      1.0000 0.63850  0.34320  0.08250  Biso   1.000  H
  O22      1.0000 0.37480  0.93089  0.67652  Biso   1.000  O
  O23      1.0000 0.41390  0.06584  0.64588  Biso   1.000  O
  O24      1.0000 0.49510  0.96010  0.59167  Biso   1.000  O
  P5       1.0000 0.13229  0.06755  0.68461  Biso   1.000  P
  P6       1.0000 0.87342  0.71710  0.09516  Biso   1.000  P
  P7       1.0000 0.73251  0.25821  0.09790  Biso   1.000  P
  P8       1.0000 0.45099  0.98617  0.65520  Biso   1.000  P
  Si2      1.0000 0.80607  0.99293  0.88950  Biso   1.000  Si
  C73      1.0000 0.81840  0.47810  0.28880  Biso   1.000  C
  C74      1.0000 0.92940  0.40760  0.33430  Biso   1.000  C
  N17      1.0000 0.83860  0.51010  0.34580  Biso   1.000  N
  C75      1.0000 0.94770  0.55330  0.46370  Biso   1.000  C
  H49      1.0000 0.91170  0.58920  0.43870  Biso   1.000  H
  C76      1.0000 0.95700  0.48190  0.43880  Biso   1.000  C
  C77      1.0000 0.00890  0.42850  0.47520  Biso   1.000  C
  H50      1.0000 0.01470  0.38030  0.45840  Biso   1.000  H
  C78      1.0000 0.90960  0.46430  0.37550  Biso   1.000  C
  N18      1.0000 0.87180  0.41610  0.28080  Biso   1.000  N
  C79      1.0000 0.41170  0.49130  0.33810  Biso   1.000  C
  C80      1.0000 0.41370  0.52890  0.27790  Biso   1.000  C
  H51      1.0000 0.36900  0.56760  0.26840  Biso   1.000  H
  C81      1.0000 0.47930  0.51090  0.23200  Biso   1.000  C
  H52      1.0000 0.47790  0.53680  0.19190  Biso   1.000  H
  C82      1.0000 0.54710  0.45450  0.24510  Biso   1.000  C
  C83      1.0000 0.55190  0.41980  0.30660  Biso   1.000  C
  H53      1.0000 0.60070  0.38440  0.31740  Biso   1.000  H
  C84      1.0000 0.48390  0.43750  0.35220  Biso   1.000  C
  H54      1.0000 0.48690  0.41280  0.39280  Biso   1.000  H
  C85      1.0000 0.32260  0.59310  0.44210  Biso   1.000  C
  C86      1.0000 0.40770  0.63460  0.44470  Biso   1.000  C
  H55      1.0000 0.45450  0.62400  0.41490  Biso   1.000  H
  C87      1.0000 0.42600  0.69200  0.49050  Biso   1.000  C
  H56      1.0000 0.48450  0.71910  0.49100  Biso   1.000  H
  C88      1.0000 0.35760  0.70890  0.53530  Biso   1.000  C
  C89      1.0000 0.27120  0.66870  0.53190  Biso   1.000  C
  H57      1.0000 0.22310  0.68030  0.56060  Biso   1.000  H
  C90      1.0000 0.25500  0.61180  0.48670  Biso   1.000  C
  H58      1.0000 0.19650  0.58490  0.48620  Biso   1.000  H
  C91      1.0000 0.29300  0.42760  0.44800  Biso   1.000  C
  C92      1.0000 0.32640  0.43160  0.51440  Biso   1.000  C
  H59      1.0000 0.36060  0.47410  0.52960  Biso   1.000  H
  C93      1.0000 0.31080  0.37460  0.55880  Biso   1.000  C
  H60      1.0000 0.33440  0.37950  0.60300  Biso   1.000  H
  C94      1.0000 0.26040  0.31060  0.53810  Biso   1.000  C
  C95      1.0000 0.22910  0.30470  0.47140  Biso   1.000  C
  H61      1.0000 0.19640  0.26170  0.45580  Biso   1.000  H
  C96      1.0000 0.24610  0.36220  0.42780  Biso   1.000  C
  H62      1.0000 0.22510  0.35650  0.38310  Biso   1.000  H
  C97      1.0000 0.19770  0.51010  0.32560  Biso   1.000  C
  C98      1.0000 0.12010  0.56000  0.32640  Biso   1.000  C
  H63      1.0000 0.11770  0.59300  0.36190  Biso   1.000  H
  C99      1.0000 0.04530  0.56230  0.27530  Biso   1.000  C
  H64      1.0000 0.99390  0.59630  0.27720  Biso   1.000  H
  C100     1.0000 0.04720  0.51410  0.22150  Biso   1.000  C
  C101     1.0000 0.12350  0.46320  0.22030  Biso   1.000  C
  H65      1.0000 0.12520  0.42990  0.18490  Biso   1.000  H
  C102     1.0000 0.19750  0.46140  0.27140  Biso   1.000  C
  H66      1.0000 0.24830  0.42680  0.26960  Biso   1.000  H
  C103     1.0000 0.97530  0.24660  0.65510  Biso   1.000  C
  H67      1.0000 0.01140  0.24510  0.61780  Biso   1.000  H
  C104     1.0000 0.94250  0.25300  0.75500  Biso   1.000  C
  H68      1.0000 0.94690  0.25640  0.80110  Biso   1.000  H
  C105     1.0000 0.75840  0.25240  0.73340  Biso   1.000  C
  C106     1.0000 0.73710  0.28020  0.79370  Biso   1.000  C
  H69      1.0000 0.78760  0.29520  0.82450  Biso   1.000  H
  C107     1.0000 0.63980  0.28580  0.80850  Biso   1.000  C
  H70      1.0000 0.62500  0.30390  0.84980  Biso   1.000  H
  C108     1.0000 0.56430  0.26480  0.76240  Biso   1.000  C
  C109     1.0000 0.58760  0.23680  0.70240  Biso   1.000  C
  H71      1.0000 0.53730  0.22120  0.67160  Biso   1.000  H
  C110     1.0000 0.68370  0.23120  0.68680  Biso   1.000  C
  H72      1.0000 0.69840  0.21330  0.64540  Biso   1.000  H
  C111     1.0000 0.46150  0.27660  0.77740  Biso   1.000  C
  Cu7      1.0000 0.24642  0.91859  0.62845  Biso   1.000  Cu
  Cu8      1.0000 0.16314  0.25613  0.74485  Biso   1.000  Cu
  Cu9      1.0000 0.35280  0.14273  0.69732  Biso   1.000  Cu
  N19      1.0000 0.01800  0.25180  0.71804  Biso   1.000  N
  N20      1.0000 0.87970  0.24400  0.65150  Biso   1.000  N
  N21      1.0000 0.85850  0.24850  0.71630  Biso   1.000  N
  N22      1.0000 0.38250  0.24130  0.74977  Biso   1.000  N
  N23      1.0000 0.30500  0.27500  0.77421  Biso   1.000  N
  N24      1.0000 0.33670  0.32780  0.81620  Biso   1.000  N
  N25      1.0000 0.43470  0.32940  0.81900  Biso   1.000  N
  O25      1.0000 0.57630  0.41680  0.11809  Biso   1.000  O
  O26      1.0000 0.69540  0.50270  0.18080  Biso   1.000  O
  O27      1.0000 0.69480  0.36667  0.21098  Biso   1.000  O
  O28      1.0000 0.48120  0.81185  0.58983  Biso   1.000  O
  O29      1.0000 0.36340  0.74948  0.66216  Biso   1.000  O
  O30      1.0000 0.29940  0.84339  0.57248  Biso   1.000  O
  O31      1.0000 0.18950  0.28264  0.65426  Biso   1.000  O
  O32      1.0000 0.32530  0.19820  0.61629  Biso   1.000  O
  O33      1.0000 0.15280  0.19210  0.55909  Biso   1.000  O
  H73      1.0000 0.13850  0.15680  0.58250  Biso   1.000  H
  O34      1.0000 0.87480  0.56911  0.17652  Biso   1.000  O
  O35      1.0000 0.91390  0.43416  0.14588  Biso   1.000  O
  O36      1.0000 0.99510  0.53990  0.09167  Biso   1.000  O
  P9       1.0000 0.63229  0.43245  0.18461  Biso   1.000  P
  P10      1.0000 0.37342  0.78290  0.59516  Biso   1.000  P
  P11      1.0000 0.23251  0.24179  0.59790  Biso   1.000  P
  P12      1.0000 0.95099  0.51383  0.15520  Biso   1.000  P
  Si3      1.0000 0.30607  0.50707  0.38950  Biso   1.000  Si
  C112     1.0000 0.31840  0.02190  0.78880  Biso   1.000  C
  C113     1.0000 0.42940  0.09240  0.83430  Biso   1.000  C
  N26      1.0000 0.33860  0.98990  0.84580  Biso   1.000  N
  C114     1.0000 0.44770  0.94670  0.96370  Biso   1.000  C
  H74      1.0000 0.41170  0.91080  0.93870  Biso   1.000  H
  C115     1.0000 0.45700  0.01810  0.93880  Biso   1.000  C
  C116     1.0000 0.50890  0.07150  0.97520  Biso   1.000  C
  H75      1.0000 0.51470  0.11970  0.95840  Biso   1.000  H
  C117     1.0000 0.40960  0.03570  0.87550  Biso   1.000  C
  N27      1.0000 0.37180  0.08390  0.78080  Biso   1.000  N
  C118     1.0000 0.08830  0.99130  0.16190  Biso   1.000  C
  C119     1.0000 0.08630  0.02890  0.22210  Biso   1.000  C
  H76      1.0000 0.13100  0.06760  0.23160  Biso   1.000  H
  C120     1.0000 0.02070  0.01090  0.26800  Biso   1.000  C
  H77      1.0000 0.02210  0.03680  0.30810  Biso   1.000  H
  C121     1.0000 0.95290  0.95450  0.25490  Biso   1.000  C
  C122     1.0000 0.94810  0.91980  0.19340  Biso   1.000  C
  H78      1.0000 0.89930  0.88440  0.18260  Biso   1.000  H
  C123     1.0000 0.01610  0.93750  0.14780  Biso   1.000  C
  H79      1.0000 0.01310  0.91280  0.10720  Biso   1.000  H
  C124     1.0000 0.17740  0.09310  0.05790  Biso   1.000  C
  C125     1.0000 0.09230  0.13460  0.05530  Biso   1.000  C
  H80      1.0000 0.04550  0.12400  0.08510  Biso   1.000  H
  C126     1.0000 0.07400  0.19200  0.00950  Biso   1.000  C
  H81      1.0000 0.01550  0.21910  0.00900  Biso   1.000  H
  C127     1.0000 0.14240  0.20890  0.96470  Biso   1.000  C
  C128     1.0000 0.22880  0.16870  0.96810  Biso   1.000  C
  H82      1.0000 0.27690  0.18030  0.93940  Biso   1.000  H
  C129     1.0000 0.24500  0.11180  0.01330  Biso   1.000  C
  H83      1.0000 0.30350  0.08490  0.01380  Biso   1.000  H
  C130     1.0000 0.20700  0.92760  0.05200  Biso   1.000  C
  C131     1.0000 0.17360  0.93160  0.98560  Biso   1.000  C
  H84      1.0000 0.13940  0.97410  0.97040  Biso   1.000  H
  C132     1.0000 0.18920  0.87460  0.94120  Biso   1.000  C
  H85      1.0000 0.16560  0.87950  0.89700  Biso   1.000  H
  C133     1.0000 0.23960  0.81060  0.96190  Biso   1.000  C
  C134     1.0000 0.27090  0.80470  0.02860  Biso   1.000  C
  H86      1.0000 0.30360  0.76170  0.04420  Biso   1.000  H
  C135     1.0000 0.25390  0.86220  0.07220  Biso   1.000  C
  H87      1.0000 0.27490  0.85650  0.11690  Biso   1.000  H
  C136     1.0000 0.30230  0.01010  0.17440  Biso   1.000  C
  C137     1.0000 0.37990  0.06000  0.17360  Biso   1.000  C
  H88      1.0000 0.38230  0.09300  0.13810  Biso   1.000  H
  C138     1.0000 0.45470  0.06230  0.22470  Biso   1.000  C
  H89      1.0000 0.50610  0.09630  0.22280  Biso   1.000  H
  C139     1.0000 0.45280  0.01410  0.27850  Biso   1.000  C
  C140     1.0000 0.37650  0.96320  0.27970  Biso   1.000  C
  H90      1.0000 0.37480  0.92990  0.31510  Biso   1.000  H
  C141     1.0000 0.30250  0.96140  0.22860  Biso   1.000  C
  H91      1.0000 0.25170  0.92680  0.23040  Biso   1.000  H
  C142     1.0000 0.52470  0.74660  0.84490  Biso   1.000  C
  H92      1.0000 0.48860  0.74510  0.88220  Biso   1.000  H
  C143     1.0000 0.55750  0.75300  0.74500  Biso   1.000  C
  H93      1.0000 0.55310  0.75640  0.69890  Biso   1.000  H
  C144     1.0000 0.74160  0.75240  0.76660  Biso   1.000  C
  C145     1.0000 0.76290  0.78020  0.70630  Biso   1.000  C
  H94      1.0000 0.71240  0.79520  0.67550  Biso   1.000  H
  C146     1.0000 0.86020  0.78580  0.69150  Biso   1.000  C
  H95      1.0000 0.87500  0.80390  0.65020  Biso   1.000  H
  C147     1.0000 0.93570  0.76480  0.73760  Biso   1.000  C
  C148     1.0000 0.91240  0.73680  0.79760  Biso   1.000  C
  H96      1.0000 0.96270  0.72120  0.82840  Biso   1.000  H
  C149     1.0000 0.81630  0.73120  0.81320  Biso   1.000  C
  H97      1.0000 0.80160  0.71330  0.85460  Biso   1.000  H
  C150     1.0000 0.03850  0.77660  0.72260  Biso   1.000  C
  Cu10     1.0000 0.25358  0.41859  0.87155  Biso   1.000  Cu
  Cu11     1.0000 0.33686  0.75613  0.75515  Biso   1.000  Cu
  Cu12     1.0000 0.14720  0.64273  0.80268  Biso   1.000  Cu
  N28      1.0000 0.48200  0.75180  0.78196  Biso   1.000  N
  N29      1.0000 0.62030  0.74400  0.84850  Biso   1.000  N
  N30      1.0000 0.64150  0.74850  0.78370  Biso   1.000  N
  N31      1.0000 0.11750  0.74130  0.75023  Biso   1.000  N
  N32      1.0000 0.19500  0.77500  0.72579  Biso   1.000  N
  N33      1.0000 0.16330  0.82780  0.68380  Biso   1.000  N
  N34      1.0000 0.06530  0.82940  0.68100  Biso   1.000  N
  O37      1.0000 0.92370  0.91680  0.38191  Biso   1.000  O
  O38      1.0000 0.80460  0.00270  0.31920  Biso   1.000  O
  O39      1.0000 0.80520  0.86667  0.28902  Biso   1.000  O
  O40      1.0000 0.01880  0.31185  0.91017  Biso   1.000  O
  O41      1.0000 0.13660  0.24948  0.83784  Biso   1.000  O
  O42      1.0000 0.20060  0.34339  0.92752  Biso   1.000  O
  O43      1.0000 0.31050  0.78264  0.84574  Biso   1.000  O
  O44      1.0000 0.17470  0.69820  0.88371  Biso   1.000  O
  O45      1.0000 0.34720  0.69210  0.94091  Biso   1.000  O
  H98      1.0000 0.36150  0.65680  0.91750  Biso   1.000  H
  O46      1.0000 0.62520  0.06911  0.32348  Biso   1.000  O
  O47      1.0000 0.58610  0.93416  0.35412  Biso   1.000  O
  O48      1.0000 0.50490  0.03990  0.40833  Biso   1.000  O
  P13      1.0000 0.86771  0.93245  0.31539  Biso   1.000  P
  P14      1.0000 0.12658  0.28290  0.90484  Biso   1.000  P
  P15      1.0000 0.26749  0.74179  0.90210  Biso   1.000  P
  P16      1.0000 0.54901  0.01383  0.34480  Biso   1.000  P
  Si4      1.0000 0.19393  0.00707  0.11050  Biso   1.000  Si
  C151     1.0000 0.18160  0.52190  0.71120  Biso   1.000  C
  C152     1.0000 0.07060  0.59240  0.66570  Biso   1.000  C
  N35      1.0000 0.16140  0.48990  0.65420  Biso   1.000  N
  C153     1.0000 0.05230  0.44670  0.53630  Biso   1.000  C
  H99      1.0000 0.08830  0.41080  0.56130  Biso   1.000  H
  C154     1.0000 0.04300  0.51810  0.56120  Biso   1.000  C
  C155     1.0000 0.99110  0.57150  0.52480  Biso   1.000  C
  H100     1.0000 0.98530  0.61970  0.54160  Biso   1.000  H
  C156     1.0000 0.09040  0.53570  0.62450  Biso   1.000  C
  N36      1.0000 0.12820  0.58390  0.71920  Biso   1.000  N
  Cu13     1.0000 0.00000  0.50000  0.00000  Biso   1.000  Cu
  Cu14     1.0000 0.50000  0.00000  0.50000  Biso   1.000  Cu
