data_image0
_cell_length_a       12.1951
_cell_length_b       12.078
_cell_length_c       14.6921
_cell_angle_alpha    90
_cell_angle_beta     93.436
_cell_angle_gamma    90

_symmetry_space_group_name_H-M    "P 1"
_symmetry_int_tables_number       1

loop_
  _symmetry_equiv_pos_as_xyz
  'x, y, z'

loop_
  _atom_site_label
  _atom_site_occupancy
  _atom_site_fract_x
  _atom_site_fract_y
  _atom_site_fract_z
  _atom_site_thermal_displace_type
  _atom_site_B_iso_or_equiv
  _atom_site_type_symbol
  N1       1.0000 0.15660  0.31850  0.12280  Biso   1.000  N
  N2       1.0000 0.85240  0.63220  0.10020  Biso   1.000  N
  N3       1.0000 0.38410  0.38480  0.02360  Biso   1.000  N
  C1       1.0000 0.10690  0.37060  0.17030  Biso   1.000  C
  C2       1.0000 0.90200  0.57950  0.15190  Biso   1.000  C
  H1       1.0000 0.34727  0.46646  0.01331  Biso   1.000  H
  H2       1.0000 0.42023  0.37859  0.09309  Biso   1.000  H
  H3       1.0000 0.44777  0.37291  0.97559  Biso   1.000  H
  N4       1.0000 0.65660  0.81850  0.12280  Biso   1.000  N
  N5       1.0000 0.35240  0.13220  0.10020  Biso   1.000  N
  N6       1.0000 0.88410  0.88480  0.02360  Biso   1.000  N
  C3       1.0000 0.60690  0.87060  0.17030  Biso   1.000  C
  C4       1.0000 0.40200  0.07950  0.15190  Biso   1.000  C
  H4       1.0000 0.84727  0.96646  0.01331  Biso   1.000  H
  H5       1.0000 0.92023  0.87859  0.09309  Biso   1.000  H
  H6       1.0000 0.94777  0.87291  0.97559  Biso   1.000  H
  N7       1.0000 0.84340  0.31850  0.37720  Biso   1.000  N
  N8       1.0000 0.14760  0.63220  0.39980  Biso   1.000  N
  N9       1.0000 0.61590  0.38480  0.47640  Biso   1.000  N
  C5       1.0000 0.89310  0.37060  0.32970  Biso   1.000  C
  C6       1.0000 0.09800  0.57950  0.34810  Biso   1.000  C
  H7       1.0000 0.65273  0.46646  0.48669  Biso   1.000  H
  H8       1.0000 0.57977  0.37859  0.40691  Biso   1.000  H
  H9       1.0000 0.55223  0.37291  0.52441  Biso   1.000  H
  N10      1.0000 0.34340  0.81850  0.37720  Biso   1.000  N
  N11      1.0000 0.64760  0.13220  0.39980  Biso   1.000  N
  N12      1.0000 0.11590  0.88480  0.47640  Biso   1.000  N
  C7       1.0000 0.39310  0.87060  0.32970  Biso   1.000  C
  C8       1.0000 0.59800  0.07950  0.34810  Biso   1.000  C
  H10      1.0000 0.15273  0.96646  0.48669  Biso   1.000  H
  H11      1.0000 0.07977  0.87859  0.40691  Biso   1.000  H
  H12      1.0000 0.05223  0.87291  0.52441  Biso   1.000  H
  N13      1.0000 0.84340  0.68150  0.87720  Biso   1.000  N
  N14      1.0000 0.14760  0.36780  0.89980  Biso   1.000  N
  N15      1.0000 0.61590  0.61520  0.97640  Biso   1.000  N
  C9       1.0000 0.89310  0.62940  0.82970  Biso   1.000  C
  C10      1.0000 0.09800  0.42050  0.84810  Biso   1.000  C
  H13      1.0000 0.65273  0.53354  0.98669  Biso   1.000  H
  H14      1.0000 0.57977  0.62141  0.90691  Biso   1.000  H
  H15      1.0000 0.55223  0.62709  0.02441  Biso   1.000  H
  N16      1.0000 0.34340  0.18150  0.87720  Biso   1.000  N
  N17      1.0000 0.64760  0.86780  0.89980  Biso   1.000  N
  N18      1.0000 0.11590  0.11520  0.97640  Biso   1.000  N
  C11      1.0000 0.39310  0.12940  0.82970  Biso   1.000  C
  C12      1.0000 0.59800  0.92050  0.84810  Biso   1.000  C
  H16      1.0000 0.15273  0.03354  0.98669  Biso   1.000  H
  H17      1.0000 0.07977  0.12141  0.90691  Biso   1.000  H
  H18      1.0000 0.05223  0.12709  0.02441  Biso   1.000  H
  N19      1.0000 0.15660  0.68150  0.62280  Biso   1.000  N
  N20      1.0000 0.85240  0.36780  0.60020  Biso   1.000  N
  N21      1.0000 0.38410  0.61520  0.52360  Biso   1.000  N
  C13      1.0000 0.10690  0.62940  0.67030  Biso   1.000  C
  C14      1.0000 0.90200  0.42050  0.65190  Biso   1.000  C
  H19      1.0000 0.34727  0.53354  0.51331  Biso   1.000  H
  H20      1.0000 0.42023  0.62141  0.59309  Biso   1.000  H
  H21      1.0000 0.44777  0.62709  0.47559  Biso   1.000  H
  N22      1.0000 0.65660  0.18150  0.62280  Biso   1.000  N
  N23      1.0000 0.35240  0.86780  0.60020  Biso   1.000  N
  N24      1.0000 0.88410  0.11520  0.52360  Biso   1.000  N
  C15      1.0000 0.60690  0.12940  0.67030  Biso   1.000  C
  C16      1.0000 0.40200  0.92050  0.65190  Biso   1.000  C
  H22      1.0000 0.84727  0.03354  0.51331  Biso   1.000  H
  H23      1.0000 0.92023  0.12141  0.59309  Biso   1.000  H
  H24      1.0000 0.94777  0.12709  0.47559  Biso   1.000  H
  Cd1      1.0000 0.00000  0.47577  0.25000  Biso   1.000  Cd
  Cd2      1.0000 0.50000  0.97577  0.25000  Biso   1.000  Cd
  Cd3      1.0000 0.00000  0.52423  0.75000  Biso   1.000  Cd
  Cd4      1.0000 0.50000  0.02423  0.75000  Biso   1.000  Cd
  Cd5      1.0000 0.25000  0.25000  0.00000  Biso   1.000  Cd
  Cd6      1.0000 0.75000  0.25000  0.50000  Biso   1.000  Cd
  Cd7      1.0000 0.75000  0.75000  0.00000  Biso   1.000  Cd
  Cd8      1.0000 0.25000  0.75000  0.50000  Biso   1.000  Cd
