data_YARYEV_clean
_audit_creation_date              2014-07-02
_audit_creation_method            'Materials Studio'
_symmetry_space_group_name_H-M    'P1'
_symmetry_Int_Tables_number       1
_symmetry_cell_setting            triclinic
loop_
_symmetry_equiv_pos_as_xyz
  x,y,z
_cell_length_a                    8.5692
_cell_length_b                    8.5692
_cell_length_c                    14.6210
_cell_angle_alpha                 90.6870
_cell_angle_beta                  90.6870
_cell_angle_gamma                 90.5248
loop_
_atom_site_label
_atom_site_type_symbol
_atom_site_fract_x
_atom_site_fract_y
_atom_site_fract_z
_atom_site_U_iso_or_equiv
_atom_site_adp_type
_atom_site_occupancy
Cd1    Cd    0.49348   0.50652   0.75000   0.01267  Uiso   1.00
Cd2    Cd    0.50652   0.49348   0.25000   0.01267  Uiso   1.00
Cd3    Cd    0.00000   0.50000   0.00000   0.01267  Uiso   1.00
Cd4    Cd    0.50000  -0.00000   0.50000   0.01267  Uiso   1.00
H1     H     0.09964   0.18670   0.95058   0.01267  Uiso   1.00
H2     H     0.89203   0.18879   0.94639   0.01267  Uiso   1.00
H3     H     0.99150   0.17400   0.05344   0.01267  Uiso   1.00
H4     H     0.81330   0.90036   0.54942   0.01267  Uiso   1.00
H5     H     0.81121   0.10797   0.55361   0.01267  Uiso   1.00
H6     H     0.82600   0.00850   0.44656   0.01267  Uiso   1.00
H7     H     0.90036   0.81330   0.04942   0.01267  Uiso   1.00
H8     H     0.10797   0.81121   0.05361   0.01267  Uiso   1.00
H9     H     0.00850   0.82600   0.94656   0.01267  Uiso   1.00
H10    H     0.18670   0.09964   0.45058   0.01267  Uiso   1.00
H11    H     0.18879   0.89203   0.44639   0.01267  Uiso   1.00
H12    H     0.17400   0.99150   0.55344   0.01267  Uiso   1.00
C1     C     0.28590   0.50710   0.83640   0.01267  Uiso   1.00
C2     C     0.49160   0.30100   0.65860   0.01267  Uiso   1.00
C3     C     0.49290   0.71410   0.66360   0.01267  Uiso   1.00
C4     C     0.69900   0.50840   0.84140   0.01267  Uiso   1.00
C5     C     0.71410   0.49290   0.16360   0.01267  Uiso   1.00
C6     C     0.50840   0.69900   0.34140   0.01267  Uiso   1.00
C7     C     0.50710   0.28590   0.33640   0.01267  Uiso   1.00
C8     C     0.30100   0.49160   0.15860   0.01267  Uiso   1.00
N1     N     0.18350   0.51150   0.88390   0.01267  Uiso   1.00
N2     N     0.19960   0.49020   0.10850   0.01267  Uiso   1.00
N3     N     0.99510   0.22550   0.98570   0.01267  Uiso   1.00
N4     N     0.48850   0.81650   0.61610   0.01267  Uiso   1.00
N5     N     0.50980   0.80040   0.39150   0.01267  Uiso   1.00
N6     N     0.77450   0.00490   0.51430   0.01267  Uiso   1.00
N7     N     0.81650   0.48850   0.11610   0.01267  Uiso   1.00
N8     N     0.80040   0.50980   0.89150   0.01267  Uiso   1.00
N9     N     0.00490   0.77450   0.01430   0.01267  Uiso   1.00
N10    N     0.51150   0.18350   0.38390   0.01267  Uiso   1.00
N11    N     0.49020   0.19960   0.60850   0.01267  Uiso   1.00
N12    N     0.22550   0.99510   0.48570   0.01267  Uiso   1.00
