data_image0
_cell_length_a       17.056
_cell_length_b       16.624
_cell_length_c       17.063
_cell_angle_alpha    90
_cell_angle_beta     90
_cell_angle_gamma    90

_symmetry_space_group_name_H-M    "P 1"
_symmetry_int_tables_number       1

loop_
  _symmetry_equiv_pos_as_xyz
  'x, y, z'

loop_
  _atom_site_label
  _atom_site_occupancy
  _atom_site_fract_x
  _atom_site_fract_y
  _atom_site_fract_z
  _atom_site_thermal_displace_type
  _atom_site_B_iso_or_equiv
  _atom_site_type_symbol
  C1       1.0000 0.19780  0.24690  0.55610  Biso   1.000  C
  N1       1.0000 0.13000  0.25320  0.56120  Biso   1.000  N
  C2       1.0000 0.69780  0.74690  0.55610  Biso   1.000  C
  N2       1.0000 0.63000  0.75320  0.56120  Biso   1.000  N
  C3       1.0000 0.80220  0.25310  0.05610  Biso   1.000  C
  N3       1.0000 0.87000  0.24680  0.06120  Biso   1.000  N
  C4       1.0000 0.30220  0.75310  0.05610  Biso   1.000  C
  N4       1.0000 0.37000  0.74680  0.06120  Biso   1.000  N
  C5       1.0000 0.80220  0.74690  0.94390  Biso   1.000  C
  N5       1.0000 0.87000  0.75320  0.93880  Biso   1.000  N
  C6       1.0000 0.30220  0.24690  0.94390  Biso   1.000  C
  N6       1.0000 0.37000  0.25320  0.93880  Biso   1.000  N
  C7       1.0000 0.19780  0.75310  0.44390  Biso   1.000  C
  N7       1.0000 0.13000  0.74680  0.43880  Biso   1.000  N
  C8       1.0000 0.69780  0.25310  0.44390  Biso   1.000  C
  N8       1.0000 0.63000  0.24680  0.43880  Biso   1.000  N
  C9       1.0000 0.80220  0.75310  0.44390  Biso   1.000  C
  N9       1.0000 0.87000  0.74680  0.43880  Biso   1.000  N
  C10      1.0000 0.30220  0.25310  0.44390  Biso   1.000  C
  N10      1.0000 0.37000  0.24680  0.43880  Biso   1.000  N
  C11      1.0000 0.19780  0.74690  0.94390  Biso   1.000  C
  N11      1.0000 0.13000  0.75320  0.93880  Biso   1.000  N
  C12      1.0000 0.69780  0.24690  0.94390  Biso   1.000  C
  N12      1.0000 0.63000  0.25320  0.93880  Biso   1.000  N
  C13      1.0000 0.19780  0.25310  0.05610  Biso   1.000  C
  N13      1.0000 0.13000  0.24680  0.06120  Biso   1.000  N
  C14      1.0000 0.69780  0.75310  0.05610  Biso   1.000  C
  N14      1.0000 0.63000  0.74680  0.06120  Biso   1.000  N
  C15      1.0000 0.80220  0.24690  0.55610  Biso   1.000  C
  N15      1.0000 0.87000  0.25320  0.56120  Biso   1.000  N
  C16      1.0000 0.30220  0.74690  0.55610  Biso   1.000  C
  N16      1.0000 0.37000  0.75320  0.56120  Biso   1.000  N
  N17      1.0000 0.25000  0.25000  0.50000  Biso   1.000  N
  N18      1.0000 0.75000  0.25000  0.00000  Biso   1.000  N
  N19      1.0000 0.75000  0.75000  0.00000  Biso   1.000  N
  N20      1.0000 0.25000  0.75000  0.50000  Biso   1.000  N
  N21      1.0000 0.75000  0.75000  0.50000  Biso   1.000  N
  N22      1.0000 0.25000  0.75000  0.00000  Biso   1.000  N
  N23      1.0000 0.25000  0.25000  0.00000  Biso   1.000  N
  N24      1.0000 0.75000  0.25000  0.50000  Biso   1.000  N
  N25      1.0000 0.00000  0.32770  0.28380  Biso   1.000  N
  Cd1      1.0000 0.00000  0.25298  0.55016  Biso   1.000  Cd
  N26      1.0000 0.00000  0.13540  0.47420  Biso   1.000  N
  C17      1.0000 0.00000  0.31310  0.35920  Biso   1.000  C
  C18      1.0000 0.00000  0.06620  0.47170  Biso   1.000  C
  N27      1.0000 0.00000  0.32090  0.42540  Biso   1.000  N
  C19      1.0000 0.00000  0.27690  0.22590  Biso   1.000  C
  N28      1.0000 0.00000  0.24010  0.17000  Biso   1.000  N
  N29      1.0000 0.50000  0.82770  0.28380  Biso   1.000  N
  Cd2      1.0000 0.50000  0.75298  0.55016  Biso   1.000  Cd
  N30      1.0000 0.50000  0.63540  0.47420  Biso   1.000  N
  C20      1.0000 0.50000  0.81310  0.35920  Biso   1.000  C
  C21      1.0000 0.50000  0.56620  0.47170  Biso   1.000  C
  N31      1.0000 0.50000  0.82090  0.42540  Biso   1.000  N
  C22      1.0000 0.50000  0.77690  0.22590  Biso   1.000  C
  N32      1.0000 0.50000  0.74010  0.17000  Biso   1.000  N
  N33      1.0000 0.00000  0.17230  0.78380  Biso   1.000  N
  Cd3      1.0000 0.00000  0.24702  0.05016  Biso   1.000  Cd
  N34      1.0000 0.00000  0.36460  0.97420  Biso   1.000  N
  C23      1.0000 0.00000  0.18690  0.85920  Biso   1.000  C
  C24      1.0000 0.00000  0.43380  0.97170  Biso   1.000  C
  N35      1.0000 0.00000  0.17910  0.92540  Biso   1.000  N
  C25      1.0000 0.00000  0.22310  0.72590  Biso   1.000  C
  N36      1.0000 0.00000  0.25990  0.67000  Biso   1.000  N
  N37      1.0000 0.50000  0.67230  0.78380  Biso   1.000  N
  Cd4      1.0000 0.50000  0.74702  0.05016  Biso   1.000  Cd
  N38      1.0000 0.50000  0.86460  0.97420  Biso   1.000  N
  C26      1.0000 0.50000  0.68690  0.85920  Biso   1.000  C
  C27      1.0000 0.50000  0.93380  0.97170  Biso   1.000  C
  N39      1.0000 0.50000  0.67910  0.92540  Biso   1.000  N
  C28      1.0000 0.50000  0.72310  0.72590  Biso   1.000  C
  N40      1.0000 0.50000  0.75990  0.67000  Biso   1.000  N
  N41      1.0000 0.00000  0.82770  0.21620  Biso   1.000  N
  Cd5      1.0000 0.00000  0.75298  0.94984  Biso   1.000  Cd
  N42      1.0000 0.00000  0.63540  0.02580  Biso   1.000  N
  C29      1.0000 0.00000  0.81310  0.14080  Biso   1.000  C
  C30      1.0000 0.00000  0.56620  0.02830  Biso   1.000  C
  N43      1.0000 0.00000  0.82090  0.07460  Biso   1.000  N
  C31      1.0000 0.00000  0.77690  0.27410  Biso   1.000  C
  N44      1.0000 0.00000  0.74010  0.33000  Biso   1.000  N
  N45      1.0000 0.50000  0.32770  0.21620  Biso   1.000  N
  Cd6      1.0000 0.50000  0.25298  0.94984  Biso   1.000  Cd
  N46      1.0000 0.50000  0.13540  0.02580  Biso   1.000  N
  C32      1.0000 0.50000  0.31310  0.14080  Biso   1.000  C
  C33      1.0000 0.50000  0.06620  0.02830  Biso   1.000  C
  N47      1.0000 0.50000  0.32090  0.07460  Biso   1.000  N
  C34      1.0000 0.50000  0.27690  0.27410  Biso   1.000  C
  N48      1.0000 0.50000  0.24010  0.33000  Biso   1.000  N
  N49      1.0000 0.00000  0.67230  0.71620  Biso   1.000  N
  Cd7      1.0000 0.00000  0.74702  0.44984  Biso   1.000  Cd
  N50      1.0000 0.00000  0.86460  0.52580  Biso   1.000  N
  C35      1.0000 0.00000  0.68690  0.64080  Biso   1.000  C
  C36      1.0000 0.00000  0.93380  0.52830  Biso   1.000  C
  N51      1.0000 0.00000  0.67910  0.57460  Biso   1.000  N
  C37      1.0000 0.00000  0.72310  0.77410  Biso   1.000  C
  N52      1.0000 0.00000  0.75990  0.83000  Biso   1.000  N
  N53      1.0000 0.50000  0.17230  0.71620  Biso   1.000  N
  Cd8      1.0000 0.50000  0.24702  0.44984  Biso   1.000  Cd
  N54      1.0000 0.50000  0.36460  0.52580  Biso   1.000  N
  C38      1.0000 0.50000  0.18690  0.64080  Biso   1.000  C
  C39      1.0000 0.50000  0.43380  0.52830  Biso   1.000  C
  N55      1.0000 0.50000  0.17910  0.57460  Biso   1.000  N
  C40      1.0000 0.50000  0.22310  0.77410  Biso   1.000  C
  N56      1.0000 0.50000  0.25990  0.83000  Biso   1.000  N
  N57      1.0000 0.00000  0.00000  0.50000  Biso   1.000  N
  N58      1.0000 0.50000  0.50000  0.50000  Biso   1.000  N
  N59      1.0000 0.00000  0.50000  0.00000  Biso   1.000  N
  N60      1.0000 0.50000  0.00000  0.00000  Biso   1.000  N
