data_image0
_cell_length_a       17.25
_cell_length_b       17.57
_cell_length_c       16.79
_cell_angle_alpha    90
_cell_angle_beta     90
_cell_angle_gamma    90

_symmetry_space_group_name_H-M    "P 1"
_symmetry_int_tables_number       1

loop_
  _symmetry_equiv_pos_as_xyz
  'x, y, z'

loop_
  _atom_site_label
  _atom_site_occupancy
  _atom_site_fract_x
  _atom_site_fract_y
  _atom_site_fract_z
  _atom_site_thermal_displace_type
  _atom_site_B_iso_or_equiv
  _atom_site_type_symbol
  N1       1.0000 0.19320  0.29510  0.36580  Biso   1.000  N
  C1       1.0000 0.20870  0.27840  0.29970  Biso   1.000  C
  N2       1.0000 0.69320  0.79510  0.86580  Biso   1.000  N
  C2       1.0000 0.70870  0.77840  0.79970  Biso   1.000  C
  N3       1.0000 0.80680  0.70490  0.36580  Biso   1.000  N
  C3       1.0000 0.79130  0.72160  0.29970  Biso   1.000  C
  N4       1.0000 0.30680  0.20490  0.86580  Biso   1.000  N
  C4       1.0000 0.29130  0.22160  0.79970  Biso   1.000  C
  N5       1.0000 0.30680  0.79510  0.63420  Biso   1.000  N
  C5       1.0000 0.29130  0.77840  0.70030  Biso   1.000  C
  N6       1.0000 0.80680  0.29510  0.13420  Biso   1.000  N
  C6       1.0000 0.79130  0.27840  0.20030  Biso   1.000  C
  N7       1.0000 0.69320  0.20490  0.63420  Biso   1.000  N
  C7       1.0000 0.70870  0.22160  0.70030  Biso   1.000  C
  N8       1.0000 0.19320  0.70490  0.13420  Biso   1.000  N
  C8       1.0000 0.20870  0.72160  0.20030  Biso   1.000  C
  N9       1.0000 0.80680  0.70490  0.63420  Biso   1.000  N
  C9       1.0000 0.79130  0.72160  0.70030  Biso   1.000  C
  N10      1.0000 0.30680  0.20490  0.13420  Biso   1.000  N
  C10      1.0000 0.29130  0.22160  0.20030  Biso   1.000  C
  N11      1.0000 0.19320  0.29510  0.63420  Biso   1.000  N
  C11      1.0000 0.20870  0.27840  0.70030  Biso   1.000  C
  N12      1.0000 0.69320  0.79510  0.13420  Biso   1.000  N
  C12      1.0000 0.70870  0.77840  0.20030  Biso   1.000  C
  N13      1.0000 0.69320  0.20490  0.36580  Biso   1.000  N
  C13      1.0000 0.70870  0.22160  0.29970  Biso   1.000  C
  N14      1.0000 0.19320  0.70490  0.86580  Biso   1.000  N
  C14      1.0000 0.20870  0.72160  0.79970  Biso   1.000  C
  N15      1.0000 0.30680  0.79510  0.36580  Biso   1.000  N
  C15      1.0000 0.29130  0.77840  0.29970  Biso   1.000  C
  N16      1.0000 0.80680  0.29510  0.86580  Biso   1.000  N
  C16      1.0000 0.79130  0.27840  0.79970  Biso   1.000  C
  N17      1.0000 0.47640  0.29530  0.50000  Biso   1.000  N
  C17      1.0000 0.40070  0.30560  0.50000  Biso   1.000  C
  N18      1.0000 0.33740  0.28720  0.50000  Biso   1.000  N
  Cd1      1.0000 0.20374  0.28802  0.50000  Biso   1.000  Cd
  N19      1.0000 0.20060  0.15730  0.50000  Biso   1.000  N
  C18      1.0000 0.20100  0.09420  0.50000  Biso   1.000  C
  N20      1.0000 0.19920  0.01990  0.50000  Biso   1.000  N
  N21      1.0000 0.29900  0.92280  0.50000  Biso   1.000  N
  C19      1.0000 0.26160  0.97650  0.50000  Biso   1.000  C
  C20      1.0000 0.50960  0.22680  0.50000  Biso   1.000  C
  N22      1.0000 0.56810  0.19290  0.50000  Biso   1.000  N
  N23      1.0000 0.97640  0.79530  0.00000  Biso   1.000  N
  C21      1.0000 0.90070  0.80560  0.00000  Biso   1.000  C
  N24      1.0000 0.83740  0.78720  0.00000  Biso   1.000  N
  Cd2      1.0000 0.70374  0.78802  0.00000  Biso   1.000  Cd
  N25      1.0000 0.70060  0.65730  0.00000  Biso   1.000  N
  C22      1.0000 0.70100  0.59420  0.00000  Biso   1.000  C
  N26      1.0000 0.69920  0.51990  0.00000  Biso   1.000  N
  N27      1.0000 0.79900  0.42280  0.00000  Biso   1.000  N
  C23      1.0000 0.76160  0.47650  0.00000  Biso   1.000  C
  C24      1.0000 0.00960  0.72680  0.00000  Biso   1.000  C
  N28      1.0000 0.06810  0.69290  0.00000  Biso   1.000  N
  N29      1.0000 0.52360  0.70470  0.50000  Biso   1.000  N
  C25      1.0000 0.59930  0.69440  0.50000  Biso   1.000  C
  N30      1.0000 0.66260  0.71280  0.50000  Biso   1.000  N
  Cd3      1.0000 0.79626  0.71198  0.50000  Biso   1.000  Cd
  N31      1.0000 0.79940  0.84270  0.50000  Biso   1.000  N
  C26      1.0000 0.79900  0.90580  0.50000  Biso   1.000  C
  N32      1.0000 0.80080  0.98010  0.50000  Biso   1.000  N
  N33      1.0000 0.70100  0.07720  0.50000  Biso   1.000  N
  C27      1.0000 0.73840  0.02350  0.50000  Biso   1.000  C
  C28      1.0000 0.49040  0.77320  0.50000  Biso   1.000  C
  N34      1.0000 0.43190  0.80710  0.50000  Biso   1.000  N
  N35      1.0000 0.02360  0.20470  0.00000  Biso   1.000  N
  C29      1.0000 0.09930  0.19440  0.00000  Biso   1.000  C
  N36      1.0000 0.16260  0.21280  0.00000  Biso   1.000  N
  Cd4      1.0000 0.29626  0.21198  0.00000  Biso   1.000  Cd
  N37      1.0000 0.29940  0.34270  0.00000  Biso   1.000  N
  C30      1.0000 0.29900  0.40580  0.00000  Biso   1.000  C
  N38      1.0000 0.30080  0.48010  0.00000  Biso   1.000  N
  N39      1.0000 0.20100  0.57720  0.00000  Biso   1.000  N
  C31      1.0000 0.23840  0.52350  0.00000  Biso   1.000  C
  C32      1.0000 0.99040  0.27320  0.00000  Biso   1.000  C
  N40      1.0000 0.93190  0.30710  0.00000  Biso   1.000  N
  N41      1.0000 0.02360  0.79530  0.50000  Biso   1.000  N
  C33      1.0000 0.09930  0.80560  0.50000  Biso   1.000  C
  N42      1.0000 0.16260  0.78720  0.50000  Biso   1.000  N
  Cd5      1.0000 0.29626  0.78802  0.50000  Biso   1.000  Cd
  N43      1.0000 0.29940  0.65730  0.50000  Biso   1.000  N
  C34      1.0000 0.29900  0.59420  0.50000  Biso   1.000  C
  N44      1.0000 0.30080  0.51990  0.50000  Biso   1.000  N
  N45      1.0000 0.20100  0.42280  0.50000  Biso   1.000  N
  C35      1.0000 0.23840  0.47650  0.50000  Biso   1.000  C
  C36      1.0000 0.99040  0.72680  0.50000  Biso   1.000  C
  N46      1.0000 0.93190  0.69290  0.50000  Biso   1.000  N
  N47      1.0000 0.52360  0.29530  0.00000  Biso   1.000  N
  C37      1.0000 0.59930  0.30560  0.00000  Biso   1.000  C
  N48      1.0000 0.66260  0.28720  0.00000  Biso   1.000  N
  Cd6      1.0000 0.79626  0.28802  0.00000  Biso   1.000  Cd
  N49      1.0000 0.79940  0.15730  0.00000  Biso   1.000  N
  C38      1.0000 0.79900  0.09420  0.00000  Biso   1.000  C
  N50      1.0000 0.80080  0.01990  0.00000  Biso   1.000  N
  N51      1.0000 0.70100  0.92280  0.00000  Biso   1.000  N
  C39      1.0000 0.73840  0.97650  0.00000  Biso   1.000  C
  C40      1.0000 0.49040  0.22680  0.00000  Biso   1.000  C
  N52      1.0000 0.43190  0.19290  0.00000  Biso   1.000  N
  N53      1.0000 0.97640  0.20470  0.50000  Biso   1.000  N
  C41      1.0000 0.90070  0.19440  0.50000  Biso   1.000  C
  N54      1.0000 0.83740  0.21280  0.50000  Biso   1.000  N
  Cd7      1.0000 0.70374  0.21198  0.50000  Biso   1.000  Cd
  N55      1.0000 0.70060  0.34270  0.50000  Biso   1.000  N
  C42      1.0000 0.70100  0.40580  0.50000  Biso   1.000  C
  N56      1.0000 0.69920  0.48010  0.50000  Biso   1.000  N
  N57      1.0000 0.79900  0.57720  0.50000  Biso   1.000  N
  C43      1.0000 0.76160  0.52350  0.50000  Biso   1.000  C
  C44      1.0000 0.00960  0.27320  0.50000  Biso   1.000  C
  N58      1.0000 0.06810  0.30710  0.50000  Biso   1.000  N
  N59      1.0000 0.47640  0.70470  0.00000  Biso   1.000  N
  C45      1.0000 0.40070  0.69440  0.00000  Biso   1.000  C
  N60      1.0000 0.33740  0.71280  0.00000  Biso   1.000  N
  Cd8      1.0000 0.20374  0.71198  0.00000  Biso   1.000  Cd
  N61      1.0000 0.20060  0.84270  0.00000  Biso   1.000  N
  C46      1.0000 0.20100  0.90580  0.00000  Biso   1.000  C
  N62      1.0000 0.19920  0.98010  0.00000  Biso   1.000  N
  N63      1.0000 0.29900  0.07720  0.00000  Biso   1.000  N
  C47      1.0000 0.26160  0.02350  0.00000  Biso   1.000  C
  C48      1.0000 0.50960  0.77320  0.00000  Biso   1.000  C
  N64      1.0000 0.56810  0.80710  0.00000  Biso   1.000  N
  N65      1.0000 0.25000  0.25000  0.25000  Biso   1.000  N
  N66      1.0000 0.75000  0.75000  0.25000  Biso   1.000  N
  N67      1.0000 0.25000  0.75000  0.75000  Biso   1.000  N
  N68      1.0000 0.75000  0.25000  0.75000  Biso   1.000  N
  N69      1.0000 0.75000  0.75000  0.75000  Biso   1.000  N
  N70      1.0000 0.25000  0.25000  0.75000  Biso   1.000  N
  N71      1.0000 0.75000  0.25000  0.25000  Biso   1.000  N
  N72      1.0000 0.25000  0.75000  0.25000  Biso   1.000  N
