data_image0
_cell_length_a       10.498
_cell_length_b       16.5
_cell_length_c       15.763
_cell_angle_alpha    90
_cell_angle_beta     128.04
_cell_angle_gamma    90

_symmetry_space_group_name_H-M    "P 1"
_symmetry_int_tables_number       1

loop_
  _symmetry_equiv_pos_as_xyz
  'x, y, z'

loop_
  _atom_site_label
  _atom_site_occupancy
  _atom_site_fract_x
  _atom_site_fract_y
  _atom_site_fract_z
  _atom_site_thermal_displace_type
  _atom_site_B_iso_or_equiv
  _atom_site_type_symbol
  C1       1.0000 0.52480  0.64640  0.67630  Biso   1.000  C
  Cd1      1.0000 0.56481  0.82341  0.80771  Biso   1.000  Cd
  N1       1.0000 0.40520  0.44502  0.61070  Biso   1.000  N
  N2       1.0000 0.52600  0.70510  0.71680  Biso   1.000  N
  N3       1.0000 0.50600  0.57920  0.61650  Biso   1.000  N
  C2       1.0000 0.45130  0.51316  0.61480  Biso   1.000  C
  N4       1.0000 0.84690  0.80060  0.92010  Biso   1.000  N
  C3       1.0000 0.94930  0.76100  0.96060  Biso   1.000  C
  N5       1.0000 0.51900  0.74930  0.91510  Biso   1.000  N
  N6       1.0000 0.43750  0.64870  0.98460  Biso   1.000  N
  C4       1.0000 0.49180  0.70670  0.95650  Biso   1.000  C
  N7       1.0000 0.28180  0.65300  0.17940  Biso   1.000  N
  N8       1.0000 0.07360  0.71380  0.98460  Biso   1.000  N
  C5       1.0000 0.18850  0.68140  0.10120  Biso   1.000  C
  N9       1.0000 0.57900  0.61090  0.17760  Biso   1.000  N
  C6       1.0000 0.51300  0.63070  0.08900  Biso   1.000  C
  C7       1.0000 0.47520  0.14640  0.82370  Biso   1.000  C
  Cd2      1.0000 0.43519  0.32341  0.69229  Biso   1.000  Cd
  N10      1.0000 0.59480  0.94502  0.88930  Biso   1.000  N
  N11      1.0000 0.47400  0.20510  0.78320  Biso   1.000  N
  N12      1.0000 0.49400  0.07920  0.88350  Biso   1.000  N
  C8       1.0000 0.54870  0.01316  0.88520  Biso   1.000  C
  N13      1.0000 0.15310  0.30060  0.57990  Biso   1.000  N
  C9       1.0000 0.05070  0.26100  0.53940  Biso   1.000  C
  N14      1.0000 0.48100  0.24930  0.58490  Biso   1.000  N
  N15      1.0000 0.56250  0.14870  0.51540  Biso   1.000  N
  C10      1.0000 0.50820  0.20670  0.54350  Biso   1.000  C
  N16      1.0000 0.71820  0.15300  0.32060  Biso   1.000  N
  N17      1.0000 0.92640  0.21380  0.51540  Biso   1.000  N
  C11      1.0000 0.81150  0.18140  0.39880  Biso   1.000  C
  N18      1.0000 0.42100  0.11090  0.32240  Biso   1.000  N
  C12      1.0000 0.48700  0.13070  0.41100  Biso   1.000  C
  C13      1.0000 0.47520  0.35360  0.32370  Biso   1.000  C
  Cd3      1.0000 0.43519  0.17659  0.19229  Biso   1.000  Cd
  N19      1.0000 0.59480  0.55498  0.38930  Biso   1.000  N
  N20      1.0000 0.47400  0.29490  0.28320  Biso   1.000  N
  N21      1.0000 0.49400  0.42080  0.38350  Biso   1.000  N
  C14      1.0000 0.54870  0.48684  0.38520  Biso   1.000  C
  N22      1.0000 0.15310  0.19940  0.07990  Biso   1.000  N
  C15      1.0000 0.05070  0.23900  0.03940  Biso   1.000  C
  N23      1.0000 0.48100  0.25070  0.08490  Biso   1.000  N
  N24      1.0000 0.56250  0.35130  0.01540  Biso   1.000  N
  C16      1.0000 0.50820  0.29330  0.04350  Biso   1.000  C
  N25      1.0000 0.71820  0.34700  0.82060  Biso   1.000  N
  N26      1.0000 0.92640  0.28620  0.01540  Biso   1.000  N
  C17      1.0000 0.81150  0.31860  0.89880  Biso   1.000  C
  N27      1.0000 0.42100  0.38910  0.82240  Biso   1.000  N
  C18      1.0000 0.48700  0.36930  0.91100  Biso   1.000  C
  C19      1.0000 0.52480  0.85360  0.17630  Biso   1.000  C
  Cd4      1.0000 0.56481  0.67659  0.30771  Biso   1.000  Cd
  N28      1.0000 0.40520  0.05498  0.11070  Biso   1.000  N
  N29      1.0000 0.52600  0.79490  0.21680  Biso   1.000  N
  N30      1.0000 0.50600  0.92080  0.11650  Biso   1.000  N
  C20      1.0000 0.45130  0.98684  0.11480  Biso   1.000  C
  N31      1.0000 0.84690  0.69940  0.42010  Biso   1.000  N
  C21      1.0000 0.94930  0.73900  0.46060  Biso   1.000  C
  N32      1.0000 0.51900  0.75070  0.41510  Biso   1.000  N
  N33      1.0000 0.43750  0.85130  0.48460  Biso   1.000  N
  C22      1.0000 0.49180  0.79330  0.45650  Biso   1.000  C
  N34      1.0000 0.28180  0.84700  0.67940  Biso   1.000  N
  N35      1.0000 0.07360  0.78620  0.48460  Biso   1.000  N
  C23      1.0000 0.18850  0.81860  0.60120  Biso   1.000  C
  N36      1.0000 0.57900  0.88910  0.67760  Biso   1.000  N
  C24      1.0000 0.51300  0.86930  0.58900  Biso   1.000  C
