data_image0
_cell_length_a       20.0787
_cell_length_b       20.0787
_cell_length_c       20.0787
_cell_angle_alpha    90
_cell_angle_beta     90
_cell_angle_gamma    90

_symmetry_space_group_name_H-M    "P 1"
_symmetry_int_tables_number       1

loop_
  _symmetry_equiv_pos_as_xyz
  'x, y, z'

loop_
  _atom_site_label
  _atom_site_occupancy
  _atom_site_fract_x
  _atom_site_fract_y
  _atom_site_fract_z
  _atom_site_thermal_displace_type
  _atom_site_B_iso_or_equiv
  _atom_site_type_symbol
  Zn1      1.0000 0.25119  0.27053  0.14570  Biso   1.000  Zn
  N1       1.0000 0.34264  0.24318  0.17105  Biso   1.000  N
  C1       1.0000 0.40210  0.26890  0.15940  Biso   1.000  C
  H1       1.0000 0.41050  0.30360  0.12990  Biso   1.000  H
  C2       1.0000 0.45015  0.23670  0.19730  Biso   1.000  C
  N2       1.0000 0.35026  0.19397  0.21748  Biso   1.000  N
  O1       1.0000 0.54899  0.29235  0.16480  Biso   1.000  O
  C3       1.0000 0.52180  0.25030  0.20070  Biso   1.000  C
  C4       1.0000 0.41470  0.18970  0.23280  Biso   1.000  C
  H2       1.0000 0.43300  0.15960  0.26290  Biso   1.000  H
  O2       1.0000 0.55496  0.21668  0.24317  Biso   1.000  O
  Zn2      1.0000 0.24881  0.72947  0.64570  Biso   1.000  Zn
  N3       1.0000 0.15736  0.75682  0.67105  Biso   1.000  N
  C5       1.0000 0.09790  0.73110  0.65940  Biso   1.000  C
  H3       1.0000 0.08950  0.69640  0.62990  Biso   1.000  H
  C6       1.0000 0.04985  0.76330  0.69730  Biso   1.000  C
  N4       1.0000 0.14974  0.80603  0.71748  Biso   1.000  N
  O3       1.0000 0.95101  0.70765  0.66480  Biso   1.000  O
  C7       1.0000 0.97820  0.74970  0.70070  Biso   1.000  C
  C8       1.0000 0.08530  0.81030  0.73280  Biso   1.000  C
  H4       1.0000 0.06700  0.84040  0.76290  Biso   1.000  H
  O4       1.0000 0.94504  0.78332  0.74317  Biso   1.000  O
  Zn3      1.0000 0.74881  0.77053  0.35430  Biso   1.000  Zn
  N5       1.0000 0.65736  0.74318  0.32895  Biso   1.000  N
  C9       1.0000 0.59790  0.76890  0.34060  Biso   1.000  C
  H5       1.0000 0.58950  0.80360  0.37010  Biso   1.000  H
  C10      1.0000 0.54985  0.73670  0.30270  Biso   1.000  C
  N6       1.0000 0.64974  0.69397  0.28252  Biso   1.000  N
  O5       1.0000 0.45101  0.79235  0.33520  Biso   1.000  O
  C11      1.0000 0.47820  0.75030  0.29930  Biso   1.000  C
  C12      1.0000 0.58530  0.68970  0.26720  Biso   1.000  C
  H6       1.0000 0.56700  0.65960  0.23710  Biso   1.000  H
  O6       1.0000 0.44504  0.71668  0.25683  Biso   1.000  O
  Zn4      1.0000 0.75119  0.22947  0.85430  Biso   1.000  Zn
  N7       1.0000 0.84264  0.25682  0.82895  Biso   1.000  N
  C13      1.0000 0.90210  0.23110  0.84060  Biso   1.000  C
  H7       1.0000 0.91050  0.19640  0.87010  Biso   1.000  H
  C14      1.0000 0.95015  0.26330  0.80270  Biso   1.000  C
  N8       1.0000 0.85026  0.30603  0.78252  Biso   1.000  N
  O7       1.0000 0.04899  0.20765  0.83520  Biso   1.000  O
  C15      1.0000 0.02180  0.24970  0.79930  Biso   1.000  C
  C16      1.0000 0.91470  0.31030  0.76720  Biso   1.000  C
  H8       1.0000 0.93300  0.34040  0.73710  Biso   1.000  H
  O8       1.0000 0.05496  0.28332  0.75683  Biso   1.000  O
  Zn5      1.0000 0.14570  0.25119  0.27053  Biso   1.000  Zn
  N9       1.0000 0.17105  0.34264  0.24318  Biso   1.000  N
  C17      1.0000 0.15940  0.40210  0.26890  Biso   1.000  C
  H9       1.0000 0.12990  0.41050  0.30360  Biso   1.000  H
  C18      1.0000 0.19730  0.45015  0.23670  Biso   1.000  C
  N10      1.0000 0.21748  0.35026  0.19397  Biso   1.000  N
  O9       1.0000 0.16480  0.54899  0.29235  Biso   1.000  O
  C19      1.0000 0.20070  0.52180  0.25030  Biso   1.000  C
  C20      1.0000 0.23280  0.41470  0.18970  Biso   1.000  C
  H10      1.0000 0.26290  0.43300  0.15960  Biso   1.000  H
  O10      1.0000 0.24317  0.55496  0.21668  Biso   1.000  O
  Zn6      1.0000 0.64570  0.24881  0.72947  Biso   1.000  Zn
  N11      1.0000 0.67105  0.15736  0.75682  Biso   1.000  N
  C21      1.0000 0.65940  0.09790  0.73110  Biso   1.000  C
  H11      1.0000 0.62990  0.08950  0.69640  Biso   1.000  H
  C22      1.0000 0.69730  0.04985  0.76330  Biso   1.000  C
  N12      1.0000 0.71748  0.14974  0.80603  Biso   1.000  N
  O11      1.0000 0.66480  0.95101  0.70765  Biso   1.000  O
  C23      1.0000 0.70070  0.97820  0.74970  Biso   1.000  C
  C24      1.0000 0.73280  0.08530  0.81030  Biso   1.000  C
  H12      1.0000 0.76290  0.06700  0.84040  Biso   1.000  H
  O12      1.0000 0.74317  0.94504  0.78332  Biso   1.000  O
  Zn7      1.0000 0.35430  0.74881  0.77053  Biso   1.000  Zn
  N13      1.0000 0.32895  0.65736  0.74318  Biso   1.000  N
  C25      1.0000 0.34060  0.59790  0.76890  Biso   1.000  C
  H13      1.0000 0.37010  0.58950  0.80360  Biso   1.000  H
  C26      1.0000 0.30270  0.54985  0.73670  Biso   1.000  C
  N14      1.0000 0.28252  0.64974  0.69397  Biso   1.000  N
  O13      1.0000 0.33520  0.45101  0.79235  Biso   1.000  O
  C27      1.0000 0.29930  0.47820  0.75030  Biso   1.000  C
  C28      1.0000 0.26720  0.58530  0.68970  Biso   1.000  C
  H14      1.0000 0.23710  0.56700  0.65960  Biso   1.000  H
  O14      1.0000 0.25683  0.44504  0.71668  Biso   1.000  O
  Zn8      1.0000 0.85430  0.75119  0.22947  Biso   1.000  Zn
  N15      1.0000 0.82895  0.84264  0.25682  Biso   1.000  N
  C29      1.0000 0.84060  0.90210  0.23110  Biso   1.000  C
  H15      1.0000 0.87010  0.91050  0.19640  Biso   1.000  H
  C30      1.0000 0.80270  0.95015  0.26330  Biso   1.000  C
  N16      1.0000 0.78252  0.85026  0.30603  Biso   1.000  N
  O15      1.0000 0.83520  0.04899  0.20765  Biso   1.000  O
  C31      1.0000 0.79930  0.02180  0.24970  Biso   1.000  C
  C32      1.0000 0.76720  0.91470  0.31030  Biso   1.000  C
  H16      1.0000 0.73710  0.93300  0.34040  Biso   1.000  H
  O16      1.0000 0.75683  0.05496  0.28332  Biso   1.000  O
  Zn9      1.0000 0.27053  0.14570  0.25119  Biso   1.000  Zn
  N17      1.0000 0.24318  0.17105  0.34264  Biso   1.000  N
  C33      1.0000 0.26890  0.15940  0.40210  Biso   1.000  C
  H17      1.0000 0.30360  0.12990  0.41050  Biso   1.000  H
  C34      1.0000 0.23670  0.19730  0.45015  Biso   1.000  C
  N18      1.0000 0.19397  0.21748  0.35026  Biso   1.000  N
  O17      1.0000 0.29235  0.16480  0.54899  Biso   1.000  O
  C35      1.0000 0.25030  0.20070  0.52180  Biso   1.000  C
  C36      1.0000 0.18970  0.23280  0.41470  Biso   1.000  C
  H18      1.0000 0.15960  0.26290  0.43300  Biso   1.000  H
  O18      1.0000 0.21668  0.24317  0.55496  Biso   1.000  O
  Zn10     1.0000 0.72947  0.64570  0.24881  Biso   1.000  Zn
  N19      1.0000 0.75682  0.67105  0.15736  Biso   1.000  N
  C37      1.0000 0.73110  0.65940  0.09790  Biso   1.000  C
  H19      1.0000 0.69640  0.62990  0.08950  Biso   1.000  H
  C38      1.0000 0.76330  0.69730  0.04985  Biso   1.000  C
  N20      1.0000 0.80603  0.71748  0.14974  Biso   1.000  N
  O19      1.0000 0.70765  0.66480  0.95101  Biso   1.000  O
  C39      1.0000 0.74970  0.70070  0.97820  Biso   1.000  C
  C40      1.0000 0.81030  0.73280  0.08530  Biso   1.000  C
  H20      1.0000 0.84040  0.76290  0.06700  Biso   1.000  H
  O20      1.0000 0.78332  0.74317  0.94504  Biso   1.000  O
  Zn11     1.0000 0.77053  0.35430  0.74881  Biso   1.000  Zn
  N21      1.0000 0.74318  0.32895  0.65736  Biso   1.000  N
  C41      1.0000 0.76890  0.34060  0.59790  Biso   1.000  C
  H21      1.0000 0.80360  0.37010  0.58950  Biso   1.000  H
  C42      1.0000 0.73670  0.30270  0.54985  Biso   1.000  C
  N22      1.0000 0.69397  0.28252  0.64974  Biso   1.000  N
  O21      1.0000 0.79235  0.33520  0.45101  Biso   1.000  O
  C43      1.0000 0.75030  0.29930  0.47820  Biso   1.000  C
  C44      1.0000 0.68970  0.26720  0.58530  Biso   1.000  C
  H22      1.0000 0.65960  0.23710  0.56700  Biso   1.000  H
  O22      1.0000 0.71668  0.25683  0.44504  Biso   1.000  O
  Zn12     1.0000 0.22947  0.85430  0.75119  Biso   1.000  Zn
  N23      1.0000 0.25682  0.82895  0.84264  Biso   1.000  N
  C45      1.0000 0.23110  0.84060  0.90210  Biso   1.000  C
  H23      1.0000 0.19640  0.87010  0.91050  Biso   1.000  H
  C46      1.0000 0.26330  0.80270  0.95015  Biso   1.000  C
  N24      1.0000 0.30603  0.78252  0.85026  Biso   1.000  N
  O23      1.0000 0.20765  0.83520  0.04899  Biso   1.000  O
  C47      1.0000 0.24970  0.79930  0.02180  Biso   1.000  C
  C48      1.0000 0.31030  0.76720  0.91470  Biso   1.000  C
  H24      1.0000 0.34040  0.73710  0.93300  Biso   1.000  H
  O24      1.0000 0.28332  0.75683  0.05496  Biso   1.000  O
  Zn13     1.0000 0.74881  0.72947  0.85430  Biso   1.000  Zn
  N25      1.0000 0.65736  0.75682  0.82895  Biso   1.000  N
  C49      1.0000 0.59790  0.73110  0.84060  Biso   1.000  C
  H25      1.0000 0.58950  0.69640  0.87010  Biso   1.000  H
  C50      1.0000 0.54985  0.76330  0.80270  Biso   1.000  C
  N26      1.0000 0.64974  0.80603  0.78252  Biso   1.000  N
  O25      1.0000 0.45101  0.70765  0.83520  Biso   1.000  O
  C51      1.0000 0.47820  0.74970  0.79930  Biso   1.000  C
  C52      1.0000 0.58530  0.81030  0.76720  Biso   1.000  C
  H26      1.0000 0.56700  0.84040  0.73710  Biso   1.000  H
  O26      1.0000 0.44504  0.78332  0.75683  Biso   1.000  O
  Zn14     1.0000 0.75119  0.27053  0.35430  Biso   1.000  Zn
  N27      1.0000 0.84264  0.24318  0.32895  Biso   1.000  N
  C53      1.0000 0.90210  0.26890  0.34060  Biso   1.000  C
  H27      1.0000 0.91050  0.30360  0.37010  Biso   1.000  H
  C54      1.0000 0.95015  0.23670  0.30270  Biso   1.000  C
  N28      1.0000 0.85026  0.19397  0.28252  Biso   1.000  N
  O27      1.0000 0.04899  0.29235  0.33520  Biso   1.000  O
  C55      1.0000 0.02180  0.25030  0.29930  Biso   1.000  C
  C56      1.0000 0.91470  0.18970  0.26720  Biso   1.000  C
  H28      1.0000 0.93300  0.15960  0.23710  Biso   1.000  H
  O28      1.0000 0.05496  0.21668  0.25683  Biso   1.000  O
  Zn15     1.0000 0.25119  0.22947  0.64570  Biso   1.000  Zn
  N29      1.0000 0.34264  0.25682  0.67105  Biso   1.000  N
  C57      1.0000 0.40210  0.23110  0.65940  Biso   1.000  C
  H29      1.0000 0.41050  0.19640  0.62990  Biso   1.000  H
  C58      1.0000 0.45015  0.26330  0.69730  Biso   1.000  C
  N30      1.0000 0.35026  0.30603  0.71748  Biso   1.000  N
  O29      1.0000 0.54899  0.20765  0.66480  Biso   1.000  O
  C59      1.0000 0.52180  0.24970  0.70070  Biso   1.000  C
  C60      1.0000 0.41470  0.31030  0.73280  Biso   1.000  C
  H30      1.0000 0.43300  0.34040  0.76290  Biso   1.000  H
  O30      1.0000 0.55496  0.28332  0.74317  Biso   1.000  O
  Zn16     1.0000 0.24881  0.77053  0.14570  Biso   1.000  Zn
  N31      1.0000 0.15736  0.74318  0.17105  Biso   1.000  N
  C61      1.0000 0.09790  0.76890  0.15940  Biso   1.000  C
  H31      1.0000 0.08950  0.80360  0.12990  Biso   1.000  H
  C62      1.0000 0.04985  0.73670  0.19730  Biso   1.000  C
  N32      1.0000 0.14974  0.69397  0.21748  Biso   1.000  N
  O31      1.0000 0.95101  0.79235  0.16480  Biso   1.000  O
  C63      1.0000 0.97820  0.75030  0.20070  Biso   1.000  C
  C64      1.0000 0.08530  0.68970  0.23280  Biso   1.000  C
  H32      1.0000 0.06700  0.65960  0.26290  Biso   1.000  H
  O32      1.0000 0.94504  0.71668  0.24317  Biso   1.000  O
  Zn17     1.0000 0.85430  0.74881  0.72947  Biso   1.000  Zn
  N33      1.0000 0.82895  0.65736  0.75682  Biso   1.000  N
  C65      1.0000 0.84060  0.59790  0.73110  Biso   1.000  C
  H33      1.0000 0.87010  0.58950  0.69640  Biso   1.000  H
  C66      1.0000 0.80270  0.54985  0.76330  Biso   1.000  C
  N34      1.0000 0.78252  0.64974  0.80603  Biso   1.000  N
  O33      1.0000 0.83520  0.45101  0.70765  Biso   1.000  O
  C67      1.0000 0.79930  0.47820  0.74970  Biso   1.000  C
  C68      1.0000 0.76720  0.58530  0.81030  Biso   1.000  C
  H34      1.0000 0.73710  0.56700  0.84040  Biso   1.000  H
  O34      1.0000 0.75683  0.44504  0.78332  Biso   1.000  O
  Zn18     1.0000 0.35430  0.75119  0.27053  Biso   1.000  Zn
  N35      1.0000 0.32895  0.84264  0.24318  Biso   1.000  N
  C69      1.0000 0.34060  0.90210  0.26890  Biso   1.000  C
  H35      1.0000 0.37010  0.91050  0.30360  Biso   1.000  H
  C70      1.0000 0.30270  0.95015  0.23670  Biso   1.000  C
  N36      1.0000 0.28252  0.85026  0.19397  Biso   1.000  N
  O35      1.0000 0.33520  0.04899  0.29235  Biso   1.000  O
  C71      1.0000 0.29930  0.02180  0.25030  Biso   1.000  C
  C72      1.0000 0.26720  0.91470  0.18970  Biso   1.000  C
  H36      1.0000 0.23710  0.93300  0.15960  Biso   1.000  H
  O36      1.0000 0.25683  0.05496  0.21668  Biso   1.000  O
  Zn19     1.0000 0.64570  0.25119  0.22947  Biso   1.000  Zn
  N37      1.0000 0.67105  0.34264  0.25682  Biso   1.000  N
  C73      1.0000 0.65940  0.40210  0.23110  Biso   1.000  C
  H37      1.0000 0.62990  0.41050  0.19640  Biso   1.000  H
  C74      1.0000 0.69730  0.45015  0.26330  Biso   1.000  C
  N38      1.0000 0.71748  0.35026  0.30603  Biso   1.000  N
  O37      1.0000 0.66480  0.54899  0.20765  Biso   1.000  O
  C75      1.0000 0.70070  0.52180  0.24970  Biso   1.000  C
  C76      1.0000 0.73280  0.41470  0.31030  Biso   1.000  C
  H38      1.0000 0.76290  0.43300  0.34040  Biso   1.000  H
  O38      1.0000 0.74317  0.55496  0.28332  Biso   1.000  O
  Zn20     1.0000 0.14570  0.24881  0.77053  Biso   1.000  Zn
  N39      1.0000 0.17105  0.15736  0.74318  Biso   1.000  N
  C77      1.0000 0.15940  0.09790  0.76890  Biso   1.000  C
  H39      1.0000 0.12990  0.08950  0.80360  Biso   1.000  H
  C78      1.0000 0.19730  0.04985  0.73670  Biso   1.000  C
  N40      1.0000 0.21748  0.14974  0.69397  Biso   1.000  N
  O39      1.0000 0.16480  0.95101  0.79235  Biso   1.000  O
  C79      1.0000 0.20070  0.97820  0.75030  Biso   1.000  C
  C80      1.0000 0.23280  0.08530  0.68970  Biso   1.000  C
  H40      1.0000 0.26290  0.06700  0.65960  Biso   1.000  H
  O40      1.0000 0.24317  0.94504  0.71668  Biso   1.000  O
  Zn21     1.0000 0.72947  0.85430  0.74881  Biso   1.000  Zn
  N41      1.0000 0.75682  0.82895  0.65736  Biso   1.000  N
  C81      1.0000 0.73110  0.84060  0.59790  Biso   1.000  C
  H41      1.0000 0.69640  0.87010  0.58950  Biso   1.000  H
  C82      1.0000 0.76330  0.80270  0.54985  Biso   1.000  C
  N42      1.0000 0.80603  0.78252  0.64974  Biso   1.000  N
  O41      1.0000 0.70765  0.83520  0.45101  Biso   1.000  O
  C83      1.0000 0.74970  0.79930  0.47820  Biso   1.000  C
  C84      1.0000 0.81030  0.76720  0.58530  Biso   1.000  C
  H42      1.0000 0.84040  0.73710  0.56700  Biso   1.000  H
  O42      1.0000 0.78332  0.75683  0.44504  Biso   1.000  O
  Zn22     1.0000 0.27053  0.35430  0.75119  Biso   1.000  Zn
  N43      1.0000 0.24318  0.32895  0.84264  Biso   1.000  N
  C85      1.0000 0.26890  0.34060  0.90210  Biso   1.000  C
  H43      1.0000 0.30360  0.37010  0.91050  Biso   1.000  H
  C86      1.0000 0.23670  0.30270  0.95015  Biso   1.000  C
  N44      1.0000 0.19397  0.28252  0.85026  Biso   1.000  N
  O43      1.0000 0.29235  0.33520  0.04899  Biso   1.000  O
  C87      1.0000 0.25030  0.29930  0.02180  Biso   1.000  C
  C88      1.0000 0.18970  0.26720  0.91470  Biso   1.000  C
  H44      1.0000 0.15960  0.23710  0.93300  Biso   1.000  H
  O44      1.0000 0.21668  0.25683  0.05496  Biso   1.000  O
  Zn23     1.0000 0.22947  0.64570  0.25119  Biso   1.000  Zn
  N45      1.0000 0.25682  0.67105  0.34264  Biso   1.000  N
  C89      1.0000 0.23110  0.65940  0.40210  Biso   1.000  C
  H45      1.0000 0.19640  0.62990  0.41050  Biso   1.000  H
  C90      1.0000 0.26330  0.69730  0.45015  Biso   1.000  C
  N46      1.0000 0.30603  0.71748  0.35026  Biso   1.000  N
  O45      1.0000 0.20765  0.66480  0.54899  Biso   1.000  O
  C91      1.0000 0.24970  0.70070  0.52180  Biso   1.000  C
  C92      1.0000 0.31030  0.73280  0.41470  Biso   1.000  C
  H46      1.0000 0.34040  0.76290  0.43300  Biso   1.000  H
  O46      1.0000 0.28332  0.74317  0.55496  Biso   1.000  O
  Zn24     1.0000 0.77053  0.14570  0.24881  Biso   1.000  Zn
  N47      1.0000 0.74318  0.17105  0.15736  Biso   1.000  N
  C93      1.0000 0.76890  0.15940  0.09790  Biso   1.000  C
  H47      1.0000 0.80360  0.12990  0.08950  Biso   1.000  H
  C94      1.0000 0.73670  0.19730  0.04985  Biso   1.000  C
  N48      1.0000 0.69397  0.21748  0.14974  Biso   1.000  N
  O47      1.0000 0.79235  0.16480  0.95101  Biso   1.000  O
  C95      1.0000 0.75030  0.20070  0.97820  Biso   1.000  C
  C96      1.0000 0.68970  0.23280  0.08530  Biso   1.000  C
  H48      1.0000 0.65960  0.26290  0.06700  Biso   1.000  H
  O48      1.0000 0.71668  0.24317  0.94504  Biso   1.000  O
  O49      1.0000 0.20120  0.20120  0.20120  Biso   1.000  O
  O50      1.0000 0.29880  0.79880  0.70120  Biso   1.000  O
  O51      1.0000 0.79880  0.70120  0.29880  Biso   1.000  O
  O52      1.0000 0.70120  0.29880  0.79880  Biso   1.000  O
  O53      1.0000 0.79880  0.79880  0.79880  Biso   1.000  O
  O54      1.0000 0.70120  0.20120  0.29880  Biso   1.000  O
  O55      1.0000 0.20120  0.29880  0.70120  Biso   1.000  O
  O56      1.0000 0.29880  0.70120  0.20120  Biso   1.000  O
