data_YATTUK_clean
_audit_creation_date              2014-07-02
_audit_creation_method            'Materials Studio'
_symmetry_space_group_name_H-M    'P1'
_symmetry_Int_Tables_number       1
_symmetry_cell_setting            triclinic
loop_
_symmetry_equiv_pos_as_xyz
  x,y,z
_cell_length_a                    10.8924
_cell_length_b                    10.9631
_cell_length_c                    16.7740
_cell_angle_alpha                 90.0000
_cell_angle_beta                  90.0000
_cell_angle_gamma                 102.2540
loop_
_atom_site_label
_atom_site_type_symbol
_atom_site_fract_x
_atom_site_fract_y
_atom_site_fract_z
_atom_site_U_iso_or_equiv
_atom_site_adp_type
_atom_site_occupancy
Tb1    Tb    0.34901   0.08321   0.88764   0.01267  Uiso   1.00
Tb2    Tb    0.15099   0.41679   0.38764   0.01267  Uiso   1.00
Tb3    Tb    0.65099   0.91679   0.11237   0.01267  Uiso   1.00
Tb4    Tb    0.84901   0.58321   0.61236   0.01267  Uiso   1.00
H1     H     0.17730   0.75720   0.68060   0.01267  Uiso   1.00
H2     H     0.39350   0.57020   0.55770   0.01267  Uiso   1.00
H3     H     0.53930   0.79130   0.73900   0.01267  Uiso   1.00
H4     H     0.32270   0.74280   0.18060   0.01267  Uiso   1.00
H5     H     0.10650   0.92980   0.05770   0.01267  Uiso   1.00
H6     H     0.96070   0.70870   0.23900   0.01267  Uiso   1.00
H7     H     0.82270   0.24280   0.31940   0.01267  Uiso   1.00
H8     H     0.60650   0.42980   0.44230   0.01267  Uiso   1.00
H9     H     0.46070   0.20870   0.26100   0.01267  Uiso   1.00
H10    H     0.67730   0.25720   0.81940   0.01267  Uiso   1.00
H11    H     0.89350   0.07020   0.94230   0.01267  Uiso   1.00
H12    H     0.03930   0.29130   0.76100   0.01267  Uiso   1.00
C1     C     0.34300   0.87860   0.78800   0.01267  Uiso   1.00
C2     C     0.35480   0.78780   0.72160   0.01267  Uiso   1.00
C3     C     0.25490   0.73680   0.67210   0.01267  Uiso   1.00
C4     C     0.26750   0.65620   0.61040   0.01267  Uiso   1.00
C5     C     0.38460   0.62540   0.59830   0.01267  Uiso   1.00
C6     C     0.48880   0.67590   0.64610   0.01267  Uiso   1.00
C7     C     0.47130   0.75660   0.70680   0.01267  Uiso   1.00
C8     C     0.15850   0.60470   0.55460   0.01267  Uiso   1.00
C9     C     0.61250   0.64260   0.63480   0.01267  Uiso   1.00
C10    C     0.15700   0.62140   0.28800   0.01267  Uiso   1.00
C11    C     0.14520   0.71220   0.22160   0.01267  Uiso   1.00
C12    C     0.24510   0.76320   0.17210   0.01267  Uiso   1.00
C13    C     0.23250   0.84380   0.11040   0.01267  Uiso   1.00
C14    C     0.11540   0.87460   0.09830   0.01267  Uiso   1.00
C15    C     0.01120   0.82410   0.14610   0.01267  Uiso   1.00
C16    C     0.02870   0.74340   0.20680   0.01267  Uiso   1.00
C17    C     0.34150   0.89530   0.05460   0.01267  Uiso   1.00
C18    C     0.88750   0.85740   0.13480   0.01267  Uiso   1.00
C19    C     0.65700   0.12140   0.21200   0.01267  Uiso   1.00
C20    C     0.64520   0.21220   0.27840   0.01267  Uiso   1.00
C21    C     0.74510   0.26320   0.32790   0.01267  Uiso   1.00
C22    C     0.73250   0.34380   0.38960   0.01267  Uiso   1.00
C23    C     0.61540   0.37460   0.40170   0.01267  Uiso   1.00
C24    C     0.51120   0.32410   0.35390   0.01267  Uiso   1.00
C25    C     0.52870   0.24340   0.29320   0.01267  Uiso   1.00
C26    C     0.84150   0.39530   0.44540   0.01267  Uiso   1.00
C27    C     0.38750   0.35740   0.36520   0.01267  Uiso   1.00
C28    C     0.84300   0.37860   0.71200   0.01267  Uiso   1.00
C29    C     0.85480   0.28780   0.77840   0.01267  Uiso   1.00
C30    C     0.75490   0.23680   0.82790   0.01267  Uiso   1.00
C31    C     0.76750   0.15620   0.88960   0.01267  Uiso   1.00
C32    C     0.88460   0.12540   0.90170   0.01267  Uiso   1.00
C33    C     0.98880   0.17590   0.85390   0.01267  Uiso   1.00
C34    C     0.97130   0.25660   0.79320   0.01267  Uiso   1.00
C35    C     0.65850   0.10470   0.94540   0.01267  Uiso   1.00
C36    C     0.11250   0.14260   0.86520   0.01267  Uiso   1.00
O1     O     0.24380   0.91730   0.79590   0.01267  Uiso   1.00
O2     O     0.43680   0.91900   0.83100   0.01267  Uiso   1.00
O3     O     0.69790   0.67980   0.68440   0.01267  Uiso   1.00
O4     O     0.62970   0.57760   0.57580   0.01267  Uiso   1.00
O5     O     0.18180   0.54000   0.49780   0.01267  Uiso   1.00
O6     O     0.05720   0.63500   0.56810   0.01267  Uiso   1.00
O7     O     0.25620   0.58270   0.29590   0.01267  Uiso   1.00
O8     O     0.06320   0.58100   0.33100   0.01267  Uiso   1.00
O9     O     0.80210   0.82020   0.18440   0.01267  Uiso   1.00
O10    O     0.87030   0.92240   0.07580   0.01267  Uiso   1.00
O11    O     0.31820   0.96000   0.99780   0.01267  Uiso   1.00
O12    O     0.44280   0.86500   0.06810   0.01267  Uiso   1.00
O13    O     0.75620   0.08270   0.20410   0.01267  Uiso   1.00
O14    O     0.56320   0.08100   0.16900   0.01267  Uiso   1.00
O15    O     0.30210   0.32020   0.31560   0.01267  Uiso   1.00
O16    O     0.37030   0.42240   0.42420   0.01267  Uiso   1.00
O17    O     0.81820   0.46000   0.50220   0.01267  Uiso   1.00
O18    O     0.94280   0.36500   0.43190   0.01267  Uiso   1.00
O19    O     0.74380   0.41730   0.70410   0.01267  Uiso   1.00
O20    O     0.93680   0.41900   0.66900   0.01267  Uiso   1.00
O21    O     0.19790   0.17980   0.81560   0.01267  Uiso   1.00
O22    O     0.12970   0.07760   0.92420   0.01267  Uiso   1.00
O23    O     0.68180   0.04000   0.00220   0.01267  Uiso   1.00
O24    O     0.55720   0.13500   0.93190   0.01267  Uiso   1.00
