data_image0
_cell_length_a       15.528
_cell_length_b       15.999
_cell_length_c       13.519
_cell_angle_alpha    90
_cell_angle_beta     112.643
_cell_angle_gamma    90

_symmetry_space_group_name_H-M    "P 1"
_symmetry_int_tables_number       1

loop_
  _symmetry_equiv_pos_as_xyz
  'x, y, z'

loop_
  _atom_site_label
  _atom_site_occupancy
  _atom_site_fract_x
  _atom_site_fract_y
  _atom_site_fract_z
  _atom_site_thermal_displace_type
  _atom_site_B_iso_or_equiv
  _atom_site_type_symbol
  Nd1      1.0000 0.42680  0.04172  0.59229  Biso   1.000  Nd
  O1       1.0000 0.41410  0.01050  0.76430  Biso   1.000  O
  O2       1.0000 0.28390  0.99050  0.57070  Biso   1.000  O
  O3       1.0000 0.44350  0.88760  0.59220  Biso   1.000  O
  O4       1.0000 0.38910  0.01040  0.40760  Biso   1.000  O
  O5       1.0000 0.49960  0.15340  0.52790  Biso   1.000  O
  C1       1.0000 0.35750  0.99120  0.80940  Biso   1.000  C
  C2       1.0000 0.22880  0.97440  0.62360  Biso   1.000  C
  C3       1.0000 0.46600  0.83360  0.54340  Biso   1.000  C
  C4       1.0000 0.25970  0.98170  0.73440  Biso   1.000  C
  C5       1.0000 0.13540  0.95750  0.56300  Biso   1.000  C
  C6       1.0000 0.44910  0.74470  0.56060  Biso   1.000  C
  C7       1.0000 0.19710  0.97210  0.78450  Biso   1.000  C
  H1       1.0000 0.11480  0.95270  0.48890  Biso   1.000  H
  C8       1.0000 0.07290  0.94790  0.61310  Biso   1.000  C
  C9       1.0000 0.48240  0.68000  0.51580  Biso   1.000  C
  C10      1.0000 0.40310  0.72870  0.63400  Biso   1.000  C
  C11      1.0000 0.10380  0.95520  0.72390  Biso   1.000  C
  H2       1.0000 0.21780  0.97700  0.85860  Biso   1.000  H
  H3       1.0000 0.01040  0.93660  0.57260  Biso   1.000  H
  H4       1.0000 0.51700  0.69150  0.47440  Biso   1.000  H
  C12      1.0000 0.46300  0.59760  0.53400  Biso   1.000  C
  C13      1.0000 0.38700  0.64410  0.65400  Biso   1.000  C
  O6       1.0000 0.37250  0.78490  0.67990  Biso   1.000  O
  N1       1.0000 0.04280  0.95340  0.78210  Biso   1.000  N
  C14      1.0000 0.41600  0.58030  0.60200  Biso   1.000  C
  N2       1.0000 0.50400  0.53670  0.48700  Biso   1.000  N
  H5       1.0000 0.35790  0.63110  0.70040  Biso   1.000  H
  H6       1.0000 0.40290  0.52500  0.61350  Biso   1.000  H
  Nd2      1.0000 0.57320  0.04172  0.90771  Biso   1.000  Nd
  O7       1.0000 0.58590  0.01050  0.73570  Biso   1.000  O
  O8       1.0000 0.71610  0.99050  0.92930  Biso   1.000  O
  O9       1.0000 0.55650  0.88760  0.90780  Biso   1.000  O
  O10      1.0000 0.61090  0.01040  0.09240  Biso   1.000  O
  O11      1.0000 0.50040  0.15340  0.97210  Biso   1.000  O
  C15      1.0000 0.64250  0.99120  0.69060  Biso   1.000  C
  C16      1.0000 0.77120  0.97440  0.87640  Biso   1.000  C
  C17      1.0000 0.53400  0.83360  0.95660  Biso   1.000  C
  C18      1.0000 0.74030  0.98170  0.76560  Biso   1.000  C
  C19      1.0000 0.86460  0.95750  0.93700  Biso   1.000  C
  C20      1.0000 0.55090  0.74470  0.93940  Biso   1.000  C
  C21      1.0000 0.80290  0.97210  0.71550  Biso   1.000  C
  H7       1.0000 0.88520  0.95270  0.01110  Biso   1.000  H
  C22      1.0000 0.92710  0.94790  0.88690  Biso   1.000  C
  C23      1.0000 0.51760  0.68000  0.98420  Biso   1.000  C
  C24      1.0000 0.59690  0.72870  0.86600  Biso   1.000  C
  C25      1.0000 0.89620  0.95520  0.77610  Biso   1.000  C
  H8       1.0000 0.78220  0.97700  0.64140  Biso   1.000  H
  H9       1.0000 0.98960  0.93660  0.92740  Biso   1.000  H
  H10      1.0000 0.48300  0.69150  0.02560  Biso   1.000  H
  C26      1.0000 0.53700  0.59760  0.96600  Biso   1.000  C
  C27      1.0000 0.61300  0.64410  0.84600  Biso   1.000  C
  O12      1.0000 0.62750  0.78490  0.82010  Biso   1.000  O
  N3       1.0000 0.95720  0.95340  0.71790  Biso   1.000  N
  C28      1.0000 0.58400  0.58030  0.89800  Biso   1.000  C
  N4       1.0000 0.49600  0.53670  0.01300  Biso   1.000  N
  H11      1.0000 0.64210  0.63110  0.79960  Biso   1.000  H
  H12      1.0000 0.59710  0.52500  0.88650  Biso   1.000  H
  Nd3      1.0000 0.57320  0.95828  0.40771  Biso   1.000  Nd
  O13      1.0000 0.58590  0.98950  0.23570  Biso   1.000  O
  O14      1.0000 0.71610  0.00950  0.42930  Biso   1.000  O
  O15      1.0000 0.55650  0.11240  0.40780  Biso   1.000  O
  O16      1.0000 0.61090  0.98960  0.59240  Biso   1.000  O
  O17      1.0000 0.50040  0.84660  0.47210  Biso   1.000  O
  C29      1.0000 0.64250  0.00880  0.19060  Biso   1.000  C
  C30      1.0000 0.77120  0.02560  0.37640  Biso   1.000  C
  C31      1.0000 0.53400  0.16640  0.45660  Biso   1.000  C
  C32      1.0000 0.74030  0.01830  0.26560  Biso   1.000  C
  C33      1.0000 0.86460  0.04250  0.43700  Biso   1.000  C
  C34      1.0000 0.55090  0.25530  0.43940  Biso   1.000  C
  C35      1.0000 0.80290  0.02790  0.21550  Biso   1.000  C
  H13      1.0000 0.88520  0.04730  0.51110  Biso   1.000  H
  C36      1.0000 0.92710  0.05210  0.38690  Biso   1.000  C
  C37      1.0000 0.51760  0.32000  0.48420  Biso   1.000  C
  C38      1.0000 0.59690  0.27130  0.36600  Biso   1.000  C
  C39      1.0000 0.89620  0.04480  0.27610  Biso   1.000  C
  H14      1.0000 0.78220  0.02300  0.14140  Biso   1.000  H
  H15      1.0000 0.98960  0.06340  0.42740  Biso   1.000  H
  H16      1.0000 0.48300  0.30850  0.52560  Biso   1.000  H
  C40      1.0000 0.53700  0.40240  0.46600  Biso   1.000  C
  C41      1.0000 0.61300  0.35590  0.34600  Biso   1.000  C
  O18      1.0000 0.62750  0.21510  0.32010  Biso   1.000  O
  N5       1.0000 0.95720  0.04660  0.21790  Biso   1.000  N
  C42      1.0000 0.58400  0.41970  0.39800  Biso   1.000  C
  N6       1.0000 0.49600  0.46330  0.51300  Biso   1.000  N
  H17      1.0000 0.64210  0.36890  0.29960  Biso   1.000  H
  H18      1.0000 0.59710  0.47500  0.38650  Biso   1.000  H
  Nd4      1.0000 0.42680  0.95828  0.09229  Biso   1.000  Nd
  O19      1.0000 0.41410  0.98950  0.26430  Biso   1.000  O
  O20      1.0000 0.28390  0.00950  0.07070  Biso   1.000  O
  O21      1.0000 0.44350  0.11240  0.09220  Biso   1.000  O
  O22      1.0000 0.38910  0.98960  0.90760  Biso   1.000  O
  O23      1.0000 0.49960  0.84660  0.02790  Biso   1.000  O
  C43      1.0000 0.35750  0.00880  0.30940  Biso   1.000  C
  C44      1.0000 0.22880  0.02560  0.12360  Biso   1.000  C
  C45      1.0000 0.46600  0.16640  0.04340  Biso   1.000  C
  C46      1.0000 0.25970  0.01830  0.23440  Biso   1.000  C
  C47      1.0000 0.13540  0.04250  0.06300  Biso   1.000  C
  C48      1.0000 0.44910  0.25530  0.06060  Biso   1.000  C
  C49      1.0000 0.19710  0.02790  0.28450  Biso   1.000  C
  H19      1.0000 0.11480  0.04730  0.98890  Biso   1.000  H
  C50      1.0000 0.07290  0.05210  0.11310  Biso   1.000  C
  C51      1.0000 0.48240  0.32000  0.01580  Biso   1.000  C
  C52      1.0000 0.40310  0.27130  0.13400  Biso   1.000  C
  C53      1.0000 0.10380  0.04480  0.22390  Biso   1.000  C
  H20      1.0000 0.21780  0.02300  0.35860  Biso   1.000  H
  H21      1.0000 0.01040  0.06340  0.07260  Biso   1.000  H
  H22      1.0000 0.51700  0.30850  0.97440  Biso   1.000  H
  C54      1.0000 0.46300  0.40240  0.03400  Biso   1.000  C
  C55      1.0000 0.38700  0.35590  0.15400  Biso   1.000  C
  O24      1.0000 0.37250  0.21510  0.17990  Biso   1.000  O
  N7       1.0000 0.04280  0.04660  0.28210  Biso   1.000  N
  C56      1.0000 0.41600  0.41970  0.10200  Biso   1.000  C
  N8       1.0000 0.50400  0.46330  0.98700  Biso   1.000  N
  H23      1.0000 0.35790  0.36890  0.20040  Biso   1.000  H
  H24      1.0000 0.40290  0.47500  0.11350  Biso   1.000  H
  O25      1.0000 0.50000  0.15320  0.75000  Biso   1.000  O
  O26      1.0000 0.50000  0.84680  0.25000  Biso   1.000  O
