data_image0
_cell_length_a       15.5354
_cell_length_b       15.8981
_cell_length_c       13.3111
_cell_angle_alpha    90
_cell_angle_beta     112.592
_cell_angle_gamma    90

_symmetry_space_group_name_H-M    "P 1"
_symmetry_int_tables_number       1

loop_
  _symmetry_equiv_pos_as_xyz
  'x, y, z'

loop_
  _atom_site_label
  _atom_site_occupancy
  _atom_site_fract_x
  _atom_site_fract_y
  _atom_site_fract_z
  _atom_site_thermal_displace_type
  _atom_site_B_iso_or_equiv
  _atom_site_type_symbol
  C1       1.0000 0.10500  0.04470  0.72500  Biso   1.000  C
  C2       1.0000 0.19680  0.02910  0.78520  Biso   1.000  C
  H1       1.0000 0.21630  0.02420  0.86030  Biso   1.000  H
  C3       1.0000 0.23070  0.02520  0.62100  Biso   1.000  C
  C4       1.0000 0.13730  0.04440  0.56290  Biso   1.000  C
  H2       1.0000 0.11660  0.05150  0.48790  Biso   1.000  H
  C5       1.0000 0.07520  0.05330  0.61130  Biso   1.000  C
  H3       1.0000 0.01300  0.06500  0.56940  Biso   1.000  H
  C6       1.0000 0.44860  0.25340  0.56760  Biso   1.000  C
  C7       1.0000 0.26360  0.02010  0.73720  Biso   1.000  C
  C8       1.0000 0.46870  0.40080  0.54060  Biso   1.000  C
  C9       1.0000 0.48230  0.31920  0.52220  Biso   1.000  C
  H4       1.0000 0.51480  0.30630  0.47840  Biso   1.000  H
  C10      1.0000 0.35940  0.00390  0.80630  Biso   1.000  C
  C11      1.0000 0.46650  0.16210  0.54280  Biso   1.000  C
  C12      1.0000 0.41710  0.41820  0.60200  Biso   1.000  C
  H5       1.0000 0.40490  0.47410  0.61250  Biso   1.000  H
  C13      1.0000 0.38300  0.35660  0.64840  Biso   1.000  C
  H6       1.0000 0.34810  0.37020  0.68930  Biso   1.000  H
  C14      1.0000 0.40190  0.27330  0.63290  Biso   1.000  C
  C15      1.0000 0.59500  0.66000  0.77300  Biso   1.000  C
  N1       1.0000 0.50870  0.46320  0.49240  Biso   1.000  N
  N2       1.0000 0.04250  0.04480  0.78110  Biso   1.000  N
  O1       1.0000 0.44520  0.10870  0.59500  Biso   1.000  O
  O2       1.0000 0.36860  0.21380  0.67860  Biso   1.000  O
  O3       1.0000 0.38700  0.01050  0.90910  Biso   1.000  O
  O4       1.0000 0.49980  0.15050  0.47150  Biso   1.000  O
  O5       1.0000 0.41830  0.98460  0.76590  Biso   1.000  O
  O6       1.0000 0.28500  0.01270  0.56840  Biso   1.000  O
  Sm1      1.0000 0.42709  0.95720  0.59258  Biso   1.000  Sm
  C16      1.0000 0.89500  0.04470  0.77500  Biso   1.000  C
  C17      1.0000 0.80320  0.02910  0.71480  Biso   1.000  C
  H7       1.0000 0.78370  0.02420  0.63970  Biso   1.000  H
  C18      1.0000 0.76930  0.02520  0.87900  Biso   1.000  C
  C19      1.0000 0.86270  0.04440  0.93710  Biso   1.000  C
  H8       1.0000 0.88340  0.05150  0.01210  Biso   1.000  H
  C20      1.0000 0.92480  0.05330  0.88870  Biso   1.000  C
  H9       1.0000 0.98700  0.06500  0.93060  Biso   1.000  H
  C21      1.0000 0.55140  0.25340  0.93240  Biso   1.000  C
  C22      1.0000 0.73640  0.02010  0.76280  Biso   1.000  C
  C23      1.0000 0.53130  0.40080  0.95940  Biso   1.000  C
  C24      1.0000 0.51770  0.31920  0.97780  Biso   1.000  C
  H10      1.0000 0.48520  0.30630  0.02160  Biso   1.000  H
  C25      1.0000 0.64060  0.00390  0.69370  Biso   1.000  C
  C26      1.0000 0.53350  0.16210  0.95720  Biso   1.000  C
  C27      1.0000 0.58290  0.41820  0.89800  Biso   1.000  C
  H11      1.0000 0.59510  0.47410  0.88750  Biso   1.000  H
  C28      1.0000 0.61700  0.35660  0.85160  Biso   1.000  C
  H12      1.0000 0.65190  0.37020  0.81070  Biso   1.000  H
  C29      1.0000 0.59810  0.27330  0.86710  Biso   1.000  C
  C30      1.0000 0.40500  0.66000  0.72700  Biso   1.000  C
  N3       1.0000 0.49130  0.46320  0.00760  Biso   1.000  N
  N4       1.0000 0.95750  0.04480  0.71890  Biso   1.000  N
  O7       1.0000 0.55480  0.10870  0.90500  Biso   1.000  O
  O8       1.0000 0.63140  0.21380  0.82140  Biso   1.000  O
  O9       1.0000 0.61300  0.01050  0.59090  Biso   1.000  O
  O10      1.0000 0.50020  0.15050  0.02850  Biso   1.000  O
  O11      1.0000 0.58170  0.98460  0.73410  Biso   1.000  O
  O12      1.0000 0.71500  0.01270  0.93160  Biso   1.000  O
  Sm2      1.0000 0.57291  0.95720  0.90742  Biso   1.000  Sm
  C31      1.0000 0.89500  0.95530  0.27500  Biso   1.000  C
  C32      1.0000 0.80320  0.97090  0.21480  Biso   1.000  C
  H13      1.0000 0.78370  0.97580  0.13970  Biso   1.000  H
  C33      1.0000 0.76930  0.97480  0.37900  Biso   1.000  C
  C34      1.0000 0.86270  0.95560  0.43710  Biso   1.000  C
  H14      1.0000 0.88340  0.94850  0.51210  Biso   1.000  H
  C35      1.0000 0.92480  0.94670  0.38870  Biso   1.000  C
  H15      1.0000 0.98700  0.93500  0.43060  Biso   1.000  H
  C36      1.0000 0.55140  0.74660  0.43240  Biso   1.000  C
  C37      1.0000 0.73640  0.97990  0.26280  Biso   1.000  C
  C38      1.0000 0.53130  0.59920  0.45940  Biso   1.000  C
  C39      1.0000 0.51770  0.68080  0.47780  Biso   1.000  C
  H16      1.0000 0.48520  0.69370  0.52160  Biso   1.000  H
  C40      1.0000 0.64060  0.99610  0.19370  Biso   1.000  C
  C41      1.0000 0.53350  0.83790  0.45720  Biso   1.000  C
  C42      1.0000 0.58290  0.58180  0.39800  Biso   1.000  C
  H17      1.0000 0.59510  0.52590  0.38750  Biso   1.000  H
  C43      1.0000 0.61700  0.64340  0.35160  Biso   1.000  C
  H18      1.0000 0.65190  0.62980  0.31070  Biso   1.000  H
  C44      1.0000 0.59810  0.72670  0.36710  Biso   1.000  C
  C45      1.0000 0.40500  0.34000  0.22700  Biso   1.000  C
  N5       1.0000 0.49130  0.53680  0.50760  Biso   1.000  N
  N6       1.0000 0.95750  0.95520  0.21890  Biso   1.000  N
  O13      1.0000 0.55480  0.89130  0.40500  Biso   1.000  O
  O14      1.0000 0.63140  0.78620  0.32140  Biso   1.000  O
  O15      1.0000 0.61300  0.98950  0.09090  Biso   1.000  O
  O16      1.0000 0.50020  0.84950  0.52850  Biso   1.000  O
  O17      1.0000 0.58170  0.01540  0.23410  Biso   1.000  O
  O18      1.0000 0.71500  0.98730  0.43160  Biso   1.000  O
  Sm3      1.0000 0.57291  0.04280  0.40742  Biso   1.000  Sm
  C46      1.0000 0.10500  0.95530  0.22500  Biso   1.000  C
  C47      1.0000 0.19680  0.97090  0.28520  Biso   1.000  C
  H19      1.0000 0.21630  0.97580  0.36030  Biso   1.000  H
  C48      1.0000 0.23070  0.97480  0.12100  Biso   1.000  C
  C49      1.0000 0.13730  0.95560  0.06290  Biso   1.000  C
  H20      1.0000 0.11660  0.94850  0.98790  Biso   1.000  H
  C50      1.0000 0.07520  0.94670  0.11130  Biso   1.000  C
  H21      1.0000 0.01300  0.93500  0.06940  Biso   1.000  H
  C51      1.0000 0.44860  0.74660  0.06760  Biso   1.000  C
  C52      1.0000 0.26360  0.97990  0.23720  Biso   1.000  C
  C53      1.0000 0.46870  0.59920  0.04060  Biso   1.000  C
  C54      1.0000 0.48230  0.68080  0.02220  Biso   1.000  C
  H22      1.0000 0.51480  0.69370  0.97840  Biso   1.000  H
  C55      1.0000 0.35940  0.99610  0.30630  Biso   1.000  C
  C56      1.0000 0.46650  0.83790  0.04280  Biso   1.000  C
  C57      1.0000 0.41710  0.58180  0.10200  Biso   1.000  C
  H23      1.0000 0.40490  0.52590  0.11250  Biso   1.000  H
  C58      1.0000 0.38300  0.64340  0.14840  Biso   1.000  C
  H24      1.0000 0.34810  0.62980  0.18930  Biso   1.000  H
  C59      1.0000 0.40190  0.72670  0.13290  Biso   1.000  C
  C60      1.0000 0.59500  0.34000  0.27300  Biso   1.000  C
  N7       1.0000 0.50870  0.53680  0.99240  Biso   1.000  N
  N8       1.0000 0.04250  0.95520  0.28110  Biso   1.000  N
  O19      1.0000 0.44520  0.89130  0.09500  Biso   1.000  O
  O20      1.0000 0.36860  0.78620  0.17860  Biso   1.000  O
  O21      1.0000 0.38700  0.98950  0.40910  Biso   1.000  O
  O22      1.0000 0.49980  0.84950  0.97150  Biso   1.000  O
  O23      1.0000 0.41830  0.01540  0.26590  Biso   1.000  O
  O24      1.0000 0.28500  0.98730  0.06840  Biso   1.000  O
  Sm4      1.0000 0.42709  0.04280  0.09258  Biso   1.000  Sm
  C61      1.0000 0.50000  0.78400  0.75000  Biso   1.000  C
  N9       1.0000 0.50000  0.69200  0.75000  Biso   1.000  N
  O25      1.0000 0.50000  0.84420  0.75000  Biso   1.000  O
  C62      1.0000 0.50000  0.21600  0.25000  Biso   1.000  C
  N10      1.0000 0.50000  0.30800  0.25000  Biso   1.000  N
  O26      1.0000 0.50000  0.15580  0.25000  Biso   1.000  O
