data_image0
_cell_length_a       15.516
_cell_length_b       15.899
_cell_length_c       13.27
_cell_angle_alpha    90
_cell_angle_beta     112.469
_cell_angle_gamma    90

_symmetry_space_group_name_H-M    "P 1"
_symmetry_int_tables_number       1

loop_
  _symmetry_equiv_pos_as_xyz
  'x, y, z'

loop_
  _atom_site_label
  _atom_site_occupancy
  _atom_site_fract_x
  _atom_site_fract_y
  _atom_site_fract_z
  _atom_site_thermal_displace_type
  _atom_site_B_iso_or_equiv
  _atom_site_type_symbol
  Eu1      1.0000 0.57264  0.54262  0.40634  Biso   1.000  Eu
  O1       1.0000 0.71450  0.48710  0.43060  Biso   1.000  O
  O2       1.0000 0.55260  0.39300  0.40430  Biso   1.000  O
  O3       1.0000 0.58080  0.51360  0.23340  Biso   1.000  O
  O4       1.0000 0.61320  0.48880  0.09040  Biso   1.000  O
  O5       1.0000 0.50010  0.34910  0.52990  Biso   1.000  O
  C1       1.0000 0.76750  0.47550  0.37870  Biso   1.000  C
  C2       1.0000 0.53280  0.33640  0.45850  Biso   1.000  C
  C3       1.0000 0.64080  0.49390  0.19210  Biso   1.000  C
  C4       1.0000 0.86310  0.45730  0.43780  Biso   1.000  C
  C5       1.0000 0.73820  0.47890  0.26240  Biso   1.000  C
  C6       1.0000 0.54850  0.24620  0.43410  Biso   1.000  C
  C7       1.0000 0.92490  0.44750  0.38900  Biso   1.000  C
  H1       1.0000 0.88430  0.45180  0.51320  Biso   1.000  H
  C8       1.0000 0.80250  0.46910  0.21520  Biso   1.000  C
  C9       1.0000 0.51590  0.18130  0.47890  Biso   1.000  C
  C10      1.0000 0.59570  0.22670  0.36460  Biso   1.000  C
  C11      1.0000 0.59100  0.83700  0.28400  Biso   1.000  C
  H2       1.0000 0.98680  0.43490  0.43110  Biso   1.000  H
  C12      1.0000 0.89650  0.45600  0.27560  Biso   1.000  C
  H3       1.0000 0.78210  0.47150  0.13960  Biso   1.000  H
  H4       1.0000 0.48280  0.19350  0.52260  Biso   1.000  H
  C13      1.0000 0.53190  0.09800  0.45970  Biso   1.000  C
  C14      1.0000 0.61310  0.14430  0.35100  Biso   1.000  C
  O6       1.0000 0.62990  0.28650  0.32010  Biso   1.000  O
  H5       1.0000 0.60720  0.84530  0.22140  Biso   1.000  H
  H6       1.0000 0.63470  0.79980  0.33430  Biso   1.000  H
  H7       1.0000 0.59220  0.89060  0.31840  Biso   1.000  H
  N1       1.0000 0.95720  0.45450  0.21950  Biso   1.000  N
  C15      1.0000 0.58300  0.08180  0.39500  Biso   1.000  C
  N2       1.0000 0.49200  0.03760  0.50950  Biso   1.000  N
  H8       1.0000 0.64760  0.13150  0.30910  Biso   1.000  H
  H9       1.0000 0.59610  0.02660  0.38270  Biso   1.000  H
  H10      1.0000 0.55760  0.71990  0.25930  Biso   1.000  H
  Eu2      1.0000 0.42736  0.54262  0.09366  Biso   1.000  Eu
  O7       1.0000 0.28550  0.48710  0.06940  Biso   1.000  O
  O8       1.0000 0.44740  0.39300  0.09570  Biso   1.000  O
  O9       1.0000 0.41920  0.51360  0.26660  Biso   1.000  O
  O10      1.0000 0.38680  0.48880  0.40960  Biso   1.000  O
  O11      1.0000 0.49990  0.34910  0.97010  Biso   1.000  O
  C16      1.0000 0.23250  0.47550  0.12130  Biso   1.000  C
  C17      1.0000 0.46720  0.33640  0.04150  Biso   1.000  C
  C18      1.0000 0.35920  0.49390  0.30790  Biso   1.000  C
  C19      1.0000 0.13690  0.45730  0.06220  Biso   1.000  C
  C20      1.0000 0.26180  0.47890  0.23760  Biso   1.000  C
  C21      1.0000 0.45150  0.24620  0.06590  Biso   1.000  C
  C22      1.0000 0.07510  0.44750  0.11100  Biso   1.000  C
  H11      1.0000 0.11570  0.45180  0.98680  Biso   1.000  H
  C23      1.0000 0.19750  0.46910  0.28480  Biso   1.000  C
  C24      1.0000 0.48410  0.18130  0.02110  Biso   1.000  C
  C25      1.0000 0.40430  0.22670  0.13540  Biso   1.000  C
  C26      1.0000 0.40900  0.83700  0.21600  Biso   1.000  C
  H12      1.0000 0.01320  0.43490  0.06890  Biso   1.000  H
  C27      1.0000 0.10350  0.45600  0.22440  Biso   1.000  C
  H13      1.0000 0.21790  0.47150  0.36040  Biso   1.000  H
  H14      1.0000 0.51720  0.19350  0.97740  Biso   1.000  H
  C28      1.0000 0.46810  0.09800  0.04030  Biso   1.000  C
  C29      1.0000 0.38690  0.14430  0.14900  Biso   1.000  C
  O12      1.0000 0.37010  0.28650  0.17990  Biso   1.000  O
  H15      1.0000 0.39280  0.84530  0.27860  Biso   1.000  H
  H16      1.0000 0.36530  0.79980  0.16570  Biso   1.000  H
  H17      1.0000 0.40780  0.89060  0.18160  Biso   1.000  H
  N3       1.0000 0.04280  0.45450  0.28050  Biso   1.000  N
  C30      1.0000 0.41700  0.08180  0.10500  Biso   1.000  C
  N4       1.0000 0.50800  0.03760  0.99050  Biso   1.000  N
  H18      1.0000 0.35240  0.13150  0.19090  Biso   1.000  H
  H19      1.0000 0.40390  0.02660  0.11730  Biso   1.000  H
  H20      1.0000 0.44240  0.71990  0.24070  Biso   1.000  H
  Eu3      1.0000 0.42736  0.45738  0.59366  Biso   1.000  Eu
  O13      1.0000 0.28550  0.51290  0.56940  Biso   1.000  O
  O14      1.0000 0.44740  0.60700  0.59570  Biso   1.000  O
  O15      1.0000 0.41920  0.48640  0.76660  Biso   1.000  O
  O16      1.0000 0.38680  0.51120  0.90960  Biso   1.000  O
  O17      1.0000 0.49990  0.65090  0.47010  Biso   1.000  O
  C31      1.0000 0.23250  0.52450  0.62130  Biso   1.000  C
  C32      1.0000 0.46720  0.66360  0.54150  Biso   1.000  C
  C33      1.0000 0.35920  0.50610  0.80790  Biso   1.000  C
  C34      1.0000 0.13690  0.54270  0.56220  Biso   1.000  C
  C35      1.0000 0.26180  0.52110  0.73760  Biso   1.000  C
  C36      1.0000 0.45150  0.75380  0.56590  Biso   1.000  C
  C37      1.0000 0.07510  0.55250  0.61100  Biso   1.000  C
  H21      1.0000 0.11570  0.54820  0.48680  Biso   1.000  H
  C38      1.0000 0.19750  0.53090  0.78480  Biso   1.000  C
  C39      1.0000 0.48410  0.81870  0.52110  Biso   1.000  C
  C40      1.0000 0.40430  0.77330  0.63540  Biso   1.000  C
  C41      1.0000 0.40900  0.16300  0.71600  Biso   1.000  C
  H22      1.0000 0.01320  0.56510  0.56890  Biso   1.000  H
  C42      1.0000 0.10350  0.54400  0.72440  Biso   1.000  C
  H23      1.0000 0.21790  0.52850  0.86040  Biso   1.000  H
  H24      1.0000 0.51720  0.80650  0.47740  Biso   1.000  H
  C43      1.0000 0.46810  0.90200  0.54030  Biso   1.000  C
  C44      1.0000 0.38690  0.85570  0.64900  Biso   1.000  C
  O18      1.0000 0.37010  0.71350  0.67990  Biso   1.000  O
  H25      1.0000 0.39280  0.15470  0.77860  Biso   1.000  H
  H26      1.0000 0.36530  0.20020  0.66570  Biso   1.000  H
  H27      1.0000 0.40780  0.10940  0.68160  Biso   1.000  H
  N5       1.0000 0.04280  0.54550  0.78050  Biso   1.000  N
  C45      1.0000 0.41700  0.91820  0.60500  Biso   1.000  C
  N6       1.0000 0.50800  0.96240  0.49050  Biso   1.000  N
  H28      1.0000 0.35240  0.86850  0.69090  Biso   1.000  H
  H29      1.0000 0.40390  0.97340  0.61730  Biso   1.000  H
  H30      1.0000 0.44240  0.28010  0.74070  Biso   1.000  H
  Eu4      1.0000 0.57264  0.45738  0.90634  Biso   1.000  Eu
  O19      1.0000 0.71450  0.51290  0.93060  Biso   1.000  O
  O20      1.0000 0.55260  0.60700  0.90430  Biso   1.000  O
  O21      1.0000 0.58080  0.48640  0.73340  Biso   1.000  O
  O22      1.0000 0.61320  0.51120  0.59040  Biso   1.000  O
  O23      1.0000 0.50010  0.65090  0.02990  Biso   1.000  O
  C46      1.0000 0.76750  0.52450  0.87870  Biso   1.000  C
  C47      1.0000 0.53280  0.66360  0.95850  Biso   1.000  C
  C48      1.0000 0.64080  0.50610  0.69210  Biso   1.000  C
  C49      1.0000 0.86310  0.54270  0.93780  Biso   1.000  C
  C50      1.0000 0.73820  0.52110  0.76240  Biso   1.000  C
  C51      1.0000 0.54850  0.75380  0.93410  Biso   1.000  C
  C52      1.0000 0.92490  0.55250  0.88900  Biso   1.000  C
  H31      1.0000 0.88430  0.54820  0.01320  Biso   1.000  H
  C53      1.0000 0.80250  0.53090  0.71520  Biso   1.000  C
  C54      1.0000 0.51590  0.81870  0.97890  Biso   1.000  C
  C55      1.0000 0.59570  0.77330  0.86460  Biso   1.000  C
  C56      1.0000 0.59100  0.16300  0.78400  Biso   1.000  C
  H32      1.0000 0.98680  0.56510  0.93110  Biso   1.000  H
  C57      1.0000 0.89650  0.54400  0.77560  Biso   1.000  C
  H33      1.0000 0.78210  0.52850  0.63960  Biso   1.000  H
  H34      1.0000 0.48280  0.80650  0.02260  Biso   1.000  H
  C58      1.0000 0.53190  0.90200  0.95970  Biso   1.000  C
  C59      1.0000 0.61310  0.85570  0.85100  Biso   1.000  C
  O24      1.0000 0.62990  0.71350  0.82010  Biso   1.000  O
  H35      1.0000 0.60720  0.15470  0.72140  Biso   1.000  H
  H36      1.0000 0.63470  0.20020  0.83430  Biso   1.000  H
  H37      1.0000 0.59220  0.10940  0.81840  Biso   1.000  H
  N7       1.0000 0.95720  0.54550  0.71950  Biso   1.000  N
  C60      1.0000 0.58300  0.91820  0.89500  Biso   1.000  C
  N8       1.0000 0.49200  0.96240  0.00950  Biso   1.000  N
  H38      1.0000 0.64760  0.86850  0.80910  Biso   1.000  H
  H39      1.0000 0.59610  0.97340  0.88270  Biso   1.000  H
  H40      1.0000 0.55760  0.28010  0.75930  Biso   1.000  H
  O25      1.0000 0.50000  0.65330  0.25000  Biso   1.000  O
  C61      1.0000 0.50000  0.71700  0.25000  Biso   1.000  C
  N9       1.0000 0.50000  0.79900  0.25000  Biso   1.000  N
  O26      1.0000 0.50000  0.34670  0.75000  Biso   1.000  O
  C62      1.0000 0.50000  0.28300  0.75000  Biso   1.000  C
  N10      1.0000 0.50000  0.20100  0.75000  Biso   1.000  N
