data_image0
_cell_length_a       8.742
_cell_length_b       8.729
_cell_length_c       27.415
_cell_angle_alpha    90
_cell_angle_beta     102.193
_cell_angle_gamma    90

_symmetry_space_group_name_H-M    "P 1"
_symmetry_int_tables_number       1

loop_
  _symmetry_equiv_pos_as_xyz
  'x, y, z'

loop_
  _atom_site_label
  _atom_site_occupancy
  _atom_site_fract_x
  _atom_site_fract_y
  _atom_site_fract_z
  _atom_site_thermal_displace_type
  _atom_site_B_iso_or_equiv
  _atom_site_type_symbol
  Tb1      1.0000 0.50338  0.56274  0.76666  Biso   1.000  Tb
  O1       1.0000 0.66300  0.67870  0.84019  Biso   1.000  O
  O2       1.0000 0.57220  0.84190  0.78165  Biso   1.000  O
  C1       1.0000 0.65640  0.81420  0.82479  Biso   1.000  C
  C2       1.0000 0.74220  0.93590  0.85600  Biso   1.000  C
  O3       1.0000 0.49980  0.87000  0.67584  Biso   1.000  O
  O4       1.0000 0.71450  0.12460  0.79096  Biso   1.000  O
  O5       1.0000 0.39850  0.13960  0.80380  Biso   1.000  O
  C3       1.0000 0.81070  0.89940  0.90540  Biso   1.000  C
  C4       1.0000 0.76280  0.08440  0.83815  Biso   1.000  C
  C5       1.0000 0.44050  0.24930  0.83451  Biso   1.000  C
  H1       1.0000 0.79920  0.80060  0.91690  Biso   1.000  H
  C6       1.0000 0.89410  0.00420  0.93738  Biso   1.000  C
  C7       1.0000 0.84400  0.19090  0.87215  Biso   1.000  C
  C8       1.0000 0.41590  0.22750  0.88595  Biso   1.000  C
  C9       1.0000 0.90810  0.15350  0.92052  Biso   1.000  C
  N1       1.0000 0.96250  0.95040  0.98602  Biso   1.000  N
  H2       1.0000 0.85480  0.29060  0.86140  Biso   1.000  H
  C10      1.0000 0.34360  0.09660  0.89978  Biso   1.000  C
  C11      1.0000 0.46350  0.34050  0.92109  Biso   1.000  C
  H3       1.0000 0.96080  0.22730  0.94220  Biso   1.000  H
  C12      1.0000 0.32090  0.08180  0.94768  Biso   1.000  C
  O6       1.0000 0.29560  0.98220  0.86721  Biso   1.000  O
  C13      1.0000 0.43770  0.32600  0.96886  Biso   1.000  C
  H4       1.0000 0.51350  0.42740  0.91250  Biso   1.000  H
  C14      1.0000 0.36750  0.19470  0.98187  Biso   1.000  C
  H5       1.0000 0.27340  0.99410  0.95680  Biso   1.000  H
  H6       1.0000 0.32130  0.00360  0.84190  Biso   1.000  H
  N2       1.0000 0.47490  0.43860  0.00689  Biso   1.000  N
  H7       1.0000 0.35190  0.18340  0.01420  Biso   1.000  H
  Tb2      1.0000 0.49662  0.06274  0.73334  Biso   1.000  Tb
  O7       1.0000 0.33700  0.17870  0.65981  Biso   1.000  O
  O8       1.0000 0.42780  0.34190  0.71835  Biso   1.000  O
  C15      1.0000 0.34360  0.31420  0.67521  Biso   1.000  C
  C16      1.0000 0.25780  0.43590  0.64400  Biso   1.000  C
  O9       1.0000 0.50020  0.37000  0.82416  Biso   1.000  O
  O10      1.0000 0.28550  0.62460  0.70904  Biso   1.000  O
  O11      1.0000 0.60150  0.63960  0.69620  Biso   1.000  O
  C17      1.0000 0.18930  0.39940  0.59460  Biso   1.000  C
  C18      1.0000 0.23720  0.58440  0.66185  Biso   1.000  C
  C19      1.0000 0.55950  0.74930  0.66549  Biso   1.000  C
  H8       1.0000 0.20080  0.30060  0.58310  Biso   1.000  H
  C20      1.0000 0.10590  0.50420  0.56262  Biso   1.000  C
  C21      1.0000 0.15600  0.69090  0.62785  Biso   1.000  C
  C22      1.0000 0.58410  0.72750  0.61405  Biso   1.000  C
  C23      1.0000 0.09190  0.65350  0.57948  Biso   1.000  C
  N3       1.0000 0.03750  0.45040  0.51398  Biso   1.000  N
  H9       1.0000 0.14520  0.79060  0.63860  Biso   1.000  H
  C24      1.0000 0.65640  0.59660  0.60022  Biso   1.000  C
  C25      1.0000 0.53650  0.84050  0.57891  Biso   1.000  C
  H10      1.0000 0.03920  0.72730  0.55780  Biso   1.000  H
  C26      1.0000 0.67910  0.58180  0.55232  Biso   1.000  C
  O12      1.0000 0.70440  0.48220  0.63279  Biso   1.000  O
  C27      1.0000 0.56230  0.82600  0.53114  Biso   1.000  C
  H11      1.0000 0.48650  0.92740  0.58750  Biso   1.000  H
  C28      1.0000 0.63250  0.69470  0.51813  Biso   1.000  C
  H12      1.0000 0.72660  0.49410  0.54320  Biso   1.000  H
  H13      1.0000 0.67870  0.50360  0.65810  Biso   1.000  H
  N4       1.0000 0.52510  0.93860  0.49311  Biso   1.000  N
  H14      1.0000 0.64810  0.68340  0.48580  Biso   1.000  H
  Tb3      1.0000 0.49662  0.43726  0.23334  Biso   1.000  Tb
  O13      1.0000 0.33700  0.32130  0.15981  Biso   1.000  O
  O14      1.0000 0.42780  0.15810  0.21835  Biso   1.000  O
  C29      1.0000 0.34360  0.18580  0.17521  Biso   1.000  C
  C30      1.0000 0.25780  0.06410  0.14400  Biso   1.000  C
  O15      1.0000 0.50020  0.13000  0.32416  Biso   1.000  O
  O16      1.0000 0.28550  0.87540  0.20904  Biso   1.000  O
  O17      1.0000 0.60150  0.86040  0.19620  Biso   1.000  O
  C31      1.0000 0.18930  0.10060  0.09460  Biso   1.000  C
  C32      1.0000 0.23720  0.91560  0.16185  Biso   1.000  C
  C33      1.0000 0.55950  0.75070  0.16549  Biso   1.000  C
  H15      1.0000 0.20080  0.19940  0.08310  Biso   1.000  H
  C34      1.0000 0.10590  0.99580  0.06262  Biso   1.000  C
  C35      1.0000 0.15600  0.80910  0.12785  Biso   1.000  C
  C36      1.0000 0.58410  0.77250  0.11405  Biso   1.000  C
  C37      1.0000 0.09190  0.84650  0.07948  Biso   1.000  C
  N5       1.0000 0.03750  0.04960  0.01398  Biso   1.000  N
  H16      1.0000 0.14520  0.70940  0.13860  Biso   1.000  H
  C38      1.0000 0.65640  0.90340  0.10022  Biso   1.000  C
  C39      1.0000 0.53650  0.65950  0.07891  Biso   1.000  C
  H17      1.0000 0.03920  0.77270  0.05780  Biso   1.000  H
  C40      1.0000 0.67910  0.91820  0.05232  Biso   1.000  C
  O18      1.0000 0.70440  0.01780  0.13279  Biso   1.000  O
  C41      1.0000 0.56230  0.67400  0.03114  Biso   1.000  C
  H18      1.0000 0.48650  0.57260  0.08750  Biso   1.000  H
  C42      1.0000 0.63250  0.80530  0.01813  Biso   1.000  C
  H19      1.0000 0.72660  0.00590  0.04320  Biso   1.000  H
  H20      1.0000 0.67870  0.99640  0.15810  Biso   1.000  H
  N6       1.0000 0.52510  0.56140  0.99311  Biso   1.000  N
  H21      1.0000 0.64810  0.81660  0.98580  Biso   1.000  H
  Tb4      1.0000 0.50338  0.93726  0.26666  Biso   1.000  Tb
  O19      1.0000 0.66300  0.82130  0.34019  Biso   1.000  O
  O20      1.0000 0.57220  0.65810  0.28165  Biso   1.000  O
  C43      1.0000 0.65640  0.68580  0.32479  Biso   1.000  C
  C44      1.0000 0.74220  0.56410  0.35600  Biso   1.000  C
  O21      1.0000 0.49980  0.63000  0.17584  Biso   1.000  O
  O22      1.0000 0.71450  0.37540  0.29096  Biso   1.000  O
  O23      1.0000 0.39850  0.36040  0.30380  Biso   1.000  O
  C45      1.0000 0.81070  0.60060  0.40540  Biso   1.000  C
  C46      1.0000 0.76280  0.41560  0.33815  Biso   1.000  C
  C47      1.0000 0.44050  0.25070  0.33451  Biso   1.000  C
  H22      1.0000 0.79920  0.69940  0.41690  Biso   1.000  H
  C48      1.0000 0.89410  0.49580  0.43738  Biso   1.000  C
  C49      1.0000 0.84400  0.30910  0.37215  Biso   1.000  C
  C50      1.0000 0.41590  0.27250  0.38595  Biso   1.000  C
  C51      1.0000 0.90810  0.34650  0.42052  Biso   1.000  C
  N7       1.0000 0.96250  0.54960  0.48602  Biso   1.000  N
  H23      1.0000 0.85480  0.20940  0.36140  Biso   1.000  H
  C52      1.0000 0.34360  0.40340  0.39978  Biso   1.000  C
  C53      1.0000 0.46350  0.15950  0.42109  Biso   1.000  C
  H24      1.0000 0.96080  0.27270  0.44220  Biso   1.000  H
  C54      1.0000 0.32090  0.41820  0.44768  Biso   1.000  C
  O24      1.0000 0.29560  0.51780  0.36721  Biso   1.000  O
  C55      1.0000 0.43770  0.17400  0.46886  Biso   1.000  C
  H25      1.0000 0.51350  0.07260  0.41250  Biso   1.000  H
  C56      1.0000 0.36750  0.30530  0.48187  Biso   1.000  C
  H26      1.0000 0.27340  0.50590  0.45680  Biso   1.000  H
  H27      1.0000 0.32130  0.49640  0.34190  Biso   1.000  H
  N8       1.0000 0.47490  0.06140  0.50689  Biso   1.000  N
  H28      1.0000 0.35190  0.31660  0.51420  Biso   1.000  H
