data_image0
_cell_length_a       8.8304
_cell_length_b       8.8257
_cell_length_c       27.644
_cell_angle_alpha    90
_cell_angle_beta     102.142
_cell_angle_gamma    90

_symmetry_space_group_name_H-M    "P 1"
_symmetry_int_tables_number       1

loop_
  _symmetry_equiv_pos_as_xyz
  'x, y, z'

loop_
  _atom_site_label
  _atom_site_occupancy
  _atom_site_fract_x
  _atom_site_fract_y
  _atom_site_fract_z
  _atom_site_thermal_displace_type
  _atom_site_B_iso_or_equiv
  _atom_site_type_symbol
  C1       1.0000 0.55930  0.75310  0.16440  Biso   1.000  C
  C2       1.0000 0.58410  0.77360  0.11300  Biso   1.000  C
  C3       1.0000 0.65470  0.90330  0.09900  Biso   1.000  C
  C4       1.0000 0.67670  0.91550  0.05100  Biso   1.000  C
  H1       1.0000 0.72370  0.00180  0.04160  Biso   1.000  H
  C5       1.0000 0.63080  0.80360  0.01740  Biso   1.000  C
  H2       1.0000 0.64530  0.81500  0.98520  Biso   1.000  H
  C6       1.0000 0.56240  0.67220  0.03060  Biso   1.000  C
  C7       1.0000 0.53730  0.65950  0.07860  Biso   1.000  C
  H3       1.0000 0.48870  0.57360  0.08750  Biso   1.000  H
  C8       1.0000 0.34100  0.18790  0.17430  Biso   1.000  C
  C9       1.0000 0.25500  0.06650  0.14360  Biso   1.000  C
  C10      1.0000 0.23540  0.91830  0.16210  Biso   1.000  C
  C11      1.0000 0.15430  0.81250  0.12750  Biso   1.000  C
  H4       1.0000 0.14400  0.71350  0.13800  Biso   1.000  H
  C12      1.0000 0.09090  0.84950  0.07980  Biso   1.000  C
  H5       1.0000 0.03750  0.77650  0.05850  Biso   1.000  H
  C13      1.0000 0.10550  0.99640  0.06250  Biso   1.000  C
  C14      1.0000 0.18760  0.10050  0.09440  Biso   1.000  C
  H6       1.0000 0.19910  0.19780  0.08280  Biso   1.000  H
  H7       1.0000 0.67300  0.99100  0.15690  Biso   1.000  H
  Ho1      1.0000 0.50379  0.93907  0.26706  Biso   1.000  Ho
  N1       1.0000 0.52420  0.55990  0.99320  Biso   1.000  N
  N2       1.0000 0.03740  0.04800  0.01410  Biso   1.000  N
  O1       1.0000 0.49830  0.63450  0.17514  Biso   1.000  O
  O2       1.0000 0.33380  0.32050  0.15876  Biso   1.000  O
  O3       1.0000 0.60010  0.86330  0.19481  Biso   1.000  O
  O4       1.0000 0.70330  0.01690  0.13100  Biso   1.000  O
  O5       1.0000 0.28210  0.87870  0.20872  Biso   1.000  O
  O6       1.0000 0.42480  0.15950  0.21738  Biso   1.000  O
  C15      1.0000 0.44070  0.25310  0.33560  Biso   1.000  C
  C16      1.0000 0.41590  0.27360  0.38700  Biso   1.000  C
  C17      1.0000 0.34530  0.40330  0.40100  Biso   1.000  C
  C18      1.0000 0.32330  0.41550  0.44900  Biso   1.000  C
  H8       1.0000 0.27630  0.50180  0.45840  Biso   1.000  H
  C19      1.0000 0.36920  0.30360  0.48260  Biso   1.000  C
  H9       1.0000 0.35470  0.31500  0.51480  Biso   1.000  H
  C20      1.0000 0.43760  0.17220  0.46940  Biso   1.000  C
  C21      1.0000 0.46270  0.15950  0.42140  Biso   1.000  C
  H10      1.0000 0.51130  0.07360  0.41250  Biso   1.000  H
  C22      1.0000 0.65900  0.68790  0.32570  Biso   1.000  C
  C23      1.0000 0.74500  0.56650  0.35640  Biso   1.000  C
  C24      1.0000 0.76460  0.41830  0.33790  Biso   1.000  C
  C25      1.0000 0.84570  0.31250  0.37250  Biso   1.000  C
  H11      1.0000 0.85600  0.21350  0.36200  Biso   1.000  H
  C26      1.0000 0.90910  0.34950  0.42020  Biso   1.000  C
  H12      1.0000 0.96250  0.27650  0.44150  Biso   1.000  H
  C27      1.0000 0.89450  0.49640  0.43750  Biso   1.000  C
  C28      1.0000 0.81240  0.60050  0.40560  Biso   1.000  C
  H13      1.0000 0.80090  0.69780  0.41720  Biso   1.000  H
  H14      1.0000 0.32700  0.49100  0.34310  Biso   1.000  H
  Ho2      1.0000 0.49621  0.43907  0.23294  Biso   1.000  Ho
  N3       1.0000 0.47580  0.05990  0.50680  Biso   1.000  N
  N4       1.0000 0.96260  0.54800  0.48590  Biso   1.000  N
  O7       1.0000 0.50170  0.13450  0.32486  Biso   1.000  O
  O8       1.0000 0.66620  0.82050  0.34124  Biso   1.000  O
  O9       1.0000 0.39990  0.36330  0.30519  Biso   1.000  O
  O10      1.0000 0.29670  0.51690  0.36900  Biso   1.000  O
  O11      1.0000 0.71790  0.37870  0.29128  Biso   1.000  O
  O12      1.0000 0.57520  0.65950  0.28262  Biso   1.000  O
  C29      1.0000 0.44070  0.24690  0.83560  Biso   1.000  C
  C30      1.0000 0.41590  0.22640  0.88700  Biso   1.000  C
  C31      1.0000 0.34530  0.09670  0.90100  Biso   1.000  C
  C32      1.0000 0.32330  0.08450  0.94900  Biso   1.000  C
  H15      1.0000 0.27630  0.99820  0.95840  Biso   1.000  H
  C33      1.0000 0.36920  0.19640  0.98260  Biso   1.000  C
  H16      1.0000 0.35470  0.18500  0.01480  Biso   1.000  H
  C34      1.0000 0.43760  0.32780  0.96940  Biso   1.000  C
  C35      1.0000 0.46270  0.34050  0.92140  Biso   1.000  C
  H17      1.0000 0.51130  0.42640  0.91250  Biso   1.000  H
  C36      1.0000 0.65900  0.81210  0.82570  Biso   1.000  C
  C37      1.0000 0.74500  0.93350  0.85640  Biso   1.000  C
  C38      1.0000 0.76460  0.08170  0.83790  Biso   1.000  C
  C39      1.0000 0.84570  0.18750  0.87250  Biso   1.000  C
  H18      1.0000 0.85600  0.28650  0.86200  Biso   1.000  H
  C40      1.0000 0.90910  0.15050  0.92020  Biso   1.000  C
  H19      1.0000 0.96250  0.22350  0.94150  Biso   1.000  H
  C41      1.0000 0.89450  0.00360  0.93750  Biso   1.000  C
  C42      1.0000 0.81240  0.89950  0.90560  Biso   1.000  C
  H20      1.0000 0.80090  0.80220  0.91720  Biso   1.000  H
  H21      1.0000 0.32700  0.00900  0.84310  Biso   1.000  H
  Ho3      1.0000 0.49621  0.06093  0.73294  Biso   1.000  Ho
  N5       1.0000 0.47580  0.44010  0.00680  Biso   1.000  N
  N6       1.0000 0.96260  0.95200  0.98590  Biso   1.000  N
  O13      1.0000 0.50170  0.36550  0.82486  Biso   1.000  O
  O14      1.0000 0.66620  0.67950  0.84124  Biso   1.000  O
  O15      1.0000 0.39990  0.13670  0.80519  Biso   1.000  O
  O16      1.0000 0.29670  0.98310  0.86900  Biso   1.000  O
  O17      1.0000 0.71790  0.12130  0.79128  Biso   1.000  O
  O18      1.0000 0.57520  0.84050  0.78262  Biso   1.000  O
  C43      1.0000 0.55930  0.74690  0.66440  Biso   1.000  C
  C44      1.0000 0.58410  0.72640  0.61300  Biso   1.000  C
  C45      1.0000 0.65470  0.59670  0.59900  Biso   1.000  C
  C46      1.0000 0.67670  0.58450  0.55100  Biso   1.000  C
  H22      1.0000 0.72370  0.49820  0.54160  Biso   1.000  H
  C47      1.0000 0.63080  0.69640  0.51740  Biso   1.000  C
  H23      1.0000 0.64530  0.68500  0.48520  Biso   1.000  H
  C48      1.0000 0.56240  0.82780  0.53060  Biso   1.000  C
  C49      1.0000 0.53730  0.84050  0.57860  Biso   1.000  C
  H24      1.0000 0.48870  0.92640  0.58750  Biso   1.000  H
  C50      1.0000 0.34100  0.31210  0.67430  Biso   1.000  C
  C51      1.0000 0.25500  0.43350  0.64360  Biso   1.000  C
  C52      1.0000 0.23540  0.58170  0.66210  Biso   1.000  C
  C53      1.0000 0.15430  0.68750  0.62750  Biso   1.000  C
  H25      1.0000 0.14400  0.78650  0.63800  Biso   1.000  H
  C54      1.0000 0.09090  0.65050  0.57980  Biso   1.000  C
  H26      1.0000 0.03750  0.72350  0.55850  Biso   1.000  H
  C55      1.0000 0.10550  0.50360  0.56250  Biso   1.000  C
  C56      1.0000 0.18760  0.39950  0.59440  Biso   1.000  C
  H27      1.0000 0.19910  0.30220  0.58280  Biso   1.000  H
  H28      1.0000 0.67300  0.50900  0.65690  Biso   1.000  H
  Ho4      1.0000 0.50379  0.56093  0.76706  Biso   1.000  Ho
  N7       1.0000 0.52420  0.94010  0.49320  Biso   1.000  N
  N8       1.0000 0.03740  0.45200  0.51410  Biso   1.000  N
  O19      1.0000 0.49830  0.86550  0.67514  Biso   1.000  O
  O20      1.0000 0.33380  0.17950  0.65876  Biso   1.000  O
  O21      1.0000 0.60010  0.63670  0.69481  Biso   1.000  O
  O22      1.0000 0.70330  0.48310  0.63100  Biso   1.000  O
  O23      1.0000 0.28210  0.62130  0.70872  Biso   1.000  O
  O24      1.0000 0.42480  0.34050  0.71738  Biso   1.000  O
