data_image0
_cell_length_a       11.164
_cell_length_b       11.164
_cell_length_c       10.638
_cell_angle_alpha    90
_cell_angle_beta     90
_cell_angle_gamma    90

_symmetry_space_group_name_H-M    "P 1"
_symmetry_int_tables_number       1

loop_
  _symmetry_equiv_pos_as_xyz
  'x, y, z'

loop_
  _atom_site_label
  _atom_site_occupancy
  _atom_site_fract_x
  _atom_site_fract_y
  _atom_site_fract_z
  _atom_site_thermal_displace_type
  _atom_site_B_iso_or_equiv
  _atom_site_type_symbol
  Cu1      1.0000 0.91399  0.08601  0.21482  Biso   1.000  Cu
  Cu2      1.0000 0.58511  0.41489  0.05521  Biso   1.000  Cu
  S1       1.0000 0.69474  0.30526  0.91107  Biso   1.000  S
  N1       1.0000 0.82340  0.17660  0.09020  Biso   1.000  N
  C1       1.0000 0.77150  0.22850  0.01650  Biso   1.000  C
  Cu3      1.0000 0.08601  0.91399  0.21482  Biso   1.000  Cu
  Cu4      1.0000 0.41489  0.58511  0.05521  Biso   1.000  Cu
  S2       1.0000 0.30526  0.69474  0.91107  Biso   1.000  S
  N2       1.0000 0.17660  0.82340  0.09020  Biso   1.000  N
  C2       1.0000 0.22850  0.77150  0.01650  Biso   1.000  C
  Cu5      1.0000 0.91399  0.91399  0.71482  Biso   1.000  Cu
  Cu6      1.0000 0.58511  0.58511  0.55521  Biso   1.000  Cu
  S3       1.0000 0.69474  0.69474  0.41107  Biso   1.000  S
  N3       1.0000 0.82340  0.82340  0.59020  Biso   1.000  N
  C3       1.0000 0.77150  0.77150  0.51650  Biso   1.000  C
  Cu7      1.0000 0.08601  0.08601  0.71482  Biso   1.000  Cu
  Cu8      1.0000 0.41489  0.41489  0.55521  Biso   1.000  Cu
  S4       1.0000 0.30526  0.30526  0.41107  Biso   1.000  S
  N4       1.0000 0.17660  0.17660  0.59020  Biso   1.000  N
  C4       1.0000 0.22850  0.22850  0.51650  Biso   1.000  C
  S5       1.0000 0.12252  0.12252  0.15749  Biso   1.000  S
  N5       1.0000 0.10930  0.10930  0.89340  Biso   1.000  N
  C5       1.0000 0.11330  0.11330  0.00150  Biso   1.000  C
  S6       1.0000 0.87748  0.87748  0.15749  Biso   1.000  S
  N6       1.0000 0.89070  0.89070  0.89340  Biso   1.000  N
  C6       1.0000 0.88670  0.88670  0.00150  Biso   1.000  C
  S7       1.0000 0.87748  0.12252  0.65749  Biso   1.000  S
  N7       1.0000 0.89070  0.10930  0.39340  Biso   1.000  N
  C7       1.0000 0.88670  0.11330  0.50150  Biso   1.000  C
  S8       1.0000 0.12252  0.87748  0.65749  Biso   1.000  S
  N8       1.0000 0.10930  0.89070  0.39340  Biso   1.000  N
  C8       1.0000 0.11330  0.88670  0.50150  Biso   1.000  C
  S9       1.0000 0.62448  0.62448  0.99766  Biso   1.000  S
  N9       1.0000 0.60880  0.60880  0.73470  Biso   1.000  N
  C9       1.0000 0.61420  0.61420  0.84170  Biso   1.000  C
  S10      1.0000 0.37552  0.37552  0.99766  Biso   1.000  S
  N10      1.0000 0.39120  0.39120  0.73470  Biso   1.000  N
  C10      1.0000 0.38580  0.38580  0.84170  Biso   1.000  C
  S11      1.0000 0.37552  0.62448  0.49766  Biso   1.000  S
  N11      1.0000 0.39120  0.60880  0.23470  Biso   1.000  N
  C11      1.0000 0.38580  0.61420  0.34170  Biso   1.000  C
  S12      1.0000 0.62448  0.37552  0.49766  Biso   1.000  S
  N12      1.0000 0.60880  0.39120  0.23470  Biso   1.000  N
  C12      1.0000 0.61420  0.38580  0.34170  Biso   1.000  C
