data_image0
_cell_length_a       18.9586
_cell_length_b       18.9586
_cell_length_c       38.0589
_cell_angle_alpha    90
_cell_angle_beta     90
_cell_angle_gamma    120

_symmetry_space_group_name_H-M    "P 1"
_symmetry_int_tables_number       1

loop_
  _symmetry_equiv_pos_as_xyz
  'x, y, z'

loop_
  _atom_site_label
  _atom_site_occupancy
  _atom_site_fract_x
  _atom_site_fract_y
  _atom_site_fract_z
  _atom_site_thermal_displace_type
  _atom_site_B_iso_or_equiv
  _atom_site_type_symbol
  Zn1      1.0000 0.80806  0.61646  0.99994  Biso   1.000  Zn
  Zn2      1.0000 0.85808  0.71668  0.93460  Biso   1.000  Zn
  O1       1.0000 0.96210  0.77860  0.96200  Biso   1.000  O
  O2       1.0000 0.92520  0.70260  0.01010  Biso   1.000  O
  C1       1.0000 0.97190  0.76280  0.99120  Biso   1.000  C
  C2       1.0000 0.05270  0.82200  0.01146  Biso   1.000  C
  C3       1.0000 0.10750  0.89340  0.99431  Biso   1.000  C
  H1       1.0000 0.09650  0.90340  0.97100  Biso   1.000  H
  C4       1.0000 0.17840  0.95030  0.01120  Biso   1.000  C
  C5       1.0000 0.19450  0.93570  0.04524  Biso   1.000  C
  H2       1.0000 0.24290  0.97460  0.05680  Biso   1.000  H
  C6       1.0000 0.13970  0.86430  0.06240  Biso   1.000  C
  C7       1.0000 0.06880  0.80740  0.04550  Biso   1.000  C
  H3       1.0000 0.03130  0.75860  0.05720  Biso   1.000  H
  C8       1.0000 0.24060  0.02610  0.99350  Biso   1.000  C
  O3       1.0000 0.22610  0.03460  0.96200  Biso   1.000  O
  O4       1.0000 0.29910  0.07400  0.00830  Biso   1.000  O
  C9       1.0000 0.16430  0.84300  0.09870  Biso   1.000  C
  C10      1.0000 0.18710  0.90250  0.12440  Biso   1.000  C
  C11      1.0000 0.19780  0.88560  0.15890  Biso   1.000  C
  H4       1.0000 0.21340  0.92620  0.17650  Biso   1.000  H
  C12      1.0000 0.18570  0.80910  0.16770  Biso   1.000  C
  C13      1.0000 0.16290  0.74960  0.14200  Biso   1.000  C
  C14      1.0000 0.15220  0.76650  0.10750  Biso   1.000  C
  H5       1.0000 0.13670  0.72580  0.08990  Biso   1.000  H
  O5       1.0000 0.16270  0.68190  0.15180  Biso   1.000  O
  C15      1.0000 0.13650  0.61600  0.17300  Biso   1.000  C
  H6       1.0000 0.11140  0.61530  0.19620  Biso   1.000  H
  C16      1.0000 0.09110  0.53550  0.14720  Biso   1.000  C
  H7       1.0000 0.11150  0.49730  0.15150  Biso   1.000  H
  H8       1.0000 0.03130  0.50640  0.15040  Biso   1.000  H
  C17      1.0000 0.11610  0.57510  0.10940  Biso   1.000  C
  H9       1.0000 0.09310  0.61070  0.10550  Biso   1.000  H
  H10      1.0000 0.09500  0.53200  0.09160  Biso   1.000  H
  H11      1.0000 0.17560  0.60710  0.10770  Biso   1.000  H
  C18      1.0000 0.21930  0.61440  0.17210  Biso   1.000  C
  H12      1.0000 0.24620  0.63520  0.14940  Biso   1.000  H
  H13      1.0000 0.20790  0.55840  0.17520  Biso   1.000  H
  H14      1.0000 0.25500  0.64870  0.19100  Biso   1.000  H
  O6       1.0000 0.21920  0.98600  0.11100  Biso   1.000  O
  C19      1.0000 0.25960  0.06060  0.13520  Biso   1.000  C
  H15      1.0000 0.31060  0.07060  0.14730  Biso   1.000  H
  C20      1.0000 0.26790  0.12790  0.10970  Biso   1.000  C
  H16      1.0000 0.29690  0.18250  0.12070  Biso   1.000  H
  H17      1.0000 0.29600  0.12830  0.08770  Biso   1.000  H
  C21      1.0000 0.17970  0.10010  0.10350  Biso   1.000  C
  H18      1.0000 0.16940  0.09820  0.07820  Biso   1.000  H
  H19      1.0000 0.16600  0.13830  0.11470  Biso   1.000  H
  H20      1.0000 0.14600  0.04570  0.11360  Biso   1.000  H
  C22      1.0000 0.18310  0.02780  0.15810  Biso   1.000  C
  H21      1.0000 0.13900  0.97850  0.14730  Biso   1.000  H
  H22      1.0000 0.16670  0.06910  0.16000  Biso   1.000  H
  H23      1.0000 0.19480  0.01480  0.18150  Biso   1.000  H
  C23      1.0000 0.09770  0.63840  0.27560  Biso   1.000  C
  O7       1.0000 0.03390  0.59120  0.25510  Biso   1.000  O
  O8       1.0000 0.11770  0.62910  0.30650  Biso   1.000  O
  O9       1.0000 0.36950  0.88660  0.30520  Biso   1.000  O
  O10      1.0000 0.40840  0.96620  0.25736  Biso   1.000  O
  C24      1.0000 0.35640  0.90110  0.27220  Biso   1.000  C
  C25      1.0000 0.19820  0.80370  0.20638  Biso   1.000  C
  C26      1.0000 0.26940  0.85940  0.22340  Biso   1.000  C
  H24      1.0000 0.30940  0.90610  0.21120  Biso   1.000  H
  C27      1.0000 0.28210  0.84680  0.25820  Biso   1.000  C
  C28      1.0000 0.22360  0.77840  0.27608  Biso   1.000  C
  H25      1.0000 0.23220  0.76980  0.29990  Biso   1.000  H
  C29      1.0000 0.15240  0.72270  0.25900  Biso   1.000  C
  C30      1.0000 0.13970  0.73530  0.22420  Biso   1.000  C
  H26      1.0000 0.09100  0.69720  0.21250  Biso   1.000  H
  Zn3      1.0000 0.47473  0.94979  0.33327  Biso   1.000  Zn
  Zn4      1.0000 0.52475  0.05001  0.26793  Biso   1.000  Zn
  O11      1.0000 0.62877  0.11193  0.29533  Biso   1.000  O
  O12      1.0000 0.59187  0.03593  0.34343  Biso   1.000  O
  C31      1.0000 0.63857  0.09613  0.32453  Biso   1.000  C
  C32      1.0000 0.71937  0.15533  0.34479  Biso   1.000  C
  C33      1.0000 0.77417  0.22673  0.32764  Biso   1.000  C
  H27      1.0000 0.76317  0.23673  0.30433  Biso   1.000  H
  C34      1.0000 0.84507  0.28363  0.34453  Biso   1.000  C
  C35      1.0000 0.86117  0.26903  0.37857  Biso   1.000  C
  H28      1.0000 0.90957  0.30793  0.39013  Biso   1.000  H
  C36      1.0000 0.80637  0.19763  0.39573  Biso   1.000  C
  C37      1.0000 0.73547  0.14073  0.37883  Biso   1.000  C
  H29      1.0000 0.69797  0.09193  0.39053  Biso   1.000  H
  C38      1.0000 0.90727  0.35943  0.32683  Biso   1.000  C
  O13      1.0000 0.89277  0.36793  0.29533  Biso   1.000  O
  O14      1.0000 0.96577  0.40733  0.34163  Biso   1.000  O
  C39      1.0000 0.83097  0.17633  0.43203  Biso   1.000  C
  C40      1.0000 0.85377  0.23583  0.45773  Biso   1.000  C
  C41      1.0000 0.86447  0.21893  0.49223  Biso   1.000  C
  H30      1.0000 0.88007  0.25953  0.50983  Biso   1.000  H
  C42      1.0000 0.85237  0.14243  0.50103  Biso   1.000  C
  C43      1.0000 0.82957  0.08293  0.47533  Biso   1.000  C
  C44      1.0000 0.81887  0.09983  0.44083  Biso   1.000  C
  H31      1.0000 0.80337  0.05913  0.42323  Biso   1.000  H
  O15      1.0000 0.82937  0.01523  0.48513  Biso   1.000  O
  C45      1.0000 0.80317  0.94933  0.50633  Biso   1.000  C
  H32      1.0000 0.77807  0.94863  0.52953  Biso   1.000  H
  C46      1.0000 0.75777  0.86883  0.48053  Biso   1.000  C
  H33      1.0000 0.77817  0.83063  0.48483  Biso   1.000  H
  H34      1.0000 0.69797  0.83973  0.48373  Biso   1.000  H
  C47      1.0000 0.78277  0.90843  0.44273  Biso   1.000  C
  H35      1.0000 0.75977  0.94403  0.43883  Biso   1.000  H
  H36      1.0000 0.76167  0.86533  0.42493  Biso   1.000  H
  H37      1.0000 0.84227  0.94043  0.44103  Biso   1.000  H
  C48      1.0000 0.88597  0.94773  0.50543  Biso   1.000  C
  H38      1.0000 0.91287  0.96853  0.48273  Biso   1.000  H
  H39      1.0000 0.87457  0.89173  0.50853  Biso   1.000  H
  H40      1.0000 0.92167  0.98203  0.52433  Biso   1.000  H
  O16      1.0000 0.88587  0.31933  0.44433  Biso   1.000  O
  C49      1.0000 0.92627  0.39393  0.46853  Biso   1.000  C
  H41      1.0000 0.97727  0.40393  0.48063  Biso   1.000  H
  C50      1.0000 0.93457  0.46123  0.44303  Biso   1.000  C
  H42      1.0000 0.96357  0.51583  0.45403  Biso   1.000  H
  H43      1.0000 0.96267  0.46163  0.42103  Biso   1.000  H
  C51      1.0000 0.84637  0.43343  0.43683  Biso   1.000  C
  H44      1.0000 0.83607  0.43153  0.41153  Biso   1.000  H
  H45      1.0000 0.83267  0.47163  0.44803  Biso   1.000  H
  H46      1.0000 0.81267  0.37903  0.44693  Biso   1.000  H
  C52      1.0000 0.84977  0.36113  0.49143  Biso   1.000  C
  H47      1.0000 0.80567  0.31183  0.48063  Biso   1.000  H
  H48      1.0000 0.83337  0.40243  0.49333  Biso   1.000  H
  H49      1.0000 0.86147  0.34813  0.51483  Biso   1.000  H
  C53      1.0000 0.76437  0.97173  0.60893  Biso   1.000  C
  O17      1.0000 0.70057  0.92453  0.58843  Biso   1.000  O
  O18      1.0000 0.78437  0.96243  0.63983  Biso   1.000  O
  O19      1.0000 0.03617  0.21993  0.63853  Biso   1.000  O
  O20      1.0000 0.07507  0.29953  0.59069  Biso   1.000  O
  C54      1.0000 0.02307  0.23443  0.60553  Biso   1.000  C
  C55      1.0000 0.86487  0.13703  0.53971  Biso   1.000  C
  C56      1.0000 0.93607  0.19273  0.55673  Biso   1.000  C
  H50      1.0000 0.97607  0.23943  0.54453  Biso   1.000  H
  C57      1.0000 0.94877  0.18013  0.59153  Biso   1.000  C
  C58      1.0000 0.89027  0.11173  0.60941  Biso   1.000  C
  H51      1.0000 0.89887  0.10313  0.63323  Biso   1.000  H
  C59      1.0000 0.81907  0.05603  0.59233  Biso   1.000  C
  C60      1.0000 0.80637  0.06863  0.55753  Biso   1.000  C
  H52      1.0000 0.75767  0.03053  0.54583  Biso   1.000  H
  Zn5      1.0000 0.14139  0.28313  0.66661  Biso   1.000  Zn
  Zn6      1.0000 0.19141  0.38335  0.60127  Biso   1.000  Zn
  O21      1.0000 0.29543  0.44527  0.62867  Biso   1.000  O
  O22      1.0000 0.25853  0.36927  0.67677  Biso   1.000  O
  C61      1.0000 0.30523  0.42947  0.65787  Biso   1.000  C
  C62      1.0000 0.38603  0.48867  0.67813  Biso   1.000  C
  C63      1.0000 0.44083  0.56007  0.66098  Biso   1.000  C
  H53      1.0000 0.42983  0.57007  0.63767  Biso   1.000  H
  C64      1.0000 0.51173  0.61697  0.67787  Biso   1.000  C
  C65      1.0000 0.52783  0.60237  0.71191  Biso   1.000  C
  H54      1.0000 0.57623  0.64127  0.72347  Biso   1.000  H
  C66      1.0000 0.47303  0.53097  0.72907  Biso   1.000  C
  C67      1.0000 0.40213  0.47407  0.71217  Biso   1.000  C
  H55      1.0000 0.36463  0.42527  0.72387  Biso   1.000  H
  C68      1.0000 0.57393  0.69277  0.66017  Biso   1.000  C
  O23      1.0000 0.55943  0.70127  0.62867  Biso   1.000  O
  O24      1.0000 0.63243  0.74067  0.67497  Biso   1.000  O
  C69      1.0000 0.49763  0.50967  0.76537  Biso   1.000  C
  C70      1.0000 0.52043  0.56917  0.79107  Biso   1.000  C
  C71      1.0000 0.53113  0.55227  0.82557  Biso   1.000  C
  H56      1.0000 0.54673  0.59287  0.84317  Biso   1.000  H
  C72      1.0000 0.51903  0.47577  0.83437  Biso   1.000  C
  C73      1.0000 0.49623  0.41627  0.80867  Biso   1.000  C
  C74      1.0000 0.48553  0.43317  0.77417  Biso   1.000  C
  H57      1.0000 0.47003  0.39247  0.75657  Biso   1.000  H
  O25      1.0000 0.49603  0.34857  0.81847  Biso   1.000  O
  C75      1.0000 0.46983  0.28267  0.83967  Biso   1.000  C
  H58      1.0000 0.44473  0.28197  0.86287  Biso   1.000  H
  C76      1.0000 0.42443  0.20217  0.81387  Biso   1.000  C
  H59      1.0000 0.44483  0.16397  0.81817  Biso   1.000  H
  H60      1.0000 0.36463  0.17307  0.81707  Biso   1.000  H
  C77      1.0000 0.44943  0.24177  0.77607  Biso   1.000  C
  H61      1.0000 0.42643  0.27737  0.77217  Biso   1.000  H
  H62      1.0000 0.42833  0.19867  0.75827  Biso   1.000  H
  H63      1.0000 0.50893  0.27377  0.77437  Biso   1.000  H
  C78      1.0000 0.55263  0.28107  0.83877  Biso   1.000  C
  H64      1.0000 0.57953  0.30187  0.81607  Biso   1.000  H
  H65      1.0000 0.54123  0.22507  0.84187  Biso   1.000  H
  H66      1.0000 0.58833  0.31537  0.85767  Biso   1.000  H
  O26      1.0000 0.55253  0.65267  0.77767  Biso   1.000  O
  C79      1.0000 0.59293  0.72727  0.80187  Biso   1.000  C
  H67      1.0000 0.64393  0.73727  0.81397  Biso   1.000  H
  C80      1.0000 0.60123  0.79457  0.77637  Biso   1.000  C
  H68      1.0000 0.63023  0.84917  0.78737  Biso   1.000  H
  H69      1.0000 0.62933  0.79497  0.75437  Biso   1.000  H
  C81      1.0000 0.51303  0.76677  0.77017  Biso   1.000  C
  H70      1.0000 0.50273  0.76487  0.74487  Biso   1.000  H
  H71      1.0000 0.49933  0.80497  0.78137  Biso   1.000  H
  H72      1.0000 0.47933  0.71237  0.78027  Biso   1.000  H
  C82      1.0000 0.51643  0.69447  0.82477  Biso   1.000  C
  H73      1.0000 0.47233  0.64517  0.81397  Biso   1.000  H
  H74      1.0000 0.50003  0.73577  0.82667  Biso   1.000  H
  H75      1.0000 0.52813  0.68147  0.84817  Biso   1.000  H
  C83      1.0000 0.43103  0.30507  0.94227  Biso   1.000  C
  O27      1.0000 0.36723  0.25787  0.92177  Biso   1.000  O
  O28      1.0000 0.45103  0.29577  0.97317  Biso   1.000  O
  O29      1.0000 0.70283  0.55327  0.97187  Biso   1.000  O
  O30      1.0000 0.74173  0.63287  0.92403  Biso   1.000  O
  C84      1.0000 0.68973  0.56777  0.93887  Biso   1.000  C
  C85      1.0000 0.53153  0.47037  0.87305  Biso   1.000  C
  C86      1.0000 0.60273  0.52607  0.89007  Biso   1.000  C
  H76      1.0000 0.64273  0.57277  0.87787  Biso   1.000  H
  C87      1.0000 0.61543  0.51347  0.92487  Biso   1.000  C
  C88      1.0000 0.55693  0.44507  0.94275  Biso   1.000  C
  H77      1.0000 0.56553  0.43647  0.96657  Biso   1.000  H
  C89      1.0000 0.48573  0.38937  0.92567  Biso   1.000  C
  C90      1.0000 0.47303  0.40197  0.89087  Biso   1.000  C
  H78      1.0000 0.42433  0.36387  0.87917  Biso   1.000  H
  Zn7      1.0000 0.38354  0.19160  0.99994  Biso   1.000  Zn
  Zn8      1.0000 0.28332  0.14140  0.93460  Biso   1.000  Zn
  O31      1.0000 0.22140  0.18350  0.96200  Biso   1.000  O
  O32      1.0000 0.29740  0.22260  0.01010  Biso   1.000  O
  C91      1.0000 0.23720  0.20910  0.99120  Biso   1.000  C
  C92      1.0000 0.17800  0.23070  0.01146  Biso   1.000  C
  C93      1.0000 0.10660  0.21410  0.99431  Biso   1.000  C
  H79      1.0000 0.09660  0.19310  0.97100  Biso   1.000  H
  C94      1.0000 0.04970  0.22810  0.01120  Biso   1.000  C
  C95      1.0000 0.06430  0.25880  0.04524  Biso   1.000  C
  H80      1.0000 0.02540  0.26830  0.05680  Biso   1.000  H
  C96      1.0000 0.13570  0.27540  0.06240  Biso   1.000  C
  C97      1.0000 0.19260  0.26140  0.04550  Biso   1.000  C
  H81      1.0000 0.24140  0.27270  0.05720  Biso   1.000  H
  C98      1.0000 0.97390  0.21450  0.99350  Biso   1.000  C
  O33      1.0000 0.96540  0.19150  0.96200  Biso   1.000  O
  O34      1.0000 0.92600  0.22510  0.00830  Biso   1.000  O
  C99      1.0000 0.15700  0.32130  0.09870  Biso   1.000  C
  C100     1.0000 0.09750  0.28460  0.12440  Biso   1.000  C
  C101     1.0000 0.11440  0.31220  0.15890  Biso   1.000  C
  H82      1.0000 0.07380  0.28720  0.17650  Biso   1.000  H
  C102     1.0000 0.19090  0.37660  0.16770  Biso   1.000  C
  C103     1.0000 0.25040  0.41330  0.14200  Biso   1.000  C
  C104     1.0000 0.23350  0.38570  0.10750  Biso   1.000  C
  H83      1.0000 0.27420  0.41090  0.08990  Biso   1.000  H
  O35      1.0000 0.31810  0.48080  0.15180  Biso   1.000  O
  C105     1.0000 0.38400  0.52050  0.17300  Biso   1.000  C
  H84      1.0000 0.38470  0.49610  0.19620  Biso   1.000  H
  C106     1.0000 0.46450  0.55560  0.14720  Biso   1.000  C
  H85      1.0000 0.50270  0.61420  0.15150  Biso   1.000  H
  H86      1.0000 0.49360  0.52490  0.15040  Biso   1.000  H
  C107     1.0000 0.42490  0.54100  0.10940  Biso   1.000  C
  H87      1.0000 0.38930  0.48240  0.10550  Biso   1.000  H
  H88      1.0000 0.46800  0.56300  0.09160  Biso   1.000  H
  H89      1.0000 0.39290  0.56850  0.10770  Biso   1.000  H
  C108     1.0000 0.38560  0.60490  0.17210  Biso   1.000  C
  H90      1.0000 0.36480  0.61100  0.14940  Biso   1.000  H
  H91      1.0000 0.44160  0.64950  0.17520  Biso   1.000  H
  H92      1.0000 0.35130  0.60630  0.19100  Biso   1.000  H
  O36      1.0000 0.01400  0.23320  0.11100  Biso   1.000  O
  C109     1.0000 0.93940  0.19900  0.13520  Biso   1.000  C
  H93      1.0000 0.92940  0.24000  0.14730  Biso   1.000  H
  C110     1.0000 0.87210  0.14000  0.10970  Biso   1.000  C
  H94      1.0000 0.81750  0.11440  0.12070  Biso   1.000  H
  H95      1.0000 0.87170  0.16770  0.08770  Biso   1.000  H
  C111     1.0000 0.89990  0.07960  0.10350  Biso   1.000  C
  H96      1.0000 0.90180  0.07120  0.07820  Biso   1.000  H
  H97      1.0000 0.86170  0.02770  0.11470  Biso   1.000  H
  H98      1.0000 0.95430  0.10030  0.11360  Biso   1.000  H
  C112     1.0000 0.97220  0.15530  0.15810  Biso   1.000  C
  H99      1.0000 0.02150  0.16050  0.14730  Biso   1.000  H
  H100     1.0000 0.93090  0.09760  0.16000  Biso   1.000  H
  H101     1.0000 0.98520  0.18000  0.18150  Biso   1.000  H
  C113     1.0000 0.36160  0.45930  0.27560  Biso   1.000  C
  O37      1.0000 0.40880  0.44270  0.25510  Biso   1.000  O
  O38      1.0000 0.37090  0.48860  0.30650  Biso   1.000  O
  O39      1.0000 0.11340  0.48290  0.30520  Biso   1.000  O
  O40      1.0000 0.03380  0.44220  0.25736  Biso   1.000  O
  C114     1.0000 0.09890  0.45530  0.27220  Biso   1.000  C
  C115     1.0000 0.19630  0.39450  0.20638  Biso   1.000  C
  C116     1.0000 0.14060  0.41000  0.22340  Biso   1.000  C
  H102     1.0000 0.09390  0.40330  0.21120  Biso   1.000  H
  C117     1.0000 0.15320  0.43530  0.25820  Biso   1.000  C
  C118     1.0000 0.22160  0.44520  0.27608  Biso   1.000  C
  H103     1.0000 0.23020  0.46240  0.29990  Biso   1.000  H
  C119     1.0000 0.27730  0.42970  0.25900  Biso   1.000  C
  C120     1.0000 0.26470  0.40440  0.22420  Biso   1.000  C
  H104     1.0000 0.30280  0.39380  0.21250  Biso   1.000  H
  Zn9      1.0000 0.05021  0.52493  0.33327  Biso   1.000  Zn
  Zn10     1.0000 0.94999  0.47473  0.26793  Biso   1.000  Zn
  O41      1.0000 0.88807  0.51683  0.29533  Biso   1.000  O
  O42      1.0000 0.96407  0.55593  0.34343  Biso   1.000  O
  C121     1.0000 0.90387  0.54243  0.32453  Biso   1.000  C
  C122     1.0000 0.84467  0.56403  0.34479  Biso   1.000  C
  C123     1.0000 0.77327  0.54743  0.32764  Biso   1.000  C
  H105     1.0000 0.76327  0.52643  0.30433  Biso   1.000  H
  C124     1.0000 0.71637  0.56143  0.34453  Biso   1.000  C
  C125     1.0000 0.73097  0.59213  0.37857  Biso   1.000  C
  H106     1.0000 0.69207  0.60163  0.39013  Biso   1.000  H
  C126     1.0000 0.80237  0.60873  0.39573  Biso   1.000  C
  C127     1.0000 0.85927  0.59473  0.37883  Biso   1.000  C
  H107     1.0000 0.90807  0.60603  0.39053  Biso   1.000  H
  C128     1.0000 0.64057  0.54783  0.32683  Biso   1.000  C
  O43      1.0000 0.63207  0.52483  0.29533  Biso   1.000  O
  O44      1.0000 0.59267  0.55843  0.34163  Biso   1.000  O
  C129     1.0000 0.82367  0.65463  0.43203  Biso   1.000  C
  C130     1.0000 0.76417  0.61793  0.45773  Biso   1.000  C
  C131     1.0000 0.78107  0.64553  0.49223  Biso   1.000  C
  H108     1.0000 0.74047  0.62053  0.50983  Biso   1.000  H
  C132     1.0000 0.85757  0.70993  0.50103  Biso   1.000  C
  C133     1.0000 0.91707  0.74663  0.47533  Biso   1.000  C
  C134     1.0000 0.90017  0.71903  0.44083  Biso   1.000  C
  H109     1.0000 0.94087  0.74423  0.42323  Biso   1.000  H
  O45      1.0000 0.98477  0.81413  0.48513  Biso   1.000  O
  C135     1.0000 0.05067  0.85383  0.50633  Biso   1.000  C
  H110     1.0000 0.05137  0.82943  0.52953  Biso   1.000  H
  C136     1.0000 0.13117  0.88893  0.48053  Biso   1.000  C
  H111     1.0000 0.16937  0.94753  0.48483  Biso   1.000  H
  H112     1.0000 0.16027  0.85823  0.48373  Biso   1.000  H
  C137     1.0000 0.09157  0.87433  0.44273  Biso   1.000  C
  H113     1.0000 0.05597  0.81573  0.43883  Biso   1.000  H
  H114     1.0000 0.13467  0.89633  0.42493  Biso   1.000  H
  H115     1.0000 0.05957  0.90183  0.44103  Biso   1.000  H
  C138     1.0000 0.05227  0.93823  0.50543  Biso   1.000  C
  H116     1.0000 0.03147  0.94433  0.48273  Biso   1.000  H
  H117     1.0000 0.10827  0.98283  0.50853  Biso   1.000  H
  H118     1.0000 0.01797  0.93963  0.52433  Biso   1.000  H
  O46      1.0000 0.68067  0.56653  0.44433  Biso   1.000  O
  C139     1.0000 0.60607  0.53233  0.46853  Biso   1.000  C
  H119     1.0000 0.59607  0.57333  0.48063  Biso   1.000  H
  C140     1.0000 0.53877  0.47333  0.44303  Biso   1.000  C
  H120     1.0000 0.48417  0.44773  0.45403  Biso   1.000  H
  H121     1.0000 0.53837  0.50103  0.42103  Biso   1.000  H
  C141     1.0000 0.56657  0.41293  0.43683  Biso   1.000  C
  H122     1.0000 0.56847  0.40453  0.41153  Biso   1.000  H
  H123     1.0000 0.52837  0.36103  0.44803  Biso   1.000  H
  H124     1.0000 0.62097  0.43363  0.44693  Biso   1.000  H
  C142     1.0000 0.63887  0.48863  0.49143  Biso   1.000  C
  H125     1.0000 0.68817  0.49383  0.48063  Biso   1.000  H
  H126     1.0000 0.59757  0.43093  0.49333  Biso   1.000  H
  H127     1.0000 0.65187  0.51333  0.51483  Biso   1.000  H
  C143     1.0000 0.02827  0.79263  0.60893  Biso   1.000  C
  O47      1.0000 0.07547  0.77603  0.58843  Biso   1.000  O
  O48      1.0000 0.03757  0.82193  0.63983  Biso   1.000  O
  O49      1.0000 0.78007  0.81623  0.63853  Biso   1.000  O
  O50      1.0000 0.70047  0.77553  0.59069  Biso   1.000  O
  C144     1.0000 0.76557  0.78863  0.60553  Biso   1.000  C
  C145     1.0000 0.86297  0.72783  0.53971  Biso   1.000  C
  C146     1.0000 0.80727  0.74333  0.55673  Biso   1.000  C
  H128     1.0000 0.76057  0.73663  0.54453  Biso   1.000  H
  C147     1.0000 0.81987  0.76863  0.59153  Biso   1.000  C
  C148     1.0000 0.88827  0.77853  0.60941  Biso   1.000  C
  H129     1.0000 0.89687  0.79573  0.63323  Biso   1.000  H
  C149     1.0000 0.94397  0.76303  0.59233  Biso   1.000  C
  C150     1.0000 0.93137  0.73773  0.55753  Biso   1.000  C
  H130     1.0000 0.96947  0.72713  0.54583  Biso   1.000  H
  Zn11     1.0000 0.71687  0.85827  0.66661  Biso   1.000  Zn
  Zn12     1.0000 0.61665  0.80807  0.60127  Biso   1.000  Zn
  O51      1.0000 0.55473  0.85017  0.62867  Biso   1.000  O
  O52      1.0000 0.63073  0.88927  0.67677  Biso   1.000  O
  C151     1.0000 0.57053  0.87577  0.65787  Biso   1.000  C
  C152     1.0000 0.51133  0.89737  0.67813  Biso   1.000  C
  C153     1.0000 0.43993  0.88077  0.66098  Biso   1.000  C
  H131     1.0000 0.42993  0.85977  0.63767  Biso   1.000  H
  C154     1.0000 0.38303  0.89477  0.67787  Biso   1.000  C
  C155     1.0000 0.39763  0.92547  0.71191  Biso   1.000  C
  H132     1.0000 0.35873  0.93497  0.72347  Biso   1.000  H
  C156     1.0000 0.46903  0.94207  0.72907  Biso   1.000  C
  C157     1.0000 0.52593  0.92807  0.71217  Biso   1.000  C
  H133     1.0000 0.57473  0.93937  0.72387  Biso   1.000  H
  C158     1.0000 0.30723  0.88117  0.66017  Biso   1.000  C
  O53      1.0000 0.29873  0.85817  0.62867  Biso   1.000  O
  O54      1.0000 0.25933  0.89177  0.67497  Biso   1.000  O
  C159     1.0000 0.49033  0.98797  0.76537  Biso   1.000  C
  C160     1.0000 0.43083  0.95127  0.79107  Biso   1.000  C
  C161     1.0000 0.44773  0.97887  0.82557  Biso   1.000  C
  H134     1.0000 0.40713  0.95387  0.84317  Biso   1.000  H
  C162     1.0000 0.52423  0.04327  0.83437  Biso   1.000  C
  C163     1.0000 0.58373  0.07997  0.80867  Biso   1.000  C
  C164     1.0000 0.56683  0.05237  0.77417  Biso   1.000  C
  H135     1.0000 0.60753  0.07757  0.75657  Biso   1.000  H
  O55      1.0000 0.65143  0.14747  0.81847  Biso   1.000  O
  C165     1.0000 0.71733  0.18717  0.83967  Biso   1.000  C
  H136     1.0000 0.71803  0.16277  0.86287  Biso   1.000  H
  C166     1.0000 0.79783  0.22227  0.81387  Biso   1.000  C
  H137     1.0000 0.83603  0.28087  0.81817  Biso   1.000  H
  H138     1.0000 0.82693  0.19157  0.81707  Biso   1.000  H
  C167     1.0000 0.75823  0.20767  0.77607  Biso   1.000  C
  H139     1.0000 0.72263  0.14907  0.77217  Biso   1.000  H
  H140     1.0000 0.80133  0.22967  0.75827  Biso   1.000  H
  H141     1.0000 0.72623  0.23517  0.77437  Biso   1.000  H
  C168     1.0000 0.71893  0.27157  0.83877  Biso   1.000  C
  H142     1.0000 0.69813  0.27767  0.81607  Biso   1.000  H
  H143     1.0000 0.77493  0.31617  0.84187  Biso   1.000  H
  H144     1.0000 0.68463  0.27297  0.85767  Biso   1.000  H
  O56      1.0000 0.34733  0.89987  0.77767  Biso   1.000  O
  C169     1.0000 0.27273  0.86567  0.80187  Biso   1.000  C
  H145     1.0000 0.26273  0.90667  0.81397  Biso   1.000  H
  C170     1.0000 0.20543  0.80667  0.77637  Biso   1.000  C
  H146     1.0000 0.15083  0.78107  0.78737  Biso   1.000  H
  H147     1.0000 0.20503  0.83437  0.75437  Biso   1.000  H
  C171     1.0000 0.23323  0.74627  0.77017  Biso   1.000  C
  H148     1.0000 0.23513  0.73787  0.74487  Biso   1.000  H
  H149     1.0000 0.19503  0.69437  0.78137  Biso   1.000  H
  H150     1.0000 0.28763  0.76697  0.78027  Biso   1.000  H
  C172     1.0000 0.30553  0.82197  0.82477  Biso   1.000  C
  H151     1.0000 0.35483  0.82717  0.81397  Biso   1.000  H
  H152     1.0000 0.26423  0.76427  0.82667  Biso   1.000  H
  H153     1.0000 0.31853  0.84667  0.84817  Biso   1.000  H
  C173     1.0000 0.69493  0.12597  0.94227  Biso   1.000  C
  O57      1.0000 0.74213  0.10937  0.92177  Biso   1.000  O
  O58      1.0000 0.70423  0.15527  0.97317  Biso   1.000  O
  O59      1.0000 0.44673  0.14957  0.97187  Biso   1.000  O
  O60      1.0000 0.36713  0.10887  0.92403  Biso   1.000  O
  C174     1.0000 0.43223  0.12197  0.93887  Biso   1.000  C
  C175     1.0000 0.52963  0.06117  0.87305  Biso   1.000  C
  C176     1.0000 0.47393  0.07667  0.89007  Biso   1.000  C
  H154     1.0000 0.42723  0.06997  0.87787  Biso   1.000  H
  C177     1.0000 0.48653  0.10197  0.92487  Biso   1.000  C
  C178     1.0000 0.55493  0.11187  0.94275  Biso   1.000  C
  H155     1.0000 0.56353  0.12907  0.96657  Biso   1.000  H
  C179     1.0000 0.61063  0.09637  0.92567  Biso   1.000  C
  C180     1.0000 0.59803  0.07107  0.89087  Biso   1.000  C
  H156     1.0000 0.63613  0.06047  0.87917  Biso   1.000  H
  Zn13     1.0000 0.80840  0.19194  0.99994  Biso   1.000  Zn
  Zn14     1.0000 0.85860  0.14192  0.93460  Biso   1.000  Zn
  O61      1.0000 0.81650  0.03790  0.96200  Biso   1.000  O
  O62      1.0000 0.77740  0.07480  0.01010  Biso   1.000  O
  C181     1.0000 0.79090  0.02810  0.99120  Biso   1.000  C
  C182     1.0000 0.76930  0.94730  0.01146  Biso   1.000  C
  C183     1.0000 0.78590  0.89250  0.99431  Biso   1.000  C
  H157     1.0000 0.80690  0.90350  0.97100  Biso   1.000  H
  C184     1.0000 0.77190  0.82160  0.01120  Biso   1.000  C
  C185     1.0000 0.74120  0.80550  0.04524  Biso   1.000  C
  H158     1.0000 0.73170  0.75710  0.05680  Biso   1.000  H
  C186     1.0000 0.72460  0.86030  0.06240  Biso   1.000  C
  C187     1.0000 0.73860  0.93120  0.04550  Biso   1.000  C
  H159     1.0000 0.72730  0.96870  0.05720  Biso   1.000  H
  C188     1.0000 0.78550  0.75940  0.99350  Biso   1.000  C
  O63      1.0000 0.80850  0.77390  0.96200  Biso   1.000  O
  O64      1.0000 0.77490  0.70090  0.00830  Biso   1.000  O
  C189     1.0000 0.67870  0.83570  0.09870  Biso   1.000  C
  C190     1.0000 0.71540  0.81290  0.12440  Biso   1.000  C
  C191     1.0000 0.68780  0.80220  0.15890  Biso   1.000  C
  H160     1.0000 0.71280  0.78660  0.17650  Biso   1.000  H
  C192     1.0000 0.62340  0.81430  0.16770  Biso   1.000  C
  C193     1.0000 0.58670  0.83710  0.14200  Biso   1.000  C
  C194     1.0000 0.61430  0.84780  0.10750  Biso   1.000  C
  H161     1.0000 0.58910  0.86330  0.08990  Biso   1.000  H
  O65      1.0000 0.51920  0.83730  0.15180  Biso   1.000  O
  C195     1.0000 0.47950  0.86350  0.17300  Biso   1.000  C
  H162     1.0000 0.50390  0.88860  0.19620  Biso   1.000  H
  C196     1.0000 0.44440  0.90890  0.14720  Biso   1.000  C
  H163     1.0000 0.38580  0.88850  0.15150  Biso   1.000  H
  H164     1.0000 0.47510  0.96870  0.15040  Biso   1.000  H
  C197     1.0000 0.45900  0.88390  0.10940  Biso   1.000  C
  H165     1.0000 0.51760  0.90690  0.10550  Biso   1.000  H
  H166     1.0000 0.43700  0.90500  0.09160  Biso   1.000  H
  H167     1.0000 0.43150  0.82440  0.10770  Biso   1.000  H
  C198     1.0000 0.39510  0.78070  0.17210  Biso   1.000  C
  H168     1.0000 0.38900  0.75380  0.14940  Biso   1.000  H
  H169     1.0000 0.35050  0.79210  0.17520  Biso   1.000  H
  H170     1.0000 0.39370  0.74500  0.19100  Biso   1.000  H
  O66      1.0000 0.76680  0.78080  0.11100  Biso   1.000  O
  C199     1.0000 0.80100  0.74040  0.13520  Biso   1.000  C
  H171     1.0000 0.76000  0.68940  0.14730  Biso   1.000  H
  C200     1.0000 0.86000  0.73210  0.10970  Biso   1.000  C
  H172     1.0000 0.88560  0.70310  0.12070  Biso   1.000  H
  H173     1.0000 0.83230  0.70400  0.08770  Biso   1.000  H
  C201     1.0000 0.92040  0.82030  0.10350  Biso   1.000  C
  H174     1.0000 0.92880  0.83060  0.07820  Biso   1.000  H
  H175     1.0000 0.97230  0.83400  0.11470  Biso   1.000  H
  H176     1.0000 0.89970  0.85400  0.11360  Biso   1.000  H
  C202     1.0000 0.84470  0.81690  0.15810  Biso   1.000  C
  H177     1.0000 0.83950  0.86100  0.14730  Biso   1.000  H
  H178     1.0000 0.90240  0.83330  0.16000  Biso   1.000  H
  H179     1.0000 0.82000  0.80520  0.18150  Biso   1.000  H
  C203     1.0000 0.54070  0.90230  0.27560  Biso   1.000  C
  O67      1.0000 0.55730  0.96610  0.25510  Biso   1.000  O
  O68      1.0000 0.51140  0.88230  0.30650  Biso   1.000  O
  O69      1.0000 0.51710  0.63050  0.30520  Biso   1.000  O
  O70      1.0000 0.55780  0.59160  0.25736  Biso   1.000  O
  C204     1.0000 0.54470  0.64360  0.27220  Biso   1.000  C
  C205     1.0000 0.60550  0.80180  0.20638  Biso   1.000  C
  C206     1.0000 0.59000  0.73060  0.22340  Biso   1.000  C
  H180     1.0000 0.59670  0.69060  0.21120  Biso   1.000  H
  C207     1.0000 0.56470  0.71790  0.25820  Biso   1.000  C
  C208     1.0000 0.55480  0.77640  0.27608  Biso   1.000  C
  H181     1.0000 0.53760  0.76780  0.29990  Biso   1.000  H
  C209     1.0000 0.57030  0.84760  0.25900  Biso   1.000  C
  C210     1.0000 0.59560  0.86030  0.22420  Biso   1.000  C
  H182     1.0000 0.60620  0.90900  0.21250  Biso   1.000  H
  Zn15     1.0000 0.47507  0.52527  0.33327  Biso   1.000  Zn
  Zn16     1.0000 0.52527  0.47525  0.26793  Biso   1.000  Zn
  O71      1.0000 0.48317  0.37123  0.29533  Biso   1.000  O
  O72      1.0000 0.44407  0.40813  0.34343  Biso   1.000  O
  C211     1.0000 0.45757  0.36143  0.32453  Biso   1.000  C
  C212     1.0000 0.43597  0.28063  0.34479  Biso   1.000  C
  C213     1.0000 0.45257  0.22583  0.32764  Biso   1.000  C
  H183     1.0000 0.47357  0.23683  0.30433  Biso   1.000  H
  C214     1.0000 0.43857  0.15493  0.34453  Biso   1.000  C
  C215     1.0000 0.40787  0.13883  0.37857  Biso   1.000  C
  H184     1.0000 0.39837  0.09043  0.39013  Biso   1.000  H
  C216     1.0000 0.39127  0.19363  0.39573  Biso   1.000  C
  C217     1.0000 0.40527  0.26453  0.37883  Biso   1.000  C
  H185     1.0000 0.39397  0.30203  0.39053  Biso   1.000  H
  C218     1.0000 0.45217  0.09273  0.32683  Biso   1.000  C
  O73      1.0000 0.47517  0.10723  0.29533  Biso   1.000  O
  O74      1.0000 0.44157  0.03423  0.34163  Biso   1.000  O
  C219     1.0000 0.34537  0.16903  0.43203  Biso   1.000  C
  C220     1.0000 0.38207  0.14623  0.45773  Biso   1.000  C
  C221     1.0000 0.35447  0.13553  0.49223  Biso   1.000  C
  H186     1.0000 0.37947  0.11993  0.50983  Biso   1.000  H
  C222     1.0000 0.29007  0.14763  0.50103  Biso   1.000  C
  C223     1.0000 0.25337  0.17043  0.47533  Biso   1.000  C
  C224     1.0000 0.28097  0.18113  0.44083  Biso   1.000  C
  H187     1.0000 0.25577  0.19663  0.42323  Biso   1.000  H
  O75      1.0000 0.18587  0.17063  0.48513  Biso   1.000  O
  C225     1.0000 0.14617  0.19683  0.50633  Biso   1.000  C
  H188     1.0000 0.17057  0.22193  0.52953  Biso   1.000  H
  C226     1.0000 0.11107  0.24223  0.48053  Biso   1.000  C
  H189     1.0000 0.05247  0.22183  0.48483  Biso   1.000  H
  H190     1.0000 0.14177  0.30203  0.48373  Biso   1.000  H
  C227     1.0000 0.12567  0.21723  0.44273  Biso   1.000  C
  H191     1.0000 0.18427  0.24023  0.43883  Biso   1.000  H
  H192     1.0000 0.10367  0.23833  0.42493  Biso   1.000  H
  H193     1.0000 0.09817  0.15773  0.44103  Biso   1.000  H
  C228     1.0000 0.06177  0.11403  0.50543  Biso   1.000  C
  H194     1.0000 0.05567  0.08713  0.48273  Biso   1.000  H
  H195     1.0000 0.01717  0.12543  0.50853  Biso   1.000  H
  H196     1.0000 0.06037  0.07833  0.52433  Biso   1.000  H
  O76      1.0000 0.43347  0.11413  0.44433  Biso   1.000  O
  C229     1.0000 0.46767  0.07373  0.46853  Biso   1.000  C
  H197     1.0000 0.42667  0.02273  0.48063  Biso   1.000  H
  C230     1.0000 0.52667  0.06543  0.44303  Biso   1.000  C
  H198     1.0000 0.55227  0.03643  0.45403  Biso   1.000  H
  H199     1.0000 0.49897  0.03733  0.42103  Biso   1.000  H
  C231     1.0000 0.58707  0.15363  0.43683  Biso   1.000  C
  H200     1.0000 0.59547  0.16393  0.41153  Biso   1.000  H
  H201     1.0000 0.63897  0.16733  0.44803  Biso   1.000  H
  H202     1.0000 0.56637  0.18733  0.44693  Biso   1.000  H
  C232     1.0000 0.51137  0.15023  0.49143  Biso   1.000  C
  H203     1.0000 0.50617  0.19433  0.48063  Biso   1.000  H
  H204     1.0000 0.56907  0.16663  0.49333  Biso   1.000  H
  H205     1.0000 0.48667  0.13853  0.51483  Biso   1.000  H
  C233     1.0000 0.20737  0.23563  0.60893  Biso   1.000  C
  O77      1.0000 0.22397  0.29943  0.58843  Biso   1.000  O
  O78      1.0000 0.17807  0.21563  0.63983  Biso   1.000  O
  O79      1.0000 0.18377  0.96383  0.63853  Biso   1.000  O
  O80      1.0000 0.22447  0.92493  0.59069  Biso   1.000  O
  C234     1.0000 0.21137  0.97693  0.60553  Biso   1.000  C
  C235     1.0000 0.27217  0.13513  0.53971  Biso   1.000  C
  C236     1.0000 0.25667  0.06393  0.55673  Biso   1.000  C
  H206     1.0000 0.26337  0.02393  0.54453  Biso   1.000  H
  C237     1.0000 0.23137  0.05123  0.59153  Biso   1.000  C
  C238     1.0000 0.22147  0.10973  0.60941  Biso   1.000  C
  H207     1.0000 0.20427  0.10113  0.63323  Biso   1.000  H
  C239     1.0000 0.23697  0.18093  0.59233  Biso   1.000  C
  C240     1.0000 0.26227  0.19363  0.55753  Biso   1.000  C
  H208     1.0000 0.27287  0.24233  0.54583  Biso   1.000  H
  Zn17     1.0000 0.14173  0.85861  0.66661  Biso   1.000  Zn
  Zn18     1.0000 0.19193  0.80859  0.60127  Biso   1.000  Zn
  O81      1.0000 0.14983  0.70457  0.62867  Biso   1.000  O
  O82      1.0000 0.11073  0.74147  0.67677  Biso   1.000  O
  C241     1.0000 0.12423  0.69477  0.65787  Biso   1.000  C
  C242     1.0000 0.10263  0.61397  0.67813  Biso   1.000  C
  C243     1.0000 0.11923  0.55917  0.66098  Biso   1.000  C
  H209     1.0000 0.14023  0.57017  0.63767  Biso   1.000  H
  C244     1.0000 0.10523  0.48827  0.67787  Biso   1.000  C
  C245     1.0000 0.07453  0.47217  0.71191  Biso   1.000  C
  H210     1.0000 0.06503  0.42377  0.72347  Biso   1.000  H
  C246     1.0000 0.05793  0.52697  0.72907  Biso   1.000  C
  C247     1.0000 0.07193  0.59787  0.71217  Biso   1.000  C
  H211     1.0000 0.06063  0.63537  0.72387  Biso   1.000  H
  C248     1.0000 0.11883  0.42607  0.66017  Biso   1.000  C
  O83      1.0000 0.14183  0.44057  0.62867  Biso   1.000  O
  O84      1.0000 0.10823  0.36757  0.67497  Biso   1.000  O
  C249     1.0000 0.01203  0.50237  0.76537  Biso   1.000  C
  C250     1.0000 0.04873  0.47957  0.79107  Biso   1.000  C
  C251     1.0000 0.02113  0.46887  0.82557  Biso   1.000  C
  H212     1.0000 0.04613  0.45327  0.84317  Biso   1.000  H
  C252     1.0000 0.95673  0.48097  0.83437  Biso   1.000  C
  C253     1.0000 0.92003  0.50377  0.80867  Biso   1.000  C
  C254     1.0000 0.94763  0.51447  0.77417  Biso   1.000  C
  H213     1.0000 0.92243  0.52997  0.75657  Biso   1.000  H
  O85      1.0000 0.85253  0.50397  0.81847  Biso   1.000  O
  C255     1.0000 0.81283  0.53017  0.83967  Biso   1.000  C
  H214     1.0000 0.83723  0.55527  0.86287  Biso   1.000  H
  C256     1.0000 0.77773  0.57557  0.81387  Biso   1.000  C
  H215     1.0000 0.71913  0.55517  0.81817  Biso   1.000  H
  H216     1.0000 0.80843  0.63537  0.81707  Biso   1.000  H
  C257     1.0000 0.79233  0.55057  0.77607  Biso   1.000  C
  H217     1.0000 0.85093  0.57357  0.77217  Biso   1.000  H
  H218     1.0000 0.77033  0.57167  0.75827  Biso   1.000  H
  H219     1.0000 0.76483  0.49107  0.77437  Biso   1.000  H
  C258     1.0000 0.72843  0.44737  0.83877  Biso   1.000  C
  H220     1.0000 0.72233  0.42047  0.81607  Biso   1.000  H
  H221     1.0000 0.68383  0.45877  0.84187  Biso   1.000  H
  H222     1.0000 0.72703  0.41167  0.85767  Biso   1.000  H
  O86      1.0000 0.10013  0.44747  0.77767  Biso   1.000  O
  C259     1.0000 0.13433  0.40707  0.80187  Biso   1.000  C
  H223     1.0000 0.09333  0.35607  0.81397  Biso   1.000  H
  C260     1.0000 0.19333  0.39877  0.77637  Biso   1.000  C
  H224     1.0000 0.21893  0.36977  0.78737  Biso   1.000  H
  H225     1.0000 0.16563  0.37067  0.75437  Biso   1.000  H
  C261     1.0000 0.25373  0.48697  0.77017  Biso   1.000  C
  H226     1.0000 0.26213  0.49727  0.74487  Biso   1.000  H
  H227     1.0000 0.30563  0.50067  0.78137  Biso   1.000  H
  H228     1.0000 0.23303  0.52067  0.78027  Biso   1.000  H
  C262     1.0000 0.17803  0.48357  0.82477  Biso   1.000  C
  H229     1.0000 0.17283  0.52767  0.81397  Biso   1.000  H
  H230     1.0000 0.23573  0.49997  0.82667  Biso   1.000  H
  H231     1.0000 0.15333  0.47187  0.84817  Biso   1.000  H
  C263     1.0000 0.87403  0.56897  0.94227  Biso   1.000  C
  O87      1.0000 0.89063  0.63277  0.92177  Biso   1.000  O
  O88      1.0000 0.84473  0.54897  0.97317  Biso   1.000  O
  O89      1.0000 0.85043  0.29717  0.97187  Biso   1.000  O
  O90      1.0000 0.89113  0.25827  0.92403  Biso   1.000  O
  C264     1.0000 0.87803  0.31027  0.93887  Biso   1.000  C
  C265     1.0000 0.93883  0.46847  0.87305  Biso   1.000  C
  C266     1.0000 0.92333  0.39727  0.89007  Biso   1.000  C
  H232     1.0000 0.93003  0.35727  0.87787  Biso   1.000  H
  C267     1.0000 0.89803  0.38457  0.92487  Biso   1.000  C
  C268     1.0000 0.88813  0.44307  0.94275  Biso   1.000  C
  H233     1.0000 0.87093  0.43447  0.96657  Biso   1.000  H
  C269     1.0000 0.90363  0.51427  0.92567  Biso   1.000  C
  C270     1.0000 0.92893  0.52697  0.89087  Biso   1.000  C
  H234     1.0000 0.93953  0.57567  0.87917  Biso   1.000  H
