data_image0
_cell_length_a       18.8323
_cell_length_b       18.8323
_cell_length_c       38.4958
_cell_angle_alpha    90
_cell_angle_beta     90
_cell_angle_gamma    120

_symmetry_space_group_name_H-M    "P 1"
_symmetry_int_tables_number       1

loop_
  _symmetry_equiv_pos_as_xyz
  'x, y, z'

loop_
  _atom_site_label
  _atom_site_occupancy
  _atom_site_fract_x
  _atom_site_fract_y
  _atom_site_fract_z
  _atom_site_thermal_displace_type
  _atom_site_B_iso_or_equiv
  _atom_site_type_symbol
  Zn1      1.0000 0.80750  0.61532  0.99940  Biso   1.000  Zn
  Zn2      1.0000 0.85916  0.71830  0.93531  Biso   1.000  Zn
  O1       1.0000 0.96630  0.77590  0.96490  Biso   1.000  O
  O2       1.0000 0.92570  0.69520  0.01070  Biso   1.000  O
  C1       1.0000 0.97370  0.75930  0.99550  Biso   1.000  C
  C2       1.0000 0.05040  0.82090  0.01265  Biso   1.000  C
  C3       1.0000 0.10530  0.89360  0.99613  Biso   1.000  C
  H1       1.0000 0.09400  0.90460  0.97330  Biso   1.000  H
  C4       1.0000 0.17670  0.95020  0.01300  Biso   1.000  C
  C5       1.0000 0.19320  0.93420  0.04630  Biso   1.000  C
  H2       1.0000 0.24200  0.97290  0.05790  Biso   1.000  H
  C6       1.0000 0.13830  0.86150  0.06286  Biso   1.000  C
  C7       1.0000 0.06690  0.80480  0.04602  Biso   1.000  C
  H3       1.0000 0.02940  0.75510  0.05730  Biso   1.000  H
  C8       1.0000 0.24340  0.03310  0.99740  Biso   1.000  C
  O3       1.0000 0.22150  0.03950  0.96260  Biso   1.000  O
  O4       1.0000 0.31090  0.08140  0.01230  Biso   1.000  O
  C9       1.0000 0.16720  0.84290  0.09670  Biso   1.000  C
  C10      1.0000 0.18640  0.90280  0.12190  Biso   1.000  C
  C11      1.0000 0.19580  0.88690  0.15630  Biso   1.000  C
  H4       1.0000 0.20900  0.92780  0.17350  Biso   1.000  H
  C12      1.0000 0.18600  0.81110  0.16560  Biso   1.000  C
  C13      1.0000 0.16670  0.75130  0.14040  Biso   1.000  C
  C14      1.0000 0.15730  0.76710  0.10600  Biso   1.000  C
  H5       1.0000 0.14420  0.72620  0.08880  Biso   1.000  H
  O5       1.0000 0.15010  0.67080  0.15070  Biso   1.000  O
  C15      1.0000 0.17960  0.61530  0.16480  Biso   1.000  C
  H6       1.0000 0.20380  0.59840  0.14600  Biso   1.000  H
  H7       1.0000 0.22190  0.64410  0.18290  Biso   1.000  H
  C16      1.0000 0.10780  0.54320  0.17970  Biso   1.000  C
  H8       1.0000 0.06650  0.55800  0.18780  Biso   1.000  H
  C17      1.0000 0.06900  0.47270  0.15270  Biso   1.000  C
  C18      1.0000 0.13490  0.50790  0.21050  Biso   1.000  C
  C19      1.0000 0.14490  0.45250  0.14950  Biso   1.000  C
  O6       1.0000 0.22540  0.99310  0.11600  Biso   1.000  O
  C20      1.0000 0.23400  0.04650  0.14550  Biso   1.000  C
  H9       1.0000 0.28740  0.06630  0.15730  Biso   1.000  H
  H10      1.0000 0.18950  0.01670  0.16260  Biso   1.000  H
  C21      1.0000 0.22860  0.11720  0.12990  Biso   1.000  C
  H11      1.0000 0.17620  0.09400  0.11660  Biso   1.000  H
  C22      1.0000 0.23370  0.18510  0.15350  Biso   1.000  C
  C23      1.0000 0.29860  0.15530  0.10420  Biso   1.000  C
  O7       1.0000 0.03400  0.59140  0.25761  Biso   1.000  O
  O8       1.0000 0.11170  0.63370  0.30300  Biso   1.000  O
  C24      1.0000 0.09660  0.64560  0.27590  Biso   1.000  C
  O9       1.0000 0.36900  0.88650  0.30490  Biso   1.000  O
  O10      1.0000 0.41030  0.96510  0.25670  Biso   1.000  O
  C25      1.0000 0.35820  0.90090  0.27460  Biso   1.000  C
  C26      1.0000 0.19700  0.80530  0.20607  Biso   1.000  C
  C27      1.0000 0.26820  0.86130  0.22321  Biso   1.000  C
  H12      1.0000 0.30830  0.90890  0.21140  Biso   1.000  H
  C28      1.0000 0.28070  0.84760  0.25750  Biso   1.000  C
  C29      1.0000 0.22200  0.77800  0.27480  Biso   1.000  C
  H13      1.0000 0.23050  0.76870  0.29830  Biso   1.000  H
  C30      1.0000 0.15070  0.72210  0.25760  Biso   1.000  C
  C31      1.0000 0.13820  0.73570  0.22330  Biso   1.000  C
  H14      1.0000 0.08950  0.69750  0.21160  Biso   1.000  H
  Zn3      1.0000 0.47417  0.94865  0.33273  Biso   1.000  Zn
  Zn4      1.0000 0.52583  0.05163  0.26864  Biso   1.000  Zn
  O11      1.0000 0.63297  0.10923  0.29823  Biso   1.000  O
  O12      1.0000 0.59237  0.02853  0.34403  Biso   1.000  O
  C32      1.0000 0.64037  0.09263  0.32883  Biso   1.000  C
  C33      1.0000 0.71707  0.15423  0.34598  Biso   1.000  C
  C34      1.0000 0.77197  0.22693  0.32946  Biso   1.000  C
  H15      1.0000 0.76067  0.23793  0.30663  Biso   1.000  H
  C35      1.0000 0.84337  0.28353  0.34633  Biso   1.000  C
  C36      1.0000 0.85987  0.26753  0.37963  Biso   1.000  C
  H16      1.0000 0.90867  0.30623  0.39123  Biso   1.000  H
  C37      1.0000 0.80497  0.19483  0.39619  Biso   1.000  C
  C38      1.0000 0.73357  0.13813  0.37935  Biso   1.000  C
  H17      1.0000 0.69607  0.08843  0.39063  Biso   1.000  H
  C39      1.0000 0.91007  0.36643  0.33073  Biso   1.000  C
  O13      1.0000 0.88817  0.37283  0.29593  Biso   1.000  O
  O14      1.0000 0.97757  0.41473  0.34563  Biso   1.000  O
  C40      1.0000 0.83387  0.17623  0.43003  Biso   1.000  C
  C41      1.0000 0.85307  0.23613  0.45523  Biso   1.000  C
  C42      1.0000 0.86247  0.22023  0.48963  Biso   1.000  C
  H18      1.0000 0.87567  0.26113  0.50683  Biso   1.000  H
  C43      1.0000 0.85267  0.14443  0.49893  Biso   1.000  C
  C44      1.0000 0.83337  0.08463  0.47373  Biso   1.000  C
  C45      1.0000 0.82397  0.10043  0.43933  Biso   1.000  C
  H19      1.0000 0.81087  0.05953  0.42213  Biso   1.000  H
  O15      1.0000 0.81677  0.00413  0.48403  Biso   1.000  O
  C46      1.0000 0.84627  0.94863  0.49813  Biso   1.000  C
  H20      1.0000 0.87047  0.93173  0.47933  Biso   1.000  H
  H21      1.0000 0.88857  0.97743  0.51623  Biso   1.000  H
  C47      1.0000 0.77447  0.87653  0.51303  Biso   1.000  C
  H22      1.0000 0.73317  0.89133  0.52113  Biso   1.000  H
  C48      1.0000 0.73567  0.80603  0.48603  Biso   1.000  C
  C49      1.0000 0.80157  0.84123  0.54383  Biso   1.000  C
  C50      1.0000 0.81157  0.78583  0.48283  Biso   1.000  C
  O16      1.0000 0.89207  0.32643  0.44933  Biso   1.000  O
  C51      1.0000 0.90067  0.37983  0.47883  Biso   1.000  C
  H23      1.0000 0.95407  0.39963  0.49063  Biso   1.000  H
  H24      1.0000 0.85617  0.35003  0.49593  Biso   1.000  H
  C52      1.0000 0.89527  0.45053  0.46323  Biso   1.000  C
  H25      1.0000 0.84287  0.42733  0.44993  Biso   1.000  H
  C53      1.0000 0.90037  0.51843  0.48683  Biso   1.000  C
  C54      1.0000 0.96527  0.48863  0.43753  Biso   1.000  C
  O17      1.0000 0.70067  0.92473  0.59094  Biso   1.000  O
  O18      1.0000 0.77837  0.96703  0.63633  Biso   1.000  O
  C55      1.0000 0.76327  0.97893  0.60923  Biso   1.000  C
  O19      1.0000 0.03567  0.21983  0.63823  Biso   1.000  O
  O20      1.0000 0.07697  0.29843  0.59003  Biso   1.000  O
  C56      1.0000 0.02487  0.23423  0.60793  Biso   1.000  C
  C57      1.0000 0.86367  0.13863  0.53940  Biso   1.000  C
  C58      1.0000 0.93487  0.19463  0.55654  Biso   1.000  C
  H26      1.0000 0.97497  0.24223  0.54473  Biso   1.000  H
  C59      1.0000 0.94737  0.18093  0.59083  Biso   1.000  C
  C60      1.0000 0.88867  0.11133  0.60813  Biso   1.000  C
  H27      1.0000 0.89717  0.10203  0.63163  Biso   1.000  H
  C61      1.0000 0.81737  0.05543  0.59093  Biso   1.000  C
  C62      1.0000 0.80487  0.06903  0.55663  Biso   1.000  C
  H28      1.0000 0.75617  0.03083  0.54493  Biso   1.000  H
  Zn5      1.0000 0.14083  0.28199  0.66607  Biso   1.000  Zn
  Zn6      1.0000 0.19249  0.38497  0.60198  Biso   1.000  Zn
  O21      1.0000 0.29963  0.44257  0.63157  Biso   1.000  O
  O22      1.0000 0.25903  0.36187  0.67737  Biso   1.000  O
  C63      1.0000 0.30703  0.42597  0.66217  Biso   1.000  C
  C64      1.0000 0.38373  0.48757  0.67932  Biso   1.000  C
  C65      1.0000 0.43863  0.56027  0.66280  Biso   1.000  C
  H29      1.0000 0.42733  0.57127  0.63997  Biso   1.000  H
  C66      1.0000 0.51003  0.61687  0.67967  Biso   1.000  C
  C67      1.0000 0.52653  0.60087  0.71297  Biso   1.000  C
  H30      1.0000 0.57533  0.63957  0.72457  Biso   1.000  H
  C68      1.0000 0.47163  0.52817  0.72953  Biso   1.000  C
  C69      1.0000 0.40023  0.47147  0.71269  Biso   1.000  C
  H31      1.0000 0.36273  0.42177  0.72397  Biso   1.000  H
  C70      1.0000 0.57673  0.69977  0.66407  Biso   1.000  C
  O23      1.0000 0.55483  0.70617  0.62927  Biso   1.000  O
  O24      1.0000 0.64423  0.74807  0.67897  Biso   1.000  O
  C71      1.0000 0.50053  0.50957  0.76337  Biso   1.000  C
  C72      1.0000 0.51973  0.56947  0.78857  Biso   1.000  C
  C73      1.0000 0.52913  0.55357  0.82297  Biso   1.000  C
  H32      1.0000 0.54233  0.59447  0.84017  Biso   1.000  H
  C74      1.0000 0.51933  0.47777  0.83227  Biso   1.000  C
  C75      1.0000 0.50003  0.41797  0.80707  Biso   1.000  C
  C76      1.0000 0.49063  0.43377  0.77267  Biso   1.000  C
  H33      1.0000 0.47753  0.39287  0.75547  Biso   1.000  H
  O25      1.0000 0.48343  0.33747  0.81737  Biso   1.000  O
  C77      1.0000 0.51293  0.28197  0.83147  Biso   1.000  C
  H34      1.0000 0.53713  0.26507  0.81267  Biso   1.000  H
  H35      1.0000 0.55523  0.31077  0.84957  Biso   1.000  H
  C78      1.0000 0.44113  0.20987  0.84637  Biso   1.000  C
  H36      1.0000 0.39983  0.22467  0.85447  Biso   1.000  H
  C79      1.0000 0.40233  0.13937  0.81937  Biso   1.000  C
  C80      1.0000 0.46823  0.17457  0.87717  Biso   1.000  C
  C81      1.0000 0.47823  0.11917  0.81617  Biso   1.000  C
  O26      1.0000 0.55873  0.65977  0.78267  Biso   1.000  O
  C82      1.0000 0.56733  0.71317  0.81217  Biso   1.000  C
  H37      1.0000 0.62073  0.73297  0.82397  Biso   1.000  H
  H38      1.0000 0.52283  0.68337  0.82927  Biso   1.000  H
  C83      1.0000 0.56193  0.78387  0.79657  Biso   1.000  C
  H39      1.0000 0.50953  0.76067  0.78327  Biso   1.000  H
  C84      1.0000 0.56703  0.85177  0.82017  Biso   1.000  C
  C85      1.0000 0.63193  0.82197  0.77087  Biso   1.000  C
  O27      1.0000 0.36733  0.25807  0.92428  Biso   1.000  O
  O28      1.0000 0.44503  0.30037  0.96967  Biso   1.000  O
  C86      1.0000 0.42993  0.31227  0.94257  Biso   1.000  C
  O29      1.0000 0.70233  0.55317  0.97157  Biso   1.000  O
  O30      1.0000 0.74363  0.63177  0.92337  Biso   1.000  O
  C87      1.0000 0.69153  0.56757  0.94127  Biso   1.000  C
  C88      1.0000 0.53033  0.47197  0.87274  Biso   1.000  C
  C89      1.0000 0.60153  0.52797  0.88988  Biso   1.000  C
  H40      1.0000 0.64163  0.57557  0.87807  Biso   1.000  H
  C90      1.0000 0.61403  0.51427  0.92417  Biso   1.000  C
  C91      1.0000 0.55533  0.44467  0.94147  Biso   1.000  C
  H41      1.0000 0.56383  0.43537  0.96497  Biso   1.000  H
  C92      1.0000 0.48403  0.38877  0.92427  Biso   1.000  C
  C93      1.0000 0.47153  0.40237  0.88997  Biso   1.000  C
  H42      1.0000 0.42283  0.36417  0.87827  Biso   1.000  H
  Zn7      1.0000 0.38468  0.19218  0.99940  Biso   1.000  Zn
  Zn8      1.0000 0.28170  0.14086  0.93531  Biso   1.000  Zn
  O31      1.0000 0.22410  0.19040  0.96490  Biso   1.000  O
  O32      1.0000 0.30480  0.23050  0.01070  Biso   1.000  O
  C94      1.0000 0.24070  0.21440  0.99550  Biso   1.000  C
  C95      1.0000 0.17910  0.22950  0.01265  Biso   1.000  C
  C96      1.0000 0.10640  0.21170  0.99613  Biso   1.000  C
  H43      1.0000 0.09540  0.18940  0.97330  Biso   1.000  H
  C97      1.0000 0.04980  0.22650  0.01300  Biso   1.000  C
  C98      1.0000 0.06580  0.25900  0.04630  Biso   1.000  C
  H44      1.0000 0.02710  0.26910  0.05790  Biso   1.000  H
  C99      1.0000 0.13850  0.27680  0.06286  Biso   1.000  C
  C100     1.0000 0.19520  0.26210  0.04602  Biso   1.000  C
  H45      1.0000 0.24490  0.27430  0.05730  Biso   1.000  H
  C101     1.0000 0.96690  0.21030  0.99740  Biso   1.000  C
  O33      1.0000 0.96050  0.18200  0.96260  Biso   1.000  O
  O34      1.0000 0.91860  0.22950  0.01230  Biso   1.000  O
  C102     1.0000 0.15710  0.32430  0.09670  Biso   1.000  C
  C103     1.0000 0.09720  0.28360  0.12190  Biso   1.000  C
  C104     1.0000 0.11310  0.30890  0.15630  Biso   1.000  C
  H46      1.0000 0.07220  0.28120  0.17350  Biso   1.000  H
  C105     1.0000 0.18890  0.37490  0.16560  Biso   1.000  C
  C106     1.0000 0.24870  0.41540  0.14040  Biso   1.000  C
  C107     1.0000 0.23290  0.39020  0.10600  Biso   1.000  C
  H47      1.0000 0.27380  0.41800  0.08880  Biso   1.000  H
  O35      1.0000 0.32920  0.47930  0.15070  Biso   1.000  O
  C108     1.0000 0.38470  0.56430  0.16480  Biso   1.000  C
  H48      1.0000 0.40160  0.60540  0.14600  Biso   1.000  H
  H49      1.0000 0.35590  0.57780  0.18290  Biso   1.000  H
  C109     1.0000 0.45680  0.56460  0.17970  Biso   1.000  C
  H50      1.0000 0.44200  0.50850  0.18780  Biso   1.000  H
  C110     1.0000 0.52730  0.59630  0.15270  Biso   1.000  C
  C111     1.0000 0.49210  0.62700  0.21050  Biso   1.000  C
  C112     1.0000 0.54750  0.69240  0.14950  Biso   1.000  C
  O36      1.0000 0.00690  0.23230  0.11600  Biso   1.000  O
  C113     1.0000 0.95350  0.18750  0.14550  Biso   1.000  C
  H51      1.0000 0.93370  0.22110  0.15730  Biso   1.000  H
  H52      1.0000 0.98330  0.17280  0.16260  Biso   1.000  H
  C114     1.0000 0.88280  0.11140  0.12990  Biso   1.000  C
  H53      1.0000 0.90600  0.08220  0.11660  Biso   1.000  H
  C115     1.0000 0.81490  0.04860  0.15350  Biso   1.000  C
  C116     1.0000 0.84470  0.14330  0.10420  Biso   1.000  C
  O37      1.0000 0.40860  0.44260  0.25761  Biso   1.000  O
  O38      1.0000 0.36630  0.47800  0.30300  Biso   1.000  O
  C117     1.0000 0.35440  0.45100  0.27590  Biso   1.000  C
  O39      1.0000 0.11350  0.48250  0.30490  Biso   1.000  O
  O40      1.0000 0.03490  0.44520  0.25670  Biso   1.000  O
  C118     1.0000 0.09910  0.45730  0.27460  Biso   1.000  C
  C119     1.0000 0.19470  0.39170  0.20607  Biso   1.000  C
  C120     1.0000 0.13870  0.40690  0.22321  Biso   1.000  C
  H54      1.0000 0.09110  0.39940  0.21140  Biso   1.000  H
  C121     1.0000 0.15240  0.43310  0.25750  Biso   1.000  C
  C122     1.0000 0.22200  0.44400  0.27480  Biso   1.000  C
  H55      1.0000 0.23130  0.46180  0.29830  Biso   1.000  H
  C123     1.0000 0.27790  0.42860  0.25760  Biso   1.000  C
  C124     1.0000 0.26430  0.40250  0.22330  Biso   1.000  C
  H56      1.0000 0.30250  0.39200  0.21160  Biso   1.000  H
  Zn9      1.0000 0.05135  0.52551  0.33273  Biso   1.000  Zn
  Zn10     1.0000 0.94837  0.47419  0.26864  Biso   1.000  Zn
  O41      1.0000 0.89077  0.52373  0.29823  Biso   1.000  O
  O42      1.0000 0.97147  0.56383  0.34403  Biso   1.000  O
  C125     1.0000 0.90737  0.54773  0.32883  Biso   1.000  C
  C126     1.0000 0.84577  0.56283  0.34598  Biso   1.000  C
  C127     1.0000 0.77307  0.54503  0.32946  Biso   1.000  C
  H57      1.0000 0.76207  0.52273  0.30663  Biso   1.000  H
  C128     1.0000 0.71647  0.55983  0.34633  Biso   1.000  C
  C129     1.0000 0.73247  0.59233  0.37963  Biso   1.000  C
  H58      1.0000 0.69377  0.60243  0.39123  Biso   1.000  H
  C130     1.0000 0.80517  0.61013  0.39619  Biso   1.000  C
  C131     1.0000 0.86187  0.59543  0.37935  Biso   1.000  C
  H59      1.0000 0.91157  0.60763  0.39063  Biso   1.000  H
  C132     1.0000 0.63357  0.54363  0.33073  Biso   1.000  C
  O43      1.0000 0.62717  0.51533  0.29593  Biso   1.000  O
  O44      1.0000 0.58527  0.56283  0.34563  Biso   1.000  O
  C133     1.0000 0.82377  0.65763  0.43003  Biso   1.000  C
  C134     1.0000 0.76387  0.61693  0.45523  Biso   1.000  C
  C135     1.0000 0.77977  0.64223  0.48963  Biso   1.000  C
  H60      1.0000 0.73887  0.61453  0.50683  Biso   1.000  H
  C136     1.0000 0.85557  0.70823  0.49893  Biso   1.000  C
  C137     1.0000 0.91537  0.74873  0.47373  Biso   1.000  C
  C138     1.0000 0.89957  0.72353  0.43933  Biso   1.000  C
  H61      1.0000 0.94047  0.75133  0.42213  Biso   1.000  H
  O45      1.0000 0.99587  0.81263  0.48403  Biso   1.000  O
  C139     1.0000 0.05137  0.89763  0.49813  Biso   1.000  C
  H62      1.0000 0.06827  0.93873  0.47933  Biso   1.000  H
  H63      1.0000 0.02257  0.91113  0.51623  Biso   1.000  H
  C140     1.0000 0.12347  0.89793  0.51303  Biso   1.000  C
  H64      1.0000 0.10867  0.84183  0.52113  Biso   1.000  H
  C141     1.0000 0.19397  0.92963  0.48603  Biso   1.000  C
  C142     1.0000 0.15877  0.96033  0.54383  Biso   1.000  C
  C143     1.0000 0.21417  0.02573  0.48283  Biso   1.000  C
  O46      1.0000 0.67357  0.56563  0.44933  Biso   1.000  O
  C144     1.0000 0.62017  0.52083  0.47883  Biso   1.000  C
  H65      1.0000 0.60037  0.55443  0.49063  Biso   1.000  H
  H66      1.0000 0.64997  0.50613  0.49593  Biso   1.000  H
  C145     1.0000 0.54947  0.44473  0.46323  Biso   1.000  C
  H67      1.0000 0.57267  0.41553  0.44993  Biso   1.000  H
  C146     1.0000 0.48157  0.38193  0.48683  Biso   1.000  C
  C147     1.0000 0.51137  0.47663  0.43753  Biso   1.000  C
  O47      1.0000 0.07527  0.77593  0.59094  Biso   1.000  O
  O48      1.0000 0.03297  0.81133  0.63633  Biso   1.000  O
  C148     1.0000 0.02107  0.78433  0.60923  Biso   1.000  C
  O49      1.0000 0.78017  0.81583  0.63823  Biso   1.000  O
  O50      1.0000 0.70157  0.77853  0.59003  Biso   1.000  O
  C149     1.0000 0.76577  0.79063  0.60793  Biso   1.000  C
  C150     1.0000 0.86137  0.72503  0.53940  Biso   1.000  C
  C151     1.0000 0.80537  0.74023  0.55654  Biso   1.000  C
  H68      1.0000 0.75777  0.73273  0.54473  Biso   1.000  H
  C152     1.0000 0.81907  0.76643  0.59083  Biso   1.000  C
  C153     1.0000 0.88867  0.77733  0.60813  Biso   1.000  C
  H69      1.0000 0.89797  0.79513  0.63163  Biso   1.000  H
  C154     1.0000 0.94457  0.76193  0.59093  Biso   1.000  C
  C155     1.0000 0.93097  0.73583  0.55663  Biso   1.000  C
  H70      1.0000 0.96917  0.72533  0.54493  Biso   1.000  H
  Zn11     1.0000 0.71801  0.85885  0.66607  Biso   1.000  Zn
  Zn12     1.0000 0.61503  0.80753  0.60198  Biso   1.000  Zn
  O51      1.0000 0.55743  0.85707  0.63157  Biso   1.000  O
  O52      1.0000 0.63813  0.89717  0.67737  Biso   1.000  O
  C156     1.0000 0.57403  0.88107  0.66217  Biso   1.000  C
  C157     1.0000 0.51243  0.89617  0.67932  Biso   1.000  C
  C158     1.0000 0.43973  0.87837  0.66280  Biso   1.000  C
  H71      1.0000 0.42873  0.85607  0.63997  Biso   1.000  H
  C159     1.0000 0.38313  0.89317  0.67967  Biso   1.000  C
  C160     1.0000 0.39913  0.92567  0.71297  Biso   1.000  C
  H72      1.0000 0.36043  0.93577  0.72457  Biso   1.000  H
  C161     1.0000 0.47183  0.94347  0.72953  Biso   1.000  C
  C162     1.0000 0.52853  0.92877  0.71269  Biso   1.000  C
  H73      1.0000 0.57823  0.94097  0.72397  Biso   1.000  H
  C163     1.0000 0.30023  0.87697  0.66407  Biso   1.000  C
  O53      1.0000 0.29383  0.84867  0.62927  Biso   1.000  O
  O54      1.0000 0.25193  0.89617  0.67897  Biso   1.000  O
  C164     1.0000 0.49043  0.99097  0.76337  Biso   1.000  C
  C165     1.0000 0.43053  0.95027  0.78857  Biso   1.000  C
  C166     1.0000 0.44643  0.97557  0.82297  Biso   1.000  C
  H74      1.0000 0.40553  0.94787  0.84017  Biso   1.000  H
  C167     1.0000 0.52223  0.04157  0.83227  Biso   1.000  C
  C168     1.0000 0.58203  0.08207  0.80707  Biso   1.000  C
  C169     1.0000 0.56623  0.05687  0.77267  Biso   1.000  C
  H75      1.0000 0.60713  0.08467  0.75547  Biso   1.000  H
  O55      1.0000 0.66253  0.14597  0.81737  Biso   1.000  O
  C170     1.0000 0.71803  0.23097  0.83147  Biso   1.000  C
  H76      1.0000 0.73493  0.27207  0.81267  Biso   1.000  H
  H77      1.0000 0.68923  0.24447  0.84957  Biso   1.000  H
  C171     1.0000 0.79013  0.23127  0.84637  Biso   1.000  C
  H78      1.0000 0.77533  0.17517  0.85447  Biso   1.000  H
  C172     1.0000 0.86063  0.26297  0.81937  Biso   1.000  C
  C173     1.0000 0.82543  0.29367  0.87717  Biso   1.000  C
  C174     1.0000 0.88083  0.35907  0.81617  Biso   1.000  C
  O56      1.0000 0.34023  0.89897  0.78267  Biso   1.000  O
  C175     1.0000 0.28683  0.85417  0.81217  Biso   1.000  C
  H79      1.0000 0.26703  0.88777  0.82397  Biso   1.000  H
  H80      1.0000 0.31663  0.83947  0.82927  Biso   1.000  H
  C176     1.0000 0.21613  0.77807  0.79657  Biso   1.000  C
  H81      1.0000 0.23933  0.74887  0.78327  Biso   1.000  H
  C177     1.0000 0.14823  0.71527  0.82017  Biso   1.000  C
  C178     1.0000 0.17803  0.80997  0.77087  Biso   1.000  C
  O57      1.0000 0.74193  0.10927  0.92428  Biso   1.000  O
  O58      1.0000 0.69963  0.14467  0.96967  Biso   1.000  O
  C179     1.0000 0.68773  0.11767  0.94257  Biso   1.000  C
  O59      1.0000 0.44683  0.14917  0.97157  Biso   1.000  O
  O60      1.0000 0.36823  0.11187  0.92337  Biso   1.000  O
  C180     1.0000 0.43243  0.12397  0.94127  Biso   1.000  C
  C181     1.0000 0.52803  0.05837  0.87274  Biso   1.000  C
  C182     1.0000 0.47203  0.07357  0.88988  Biso   1.000  C
  H82      1.0000 0.42443  0.06607  0.87807  Biso   1.000  H
  C183     1.0000 0.48573  0.09977  0.92417  Biso   1.000  C
  C184     1.0000 0.55533  0.11067  0.94147  Biso   1.000  C
  H83      1.0000 0.56463  0.12847  0.96497  Biso   1.000  H
  C185     1.0000 0.61123  0.09527  0.92427  Biso   1.000  C
  C186     1.0000 0.59763  0.06917  0.88997  Biso   1.000  C
  H84      1.0000 0.63583  0.05867  0.87827  Biso   1.000  H
  Zn13     1.0000 0.80782  0.19250  0.99940  Biso   1.000  Zn
  Zn14     1.0000 0.85914  0.14084  0.93531  Biso   1.000  Zn
  O61      1.0000 0.80960  0.03370  0.96490  Biso   1.000  O
  O62      1.0000 0.76950  0.07430  0.01070  Biso   1.000  O
  C187     1.0000 0.78560  0.02630  0.99550  Biso   1.000  C
  C188     1.0000 0.77050  0.94960  0.01265  Biso   1.000  C
  C189     1.0000 0.78830  0.89470  0.99613  Biso   1.000  C
  H85      1.0000 0.81060  0.90600  0.97330  Biso   1.000  H
  C190     1.0000 0.77350  0.82330  0.01300  Biso   1.000  C
  C191     1.0000 0.74100  0.80680  0.04630  Biso   1.000  C
  H86      1.0000 0.73090  0.75800  0.05790  Biso   1.000  H
  C192     1.0000 0.72320  0.86170  0.06286  Biso   1.000  C
  C193     1.0000 0.73790  0.93310  0.04602  Biso   1.000  C
  H87      1.0000 0.72570  0.97060  0.05730  Biso   1.000  H
  C194     1.0000 0.78970  0.75660  0.99740  Biso   1.000  C
  O63      1.0000 0.81800  0.77850  0.96260  Biso   1.000  O
  O64      1.0000 0.77050  0.68910  0.01230  Biso   1.000  O
  C195     1.0000 0.67570  0.83280  0.09670  Biso   1.000  C
  C196     1.0000 0.71640  0.81360  0.12190  Biso   1.000  C
  C197     1.0000 0.69110  0.80420  0.15630  Biso   1.000  C
  H88      1.0000 0.71880  0.79100  0.17350  Biso   1.000  H
  C198     1.0000 0.62510  0.81400  0.16560  Biso   1.000  C
  C199     1.0000 0.58460  0.83330  0.14040  Biso   1.000  C
  C200     1.0000 0.60980  0.84270  0.10600  Biso   1.000  C
  H89      1.0000 0.58200  0.85580  0.08880  Biso   1.000  H
  O65      1.0000 0.52070  0.84990  0.15070  Biso   1.000  O
  C201     1.0000 0.43570  0.82040  0.16480  Biso   1.000  C
  H90      1.0000 0.39460  0.79620  0.14600  Biso   1.000  H
  H91      1.0000 0.42220  0.77810  0.18290  Biso   1.000  H
  C202     1.0000 0.43540  0.89220  0.17970  Biso   1.000  C
  H92      1.0000 0.49150  0.93350  0.18780  Biso   1.000  H
  C203     1.0000 0.40370  0.93100  0.15270  Biso   1.000  C
  C204     1.0000 0.37300  0.86510  0.21050  Biso   1.000  C
  C205     1.0000 0.30760  0.85510  0.14950  Biso   1.000  C
  O66      1.0000 0.76770  0.77460  0.11600  Biso   1.000  O
  C206     1.0000 0.81250  0.76600  0.14550  Biso   1.000  C
  H93      1.0000 0.77890  0.71260  0.15730  Biso   1.000  H
  H94      1.0000 0.82720  0.81050  0.16260  Biso   1.000  H
  C207     1.0000 0.88860  0.77140  0.12990  Biso   1.000  C
  H95      1.0000 0.91780  0.82380  0.11660  Biso   1.000  H
  C208     1.0000 0.95140  0.76630  0.15350  Biso   1.000  C
  C209     1.0000 0.85670  0.70140  0.10420  Biso   1.000  C
  O67      1.0000 0.55740  0.96600  0.25761  Biso   1.000  O
  O68      1.0000 0.52200  0.88830  0.30300  Biso   1.000  O
  C210     1.0000 0.54900  0.90340  0.27590  Biso   1.000  C
  O69      1.0000 0.51750  0.63100  0.30490  Biso   1.000  O
  O70      1.0000 0.55480  0.58970  0.25670  Biso   1.000  O
  C211     1.0000 0.54270  0.64180  0.27460  Biso   1.000  C
  C212     1.0000 0.60830  0.80300  0.20607  Biso   1.000  C
  C213     1.0000 0.59310  0.73180  0.22321  Biso   1.000  C
  H96      1.0000 0.60060  0.69170  0.21140  Biso   1.000  H
  C214     1.0000 0.56690  0.71930  0.25750  Biso   1.000  C
  C215     1.0000 0.55600  0.77800  0.27480  Biso   1.000  C
  H97      1.0000 0.53820  0.76950  0.29830  Biso   1.000  H
  C216     1.0000 0.57140  0.84930  0.25760  Biso   1.000  C
  C217     1.0000 0.59750  0.86180  0.22330  Biso   1.000  C
  H98      1.0000 0.60800  0.91050  0.21160  Biso   1.000  H
  Zn15     1.0000 0.47449  0.52583  0.33273  Biso   1.000  Zn
  Zn16     1.0000 0.52581  0.47417  0.26864  Biso   1.000  Zn
  O71      1.0000 0.47627  0.36703  0.29823  Biso   1.000  O
  O72      1.0000 0.43617  0.40763  0.34403  Biso   1.000  O
  C218     1.0000 0.45227  0.35963  0.32883  Biso   1.000  C
  C219     1.0000 0.43717  0.28293  0.34598  Biso   1.000  C
  C220     1.0000 0.45497  0.22803  0.32946  Biso   1.000  C
  H99      1.0000 0.47727  0.23933  0.30663  Biso   1.000  H
  C221     1.0000 0.44017  0.15663  0.34633  Biso   1.000  C
  C222     1.0000 0.40767  0.14013  0.37963  Biso   1.000  C
  H100     1.0000 0.39757  0.09133  0.39123  Biso   1.000  H
  C223     1.0000 0.38987  0.19503  0.39619  Biso   1.000  C
  C224     1.0000 0.40457  0.26643  0.37935  Biso   1.000  C
  H101     1.0000 0.39237  0.30393  0.39063  Biso   1.000  H
  C225     1.0000 0.45637  0.08993  0.33073  Biso   1.000  C
  O73      1.0000 0.48467  0.11183  0.29593  Biso   1.000  O
  O74      1.0000 0.43717  0.02243  0.34563  Biso   1.000  O
  C226     1.0000 0.34237  0.16613  0.43003  Biso   1.000  C
  C227     1.0000 0.38307  0.14693  0.45523  Biso   1.000  C
  C228     1.0000 0.35777  0.13753  0.48963  Biso   1.000  C
  H102     1.0000 0.38547  0.12433  0.50683  Biso   1.000  H
  C229     1.0000 0.29177  0.14733  0.49893  Biso   1.000  C
  C230     1.0000 0.25127  0.16663  0.47373  Biso   1.000  C
  C231     1.0000 0.27647  0.17603  0.43933  Biso   1.000  C
  H103     1.0000 0.24867  0.18913  0.42213  Biso   1.000  H
  O75      1.0000 0.18737  0.18323  0.48403  Biso   1.000  O
  C232     1.0000 0.10237  0.15373  0.49813  Biso   1.000  C
  H104     1.0000 0.06127  0.12953  0.47933  Biso   1.000  H
  H105     1.0000 0.08887  0.11143  0.51623  Biso   1.000  H
  C233     1.0000 0.10207  0.22553  0.51303  Biso   1.000  C
  H106     1.0000 0.15817  0.26683  0.52113  Biso   1.000  H
  C234     1.0000 0.07037  0.26433  0.48603  Biso   1.000  C
  C235     1.0000 0.03967  0.19843  0.54383  Biso   1.000  C
  C236     1.0000 0.97427  0.18843  0.48283  Biso   1.000  C
  O76      1.0000 0.43437  0.10793  0.44933  Biso   1.000  O
  C237     1.0000 0.47917  0.09933  0.47883  Biso   1.000  C
  H107     1.0000 0.44557  0.04593  0.49063  Biso   1.000  H
  H108     1.0000 0.49387  0.14383  0.49593  Biso   1.000  H
  C238     1.0000 0.55527  0.10473  0.46323  Biso   1.000  C
  H109     1.0000 0.58447  0.15713  0.44993  Biso   1.000  H
  C239     1.0000 0.61807  0.09963  0.48683  Biso   1.000  C
  C240     1.0000 0.52337  0.03473  0.43753  Biso   1.000  C
  O77      1.0000 0.22407  0.29933  0.59094  Biso   1.000  O
  O78      1.0000 0.18867  0.22163  0.63633  Biso   1.000  O
  C241     1.0000 0.21567  0.23673  0.60923  Biso   1.000  C
  O79      1.0000 0.18417  0.96433  0.63823  Biso   1.000  O
  O80      1.0000 0.22147  0.92303  0.59003  Biso   1.000  O
  C242     1.0000 0.20937  0.97513  0.60793  Biso   1.000  C
  C243     1.0000 0.27497  0.13633  0.53940  Biso   1.000  C
  C244     1.0000 0.25977  0.06513  0.55654  Biso   1.000  C
  H110     1.0000 0.26727  0.02503  0.54473  Biso   1.000  H
  C245     1.0000 0.23357  0.05263  0.59083  Biso   1.000  C
  C246     1.0000 0.22267  0.11133  0.60813  Biso   1.000  C
  H111     1.0000 0.20487  0.10283  0.63163  Biso   1.000  H
  C247     1.0000 0.23807  0.18263  0.59093  Biso   1.000  C
  C248     1.0000 0.26417  0.19513  0.55663  Biso   1.000  C
  H112     1.0000 0.27467  0.24383  0.54493  Biso   1.000  H
  Zn17     1.0000 0.14115  0.85917  0.66607  Biso   1.000  Zn
  Zn18     1.0000 0.19247  0.80751  0.60198  Biso   1.000  Zn
  O81      1.0000 0.14293  0.70037  0.63157  Biso   1.000  O
  O82      1.0000 0.10283  0.74097  0.67737  Biso   1.000  O
  C249     1.0000 0.11893  0.69297  0.66217  Biso   1.000  C
  C250     1.0000 0.10383  0.61627  0.67932  Biso   1.000  C
  C251     1.0000 0.12163  0.56137  0.66280  Biso   1.000  C
  H113     1.0000 0.14393  0.57267  0.63997  Biso   1.000  H
  C252     1.0000 0.10683  0.48997  0.67967  Biso   1.000  C
  C253     1.0000 0.07433  0.47347  0.71297  Biso   1.000  C
  H114     1.0000 0.06423  0.42467  0.72457  Biso   1.000  H
  C254     1.0000 0.05653  0.52837  0.72953  Biso   1.000  C
  C255     1.0000 0.07123  0.59977  0.71269  Biso   1.000  C
  H115     1.0000 0.05903  0.63727  0.72397  Biso   1.000  H
  C256     1.0000 0.12303  0.42327  0.66407  Biso   1.000  C
  O83      1.0000 0.15133  0.44517  0.62927  Biso   1.000  O
  O84      1.0000 0.10383  0.35577  0.67897  Biso   1.000  O
  C257     1.0000 0.00903  0.49947  0.76337  Biso   1.000  C
  C258     1.0000 0.04973  0.48027  0.78857  Biso   1.000  C
  C259     1.0000 0.02443  0.47087  0.82297  Biso   1.000  C
  H116     1.0000 0.05213  0.45767  0.84017  Biso   1.000  H
  C260     1.0000 0.95843  0.48067  0.83227  Biso   1.000  C
  C261     1.0000 0.91793  0.49997  0.80707  Biso   1.000  C
  C262     1.0000 0.94313  0.50937  0.77267  Biso   1.000  C
  H117     1.0000 0.91533  0.52247  0.75547  Biso   1.000  H
  O85      1.0000 0.85403  0.51657  0.81737  Biso   1.000  O
  C263     1.0000 0.76903  0.48707  0.83147  Biso   1.000  C
  H118     1.0000 0.72793  0.46287  0.81267  Biso   1.000  H
  H119     1.0000 0.75553  0.44477  0.84957  Biso   1.000  H
  C264     1.0000 0.76873  0.55887  0.84637  Biso   1.000  C
  H120     1.0000 0.82483  0.60017  0.85447  Biso   1.000  H
  C265     1.0000 0.73703  0.59767  0.81937  Biso   1.000  C
  C266     1.0000 0.70633  0.53177  0.87717  Biso   1.000  C
  C267     1.0000 0.64093  0.52177  0.81617  Biso   1.000  C
  O86      1.0000 0.10103  0.44127  0.78267  Biso   1.000  O
  C268     1.0000 0.14583  0.43267  0.81217  Biso   1.000  C
  H121     1.0000 0.11223  0.37927  0.82397  Biso   1.000  H
  H122     1.0000 0.16053  0.47717  0.82927  Biso   1.000  H
  C269     1.0000 0.22193  0.43807  0.79657  Biso   1.000  C
  H123     1.0000 0.25113  0.49047  0.78327  Biso   1.000  H
  C270     1.0000 0.28473  0.43297  0.82017  Biso   1.000  C
  C271     1.0000 0.19003  0.36807  0.77087  Biso   1.000  C
  O87      1.0000 0.89073  0.63267  0.92428  Biso   1.000  O
  O88      1.0000 0.85533  0.55497  0.96967  Biso   1.000  O
  C272     1.0000 0.88233  0.57007  0.94257  Biso   1.000  C
  O89      1.0000 0.85083  0.29767  0.97157  Biso   1.000  O
  O90      1.0000 0.88813  0.25637  0.92337  Biso   1.000  O
  C273     1.0000 0.87603  0.30847  0.94127  Biso   1.000  C
  C274     1.0000 0.94163  0.46967  0.87274  Biso   1.000  C
  C275     1.0000 0.92643  0.39847  0.88988  Biso   1.000  C
  H124     1.0000 0.93393  0.35837  0.87807  Biso   1.000  H
  C276     1.0000 0.90023  0.38597  0.92417  Biso   1.000  C
  C277     1.0000 0.88933  0.44467  0.94147  Biso   1.000  C
  H125     1.0000 0.87153  0.43617  0.96497  Biso   1.000  H
  C278     1.0000 0.90473  0.51597  0.92427  Biso   1.000  C
  C279     1.0000 0.93083  0.52847  0.88997  Biso   1.000  C
  H126     1.0000 0.94133  0.57717  0.87827  Biso   1.000  H
