data_image0
_cell_length_a       8.8965
_cell_length_b       11.7193
_cell_length_c       52.414
_cell_angle_alpha    90
_cell_angle_beta     97.734
_cell_angle_gamma    90

_symmetry_space_group_name_H-M    "P 1"
_symmetry_int_tables_number       1

loop_
  _symmetry_equiv_pos_as_xyz
  'x, y, z'

loop_
  _atom_site_label
  _atom_site_occupancy
  _atom_site_fract_x
  _atom_site_fract_y
  _atom_site_fract_z
  _atom_site_thermal_displace_type
  _atom_site_B_iso_or_equiv
  _atom_site_type_symbol
  Cd1      1.0000 0.32424  0.11561  0.06917  Biso   1.000  Cd
  Cd2      1.0000 0.36123  0.15717  0.17937  Biso   1.000  Cd
  Cd3      1.0000 0.88661  0.44135  0.18323  Biso   1.000  Cd
  Cd4      1.0000 0.83484  0.41036  0.07268  Biso   1.000  Cd
  Cd5      1.0000 0.87510  0.90377  0.21059  Biso   1.000  Cd
  Cd6      1.0000 0.78286  0.86560  0.03895  Biso   1.000  Cd
  C1       1.0000 0.34690  0.12380  0.13560  Biso   1.000  C
  N1       1.0000 0.34020  0.11600  0.11400  Biso   1.000  N
  C2       1.0000 0.64080  0.29260  0.06860  Biso   1.000  C
  N2       1.0000 0.53610  0.23230  0.06980  Biso   1.000  N
  C3       1.0000 0.99520  0.95230  0.05480  Biso   1.000  C
  N3       1.0000 0.10440  0.99780  0.06290  Biso   1.000  N
  C4       1.0000 0.27050  0.13120  0.00310  Biso   1.000  C
  N4       1.0000 0.29580  0.12650  0.02530  Biso   1.000  N
  C5       1.0000 0.59040  0.92150  0.05900  Biso   1.000  C
  N5       1.0000 0.48810  0.95870  0.06750  Biso   1.000  N
  C6       1.0000 0.05240  0.32770  0.06840  Biso   1.000  C
  N6       1.0000 0.15990  0.27690  0.06760  Biso   1.000  N
  C7       1.0000 0.10520  0.37400  0.17460  Biso   1.000  C
  N7       1.0000 0.21310  0.32450  0.17100  Biso   1.000  N
  C8       1.0000 0.04360  0.00150  0.19120  Biso   1.000  C
  N8       1.0000 0.14060  0.05380  0.18440  Biso   1.000  N
  C9       1.0000 0.64120  0.97140  0.20130  Biso   1.000  C
  N9       1.0000 0.52830  0.01300  0.19400  Biso   1.000  N
  C10      1.0000 0.68780  0.33170  0.18030  Biso   1.000  C
  N10      1.0000 0.57830  0.27160  0.17830  Biso   1.000  N
  C11      1.0000 0.83580  0.45300  0.11450  Biso   1.000  C
  N11      1.0000 0.82530  0.46640  0.13610  Biso   1.000  N
  C12      1.0000 0.87370  0.62670  0.19100  Biso   1.000  C
  N12      1.0000 0.87230  0.72180  0.19630  Biso   1.000  N
  C13      1.0000 0.02690  0.39770  0.24890  Biso   1.000  C
  N13      1.0000 0.96280  0.40360  0.22800  Biso   1.000  N
  C14      1.0000 0.81440  0.58110  0.05430  Biso   1.000  C
  N14      1.0000 0.80990  0.67790  0.04880  Biso   1.000  N
  N15      1.0000 0.35410  0.22950  0.22250  Biso   1.000  N
  H1       1.0000 0.26420  0.20300  0.21820  Biso   1.000  H
  H2       1.0000 0.38670  0.28460  0.21390  Biso   1.000  H
  C15      1.0000 0.45070  0.18140  0.24440  Biso   1.000  C
  C16      1.0000 0.39800  0.09370  0.25800  Biso   1.000  C
  H3       1.0000 0.29910  0.06730  0.25410  Biso   1.000  H
  C17      1.0000 0.50000  0.04360  0.27860  Biso   1.000  C
  H4       1.0000 0.46500  0.98730  0.28880  Biso   1.000  H
  C18      1.0000 0.65100  0.07960  0.28310  Biso   1.000  C
  H5       1.0000 0.71860  0.04540  0.29580  Biso   1.000  H
  C19      1.0000 0.69500  0.16400  0.26860  Biso   1.000  C
  H6       1.0000 0.79500  0.19020  0.27210  Biso   1.000  H
  C20      1.0000 0.60000  0.21460  0.24910  Biso   1.000  C
  H7       1.0000 0.63630  0.27090  0.23900  Biso   1.000  H
  Cd7      1.0000 0.67576  0.61561  0.43083  Biso   1.000  Cd
  Cd8      1.0000 0.63877  0.65717  0.32063  Biso   1.000  Cd
  Cd9      1.0000 0.11339  0.94135  0.31677  Biso   1.000  Cd
  Cd10     1.0000 0.16516  0.91036  0.42732  Biso   1.000  Cd
  Cd11     1.0000 0.12490  0.40377  0.28941  Biso   1.000  Cd
  Cd12     1.0000 0.21714  0.36560  0.46105  Biso   1.000  Cd
  C21      1.0000 0.65310  0.62380  0.36440  Biso   1.000  C
  N16      1.0000 0.65980  0.61600  0.38600  Biso   1.000  N
  C22      1.0000 0.35920  0.79260  0.43140  Biso   1.000  C
  N17      1.0000 0.46390  0.73230  0.43020  Biso   1.000  N
  C23      1.0000 0.00480  0.45230  0.44520  Biso   1.000  C
  N18      1.0000 0.89560  0.49780  0.43710  Biso   1.000  N
  C24      1.0000 0.72950  0.63120  0.49690  Biso   1.000  C
  N19      1.0000 0.70420  0.62650  0.47470  Biso   1.000  N
  C25      1.0000 0.40960  0.42150  0.44100  Biso   1.000  C
  N20      1.0000 0.51190  0.45870  0.43250  Biso   1.000  N
  C26      1.0000 0.94760  0.82770  0.43160  Biso   1.000  C
  N21      1.0000 0.84010  0.77690  0.43240  Biso   1.000  N
  C27      1.0000 0.89480  0.87400  0.32540  Biso   1.000  C
  N22      1.0000 0.78690  0.82450  0.32900  Biso   1.000  N
  C28      1.0000 0.95640  0.50150  0.30880  Biso   1.000  C
  N23      1.0000 0.85940  0.55380  0.31560  Biso   1.000  N
  C29      1.0000 0.35880  0.47140  0.29870  Biso   1.000  C
  N24      1.0000 0.47170  0.51300  0.30600  Biso   1.000  N
  C30      1.0000 0.31220  0.83170  0.31970  Biso   1.000  C
  N25      1.0000 0.42170  0.77160  0.32170  Biso   1.000  N
  C31      1.0000 0.16420  0.95300  0.38550  Biso   1.000  C
  N26      1.0000 0.17470  0.96640  0.36390  Biso   1.000  N
  C32      1.0000 0.12630  0.12670  0.30900  Biso   1.000  C
  N27      1.0000 0.12770  0.22180  0.30370  Biso   1.000  N
  C33      1.0000 0.97310  0.89770  0.25110  Biso   1.000  C
  N28      1.0000 0.03720  0.90360  0.27200  Biso   1.000  N
  C34      1.0000 0.18560  0.08110  0.44570  Biso   1.000  C
  N29      1.0000 0.19010  0.17790  0.45120  Biso   1.000  N
  N30      1.0000 0.64590  0.72950  0.27750  Biso   1.000  N
  H8       1.0000 0.73580  0.70300  0.28180  Biso   1.000  H
  H9       1.0000 0.61330  0.78460  0.28610  Biso   1.000  H
  C35      1.0000 0.54930  0.68140  0.25560  Biso   1.000  C
  C36      1.0000 0.60200  0.59370  0.24200  Biso   1.000  C
  H10      1.0000 0.70090  0.56730  0.24590  Biso   1.000  H
  C37      1.0000 0.50000  0.54360  0.22140  Biso   1.000  C
  H11      1.0000 0.53500  0.48730  0.21120  Biso   1.000  H
  C38      1.0000 0.34900  0.57960  0.21690  Biso   1.000  C
  H12      1.0000 0.28140  0.54540  0.20420  Biso   1.000  H
  C39      1.0000 0.30500  0.66400  0.23140  Biso   1.000  C
  H13      1.0000 0.20500  0.69020  0.22790  Biso   1.000  H
  C40      1.0000 0.40000  0.71460  0.25090  Biso   1.000  C
  H14      1.0000 0.36370  0.77090  0.26100  Biso   1.000  H
  Cd13     1.0000 0.67576  0.88439  0.93083  Biso   1.000  Cd
  Cd14     1.0000 0.63877  0.84283  0.82063  Biso   1.000  Cd
  Cd15     1.0000 0.11339  0.55865  0.81677  Biso   1.000  Cd
  Cd16     1.0000 0.16516  0.58964  0.92732  Biso   1.000  Cd
  Cd17     1.0000 0.12490  0.09623  0.78941  Biso   1.000  Cd
  Cd18     1.0000 0.21714  0.13440  0.96105  Biso   1.000  Cd
  C41      1.0000 0.65310  0.87620  0.86440  Biso   1.000  C
  N31      1.0000 0.65980  0.88400  0.88600  Biso   1.000  N
  C42      1.0000 0.35920  0.70740  0.93140  Biso   1.000  C
  N32      1.0000 0.46390  0.76770  0.93020  Biso   1.000  N
  C43      1.0000 0.00480  0.04770  0.94520  Biso   1.000  C
  N33      1.0000 0.89560  0.00220  0.93710  Biso   1.000  N
  C44      1.0000 0.72950  0.86880  0.99690  Biso   1.000  C
  N34      1.0000 0.70420  0.87350  0.97470  Biso   1.000  N
  C45      1.0000 0.40960  0.07850  0.94100  Biso   1.000  C
  N35      1.0000 0.51190  0.04130  0.93250  Biso   1.000  N
  C46      1.0000 0.94760  0.67230  0.93160  Biso   1.000  C
  N36      1.0000 0.84010  0.72310  0.93240  Biso   1.000  N
  C47      1.0000 0.89480  0.62600  0.82540  Biso   1.000  C
  N37      1.0000 0.78690  0.67550  0.82900  Biso   1.000  N
  C48      1.0000 0.95640  0.99850  0.80880  Biso   1.000  C
  N38      1.0000 0.85940  0.94620  0.81560  Biso   1.000  N
  C49      1.0000 0.35880  0.02860  0.79870  Biso   1.000  C
  N39      1.0000 0.47170  0.98700  0.80600  Biso   1.000  N
  C50      1.0000 0.31220  0.66830  0.81970  Biso   1.000  C
  N40      1.0000 0.42170  0.72840  0.82170  Biso   1.000  N
  C51      1.0000 0.16420  0.54700  0.88550  Biso   1.000  C
  N41      1.0000 0.17470  0.53360  0.86390  Biso   1.000  N
  C52      1.0000 0.12630  0.37330  0.80900  Biso   1.000  C
  N42      1.0000 0.12770  0.27820  0.80370  Biso   1.000  N
  C53      1.0000 0.97310  0.60230  0.75110  Biso   1.000  C
  N43      1.0000 0.03720  0.59640  0.77200  Biso   1.000  N
  C54      1.0000 0.18560  0.41890  0.94570  Biso   1.000  C
  N44      1.0000 0.19010  0.32210  0.95120  Biso   1.000  N
  N45      1.0000 0.64590  0.77050  0.77750  Biso   1.000  N
  H15      1.0000 0.73580  0.79700  0.78180  Biso   1.000  H
  H16      1.0000 0.61330  0.71540  0.78610  Biso   1.000  H
  C55      1.0000 0.54930  0.81860  0.75560  Biso   1.000  C
  C56      1.0000 0.60200  0.90630  0.74200  Biso   1.000  C
  H17      1.0000 0.70090  0.93270  0.74590  Biso   1.000  H
  C57      1.0000 0.50000  0.95640  0.72140  Biso   1.000  C
  H18      1.0000 0.53500  0.01270  0.71120  Biso   1.000  H
  C58      1.0000 0.34900  0.92040  0.71690  Biso   1.000  C
  H19      1.0000 0.28140  0.95460  0.70420  Biso   1.000  H
  C59      1.0000 0.30500  0.83600  0.73140  Biso   1.000  C
  H20      1.0000 0.20500  0.80980  0.72790  Biso   1.000  H
  C60      1.0000 0.40000  0.78540  0.75090  Biso   1.000  C
  H21      1.0000 0.36370  0.72910  0.76100  Biso   1.000  H
  Cd19     1.0000 0.32424  0.38439  0.56917  Biso   1.000  Cd
  Cd20     1.0000 0.36123  0.34283  0.67937  Biso   1.000  Cd
  Cd21     1.0000 0.88661  0.05865  0.68323  Biso   1.000  Cd
  Cd22     1.0000 0.83484  0.08964  0.57268  Biso   1.000  Cd
  Cd23     1.0000 0.87510  0.59623  0.71059  Biso   1.000  Cd
  Cd24     1.0000 0.78286  0.63440  0.53895  Biso   1.000  Cd
  C61      1.0000 0.34690  0.37620  0.63560  Biso   1.000  C
  N46      1.0000 0.34020  0.38400  0.61400  Biso   1.000  N
  C62      1.0000 0.64080  0.20740  0.56860  Biso   1.000  C
  N47      1.0000 0.53610  0.26770  0.56980  Biso   1.000  N
  C63      1.0000 0.99520  0.54770  0.55480  Biso   1.000  C
  N48      1.0000 0.10440  0.50220  0.56290  Biso   1.000  N
  C64      1.0000 0.27050  0.36880  0.50310  Biso   1.000  C
  N49      1.0000 0.29580  0.37350  0.52530  Biso   1.000  N
  C65      1.0000 0.59040  0.57850  0.55900  Biso   1.000  C
  N50      1.0000 0.48810  0.54130  0.56750  Biso   1.000  N
  C66      1.0000 0.05240  0.17230  0.56840  Biso   1.000  C
  N51      1.0000 0.15990  0.22310  0.56760  Biso   1.000  N
  C67      1.0000 0.10520  0.12600  0.67460  Biso   1.000  C
  N52      1.0000 0.21310  0.17550  0.67100  Biso   1.000  N
  C68      1.0000 0.04360  0.49850  0.69120  Biso   1.000  C
  N53      1.0000 0.14060  0.44620  0.68440  Biso   1.000  N
  C69      1.0000 0.64120  0.52860  0.70130  Biso   1.000  C
  N54      1.0000 0.52830  0.48700  0.69400  Biso   1.000  N
  C70      1.0000 0.68780  0.16830  0.68030  Biso   1.000  C
  N55      1.0000 0.57830  0.22840  0.67830  Biso   1.000  N
  C71      1.0000 0.83580  0.04700  0.61450  Biso   1.000  C
  N56      1.0000 0.82530  0.03360  0.63610  Biso   1.000  N
  C72      1.0000 0.87370  0.87330  0.69100  Biso   1.000  C
  N57      1.0000 0.87230  0.77820  0.69630  Biso   1.000  N
  C73      1.0000 0.02690  0.10230  0.74890  Biso   1.000  C
  N58      1.0000 0.96280  0.09640  0.72800  Biso   1.000  N
  C74      1.0000 0.81440  0.91890  0.55430  Biso   1.000  C
  N59      1.0000 0.80990  0.82210  0.54880  Biso   1.000  N
  N60      1.0000 0.35410  0.27050  0.72250  Biso   1.000  N
  H22      1.0000 0.26420  0.29700  0.71820  Biso   1.000  H
  H23      1.0000 0.38670  0.21540  0.71390  Biso   1.000  H
  C75      1.0000 0.45070  0.31860  0.74440  Biso   1.000  C
  C76      1.0000 0.39800  0.40630  0.75800  Biso   1.000  C
  H24      1.0000 0.29910  0.43270  0.75410  Biso   1.000  H
  C77      1.0000 0.50000  0.45640  0.77860  Biso   1.000  C
  H25      1.0000 0.46500  0.51270  0.78880  Biso   1.000  H
  C78      1.0000 0.65100  0.42040  0.78310  Biso   1.000  C
  H26      1.0000 0.71860  0.45460  0.79580  Biso   1.000  H
  C79      1.0000 0.69500  0.33600  0.76860  Biso   1.000  C
  H27      1.0000 0.79500  0.30980  0.77210  Biso   1.000  H
  C80      1.0000 0.60000  0.28540  0.74910  Biso   1.000  C
  H28      1.0000 0.63630  0.22910  0.73900  Biso   1.000  H
