data_YAWFEI_charged
_audit_creation_date              2014-07-02
_audit_creation_method            'Materials Studio'
_symmetry_space_group_name_H-M    'P1'
_symmetry_Int_Tables_number       1
_symmetry_cell_setting            triclinic
loop_
_symmetry_equiv_pos_as_xyz
  x,y,z
_cell_length_a                    8.8622
_cell_length_b                    19.1014
_cell_length_c                    14.8612
_cell_angle_alpha                 86.4434
_cell_angle_beta                  84.8205
_cell_angle_gamma                 84.5316
loop_
_atom_site_label
_atom_site_type_symbol
_atom_site_fract_x
_atom_site_fract_y
_atom_site_fract_z
_atom_site_U_iso_or_equiv
_atom_site_adp_type
_atom_site_occupancy
Cd1    Cd    0.70461   0.70100   0.92150   0.01267  Uiso   1.00
Cd2    Cd    0.13047   0.97870   0.70358   0.01267  Uiso   1.00
Cd3    Cd    0.25347   0.52971   0.83246   0.01267  Uiso   1.00
Cd4    Cd    0.69195   0.82980   0.56794   0.01267  Uiso   1.00
Cd5    Cd    0.15344   0.85185   0.04353   0.01267  Uiso   1.00
Cd6    Cd    0.29539   0.29900   0.07850   0.01267  Uiso   1.00
Cd7    Cd    0.86953   0.02130   0.29642   0.01267  Uiso   1.00
Cd8    Cd    0.74653   0.47029   0.16754   0.01267  Uiso   1.00
Cd9    Cd    0.30805   0.17020   0.43206   0.01267  Uiso   1.00
Cd10   Cd    0.84656   0.14815   0.95647   0.01267  Uiso   1.00
C1     C     0.44660   0.59210   0.85170   0.01267  Uiso   1.00
C2     C     0.95240   0.80110   0.01030   0.01267  Uiso   1.00
C3     C     0.73060   0.56860   0.08340   0.01267  Uiso   1.00
C4     C     0.37350   0.79060   0.01510   0.01267  Uiso   1.00
C5     C     0.03980   0.59870   0.85530   0.01267  Uiso   1.00
C6     C     0.17730   0.94840   0.84600   0.01267  Uiso   1.00
C7     C     0.11620   0.91140   0.16550   0.01267  Uiso   1.00
C8     C     0.88020   0.88480   0.61400   0.01267  Uiso   1.00
C9     C     0.46110   0.87930   0.60960   0.01267  Uiso   1.00
C10    C     0.73060   0.71720   0.53660   0.01267  Uiso   1.00
C11    C     0.21820   0.06900   0.62240   0.01267  Uiso   1.00
C12    C     0.55340   0.40790   0.14830   0.01267  Uiso   1.00
C13    C     0.04760   0.19890   0.98970   0.01267  Uiso   1.00
C14    C     0.26940   0.43140   0.91660   0.01267  Uiso   1.00
C15    C     0.62650   0.20940   0.98490   0.01267  Uiso   1.00
C16    C     0.96020   0.40130   0.14470   0.01267  Uiso   1.00
C17    C     0.82270   0.05160   0.15400   0.01267  Uiso   1.00
C18    C     0.88380   0.08860   0.83450   0.01267  Uiso   1.00
C19    C     0.11980   0.11520   0.38600   0.01267  Uiso   1.00
C20    C     0.53890   0.12070   0.39040   0.01267  Uiso   1.00
C21    C     0.26940   0.28280   0.46340   0.01267  Uiso   1.00
C22    C     0.78180   0.93100   0.37760   0.01267  Uiso   1.00
N1     N     0.53790   0.62630   0.86560   0.01267  Uiso   1.00
N2     N     0.85440   0.77590   0.98820   0.01267  Uiso   1.00
N3     N     0.71970   0.61980   0.04180   0.01267  Uiso   1.00
N4     N     0.48830   0.76280   0.99180   0.01267  Uiso   1.00
N5     N     0.93120   0.63490   0.86520   0.01267  Uiso   1.00
N6     N     0.17930   0.92910   0.91830   0.01267  Uiso   1.00
N7     N     0.08580   0.94380   0.22680   0.01267  Uiso   1.00
N8     N     0.96740   0.91570   0.64300   0.01267  Uiso   1.00
N9     N     0.34830   0.90310   0.63860   0.01267  Uiso   1.00
N10    N     0.73950   0.66080   0.53100   0.01267  Uiso   1.00
N11    N     0.26080   0.11110   0.57280   0.01267  Uiso   1.00
N12    N     0.46210   0.37370   0.13440   0.01267  Uiso   1.00
N13    N     0.14560   0.22410   0.01180   0.01267  Uiso   1.00
N14    N     0.28030   0.38020   0.95820   0.01267  Uiso   1.00
N15    N     0.51170   0.23720   0.00820   0.01267  Uiso   1.00
N16    N     0.06880   0.36510   0.13480   0.01267  Uiso   1.00
N17    N     0.82070   0.07090   0.08170   0.01267  Uiso   1.00
N18    N     0.91420   0.05620   0.77320   0.01267  Uiso   1.00
N19    N     0.03260   0.08430   0.35700   0.01267  Uiso   1.00
N20    N     0.65170   0.09690   0.36140   0.01267  Uiso   1.00
N21    N     0.26050   0.33920   0.46900   0.01267  Uiso   1.00
N22    N     0.73920   0.88890   0.42720   0.01267  Uiso   1.00
Cl1    Cl    0.69390   0.77967   0.76976   0.01267  Uiso   1.00
Cl2    Cl    0.26320   0.49390   0.67480   0.01267  Uiso   1.00
Cl3    Cl    0.30610   0.22033   0.23024   0.01267  Uiso   1.00
Cl4    Cl    0.73680   0.50610   0.32520   0.01267  Uiso   1.00
H1     H     0.53400   0.87840   0.21510   0.01267  Uiso   1.00
H2     H     0.58450   0.89430   0.06490   0.01267  Uiso   1.00
H3     H     0.38210   0.09030   0.08170   0.01267  Uiso   1.00
H4     H     0.33860   0.06920   0.23190   0.01267  Uiso   1.00
H5     H     0.46170   0.98370   0.36770   0.01267  Uiso   1.00
H6     H     0.41330   0.90920   0.35040   0.01267  Uiso   1.00
H7     H     0.29240   0.97470   0.35150   0.01267  Uiso   1.00
H8     H     0.46600   0.12160   0.78490   0.01267  Uiso   1.00
H9     H     0.41550   0.10570   0.93510   0.01267  Uiso   1.00
H10    H     0.61790   0.90970   0.91830   0.01267  Uiso   1.00
H11    H     0.66140   0.93080   0.76810   0.01267  Uiso   1.00
H12    H     0.53830   0.01630   0.63230   0.01267  Uiso   1.00
H13    H     0.58670   0.09080   0.64960   0.01267  Uiso   1.00
H14    H     0.70760   0.02530   0.64850   0.01267  Uiso   1.00
C23    C     0.50330   0.92160   0.18700   0.01267  Uiso   1.00
C24    C     0.53250   0.93090   0.09670   0.01267  Uiso   1.00
C25    C     0.48680   0.99440   0.04840   0.01267  Uiso   1.00
C26    C     0.41360   0.04610   0.10680   0.01267  Uiso   1.00
C27    C     0.38810   0.03370   0.19710   0.01267  Uiso   1.00
C28    C     0.39680   0.95880   0.33520   0.01267  Uiso   1.00
C29    C     0.49670   0.07840   0.81300   0.01267  Uiso   1.00
C30    C     0.46750   0.06910   0.90330   0.01267  Uiso   1.00
C31    C     0.51320   0.00560   0.95160   0.01267  Uiso   1.00
C32    C     0.58640   0.95390   0.89320   0.01267  Uiso   1.00
C33    C     0.61190   0.96630   0.80290   0.01267  Uiso   1.00
C34    C     0.60320   0.04120   0.66480   0.01267  Uiso   1.00
N23    N     0.43200   0.97210   0.23740   0.01267  Uiso   1.00
N24    N     0.56800   0.02790   0.76260   0.01267  Uiso   1.00
H15    H     0.43340   0.51670   0.34460   0.01267  Uiso   1.00
H16    H     0.45240   0.59300   0.45660   0.01267  Uiso   1.00
H17    H     0.99940   0.61340   0.49080   0.01267  Uiso   1.00
H18    H     0.99250   0.53740   0.37960   0.01267  Uiso   1.00
H19    H     0.46120   0.71570   0.69240   0.01267  Uiso   1.00
H20    H     0.45920   0.65220   0.56860   0.01267  Uiso   1.00
H21    H     0.00560   0.67780   0.59260   0.01267  Uiso   1.00
H22    H     0.01440   0.74100   0.71690   0.01267  Uiso   1.00
H23    H     0.23100   0.48990   0.22670   0.01267  Uiso   1.00
H24    H     0.10730   0.45210   0.28880   0.01267  Uiso   1.00
H25    H     0.28030   0.42830   0.29560   0.01267  Uiso   1.00
H26    H     0.21750   0.73800   0.85340   0.01267  Uiso   1.00
H27    H     0.17380   0.81040   0.80230   0.01267  Uiso   1.00
H28    H     0.34530   0.78220   0.80590   0.01267  Uiso   1.00
C35    C     0.34530   0.53610   0.37600   0.01267  Uiso   1.00
C36    C     0.35750   0.58180   0.44290   0.01267  Uiso   1.00
C37    C     0.22580   0.61070   0.48950   0.01267  Uiso   1.00
C38    C     0.09020   0.59350   0.46280   0.01267  Uiso   1.00
C39    C     0.08580   0.54820   0.39640   0.01267  Uiso   1.00
C40    C     0.36850   0.70710   0.67240   0.01267  Uiso   1.00
C41    C     0.36750   0.66950   0.59830   0.01267  Uiso   1.00
C42    C     0.23110   0.65630   0.56580   0.01267  Uiso   1.00
C43    C     0.09940   0.68460   0.61250   0.01267  Uiso   1.00
C44    C     0.10460   0.72220   0.68700   0.01267  Uiso   1.00
C45    C     0.20750   0.46790   0.28550   0.01267  Uiso   1.00
C46    C     0.24430   0.76900   0.80230   0.01267  Uiso   1.00
N25    N     0.21330   0.51940   0.35550   0.01267  Uiso   1.00
N26    N     0.23840   0.73250   0.71790   0.01267  Uiso   1.00
H29    H     0.56660   0.48330   0.65540   0.01267  Uiso   1.00
H30    H     0.54760   0.40700   0.54340   0.01267  Uiso   1.00
H31    H     0.00060   0.38660   0.50920   0.01267  Uiso   1.00
H32    H     0.00750   0.46260   0.62040   0.01267  Uiso   1.00
H33    H     0.53880   0.28430   0.30760   0.01267  Uiso   1.00
H34    H     0.54080   0.34780   0.43140   0.01267  Uiso   1.00
H35    H     0.99440   0.32220   0.40740   0.01267  Uiso   1.00
H36    H     0.98560   0.25900   0.28310   0.01267  Uiso   1.00
H37    H     0.76900   0.51010   0.77330   0.01267  Uiso   1.00
H38    H     0.89270   0.54790   0.71120   0.01267  Uiso   1.00
H39    H     0.71970   0.57170   0.70440   0.01267  Uiso   1.00
H40    H     0.78250   0.26200   0.14660   0.01267  Uiso   1.00
H41    H     0.82620   0.18960   0.19770   0.01267  Uiso   1.00
H42    H     0.65470   0.21780   0.19410   0.01267  Uiso   1.00
C47    C     0.65470   0.46390   0.62400   0.01267  Uiso   1.00
C48    C     0.64250   0.41820   0.55710   0.01267  Uiso   1.00
C49    C     0.77420   0.38930   0.51050   0.01267  Uiso   1.00
C50    C     0.90980   0.40650   0.53720   0.01267  Uiso   1.00
C51    C     0.91420   0.45180   0.60360   0.01267  Uiso   1.00
C52    C     0.63150   0.29290   0.32760   0.01267  Uiso   1.00
C53    C     0.63250   0.33050   0.40170   0.01267  Uiso   1.00
C54    C     0.76890   0.34370   0.43420   0.01267  Uiso   1.00
C55    C     0.90060   0.31540   0.38750   0.01267  Uiso   1.00
C56    C     0.89540   0.27780   0.31300   0.01267  Uiso   1.00
C57    C     0.79250   0.53210   0.71450   0.01267  Uiso   1.00
C58    C     0.75570   0.23100   0.19770   0.01267  Uiso   1.00
N27    N     0.78670   0.48060   0.64450   0.01267  Uiso   1.00
N28    N     0.76160   0.26750   0.28210   0.01267  Uiso   1.00
