data_image0
_cell_length_a       7.497
_cell_length_b       13.154
_cell_length_c       18.206
_cell_angle_alpha    90
_cell_angle_beta     90
_cell_angle_gamma    90

_symmetry_space_group_name_H-M    "P 1"
_symmetry_int_tables_number       1

loop_
  _symmetry_equiv_pos_as_xyz
  'x, y, z'

loop_
  _atom_site_label
  _atom_site_occupancy
  _atom_site_fract_x
  _atom_site_fract_y
  _atom_site_fract_z
  _atom_site_thermal_displace_type
  _atom_site_B_iso_or_equiv
  _atom_site_type_symbol
  Zn1      1.0000 0.04302  0.62424  0.03604  Biso   1.000  Zn
  Zn2      1.0000 0.04317  0.37161  0.03836  Biso   1.000  Zn
  Zn3      1.0000 0.60023  0.37188  0.05862  Biso   1.000  Zn
  Zn4      1.0000 0.59798  0.62520  0.05609  Biso   1.000  Zn
  Zn5      1.0000 0.65867  0.50330  0.83275  Biso   1.000  Zn
  P1       1.0000 0.79170  0.30430  0.91424  Biso   1.000  P
  P2       1.0000 0.33814  0.49560  0.95996  Biso   1.000  P
  P3       1.0000 0.79000  0.69980  0.91434  Biso   1.000  P
  P4       1.0000 0.85512  0.49960  0.15719  Biso   1.000  P
  O1       1.0000 0.80740  0.38670  0.85610  Biso   1.000  O
  O2       1.0000 0.80460  0.35160  0.99150  Biso   1.000  O
  O3       1.0000 0.94730  0.23200  0.90540  Biso   1.000  O
  O4       1.0000 0.60750  0.25030  0.90910  Biso   1.000  O
  O5       1.0000 0.48100  0.49650  0.02280  Biso   1.000  O
  O6       1.0000 0.22650  0.39880  0.96830  Biso   1.000  O
  O7       1.0000 0.22680  0.59130  0.96460  Biso   1.000  O
  O8       1.0000 0.43410  0.49420  0.88582  Biso   1.000  O
  O9       1.0000 0.80550  0.64360  0.99110  Biso   1.000  O
  O10      1.0000 0.80120  0.62330  0.85210  Biso   1.000  O
  O11      1.0000 0.60910  0.75280  0.91310  Biso   1.000  O
  O12      1.0000 0.94170  0.77560  0.90830  Biso   1.000  O
  O13      1.0000 0.01090  0.49740  0.09859  Biso   1.000  O
  O14      1.0000 0.93610  0.50310  0.23328  Biso   1.000  O
  O15      1.0000 0.74150  0.59320  0.14280  Biso   1.000  O
  O16      1.0000 0.74770  0.40160  0.14490  Biso   1.000  O
  Zn6      1.0000 0.45698  0.37576  0.53604  Biso   1.000  Zn
  Zn7      1.0000 0.45683  0.62839  0.53836  Biso   1.000  Zn
  Zn8      1.0000 0.89977  0.62812  0.55862  Biso   1.000  Zn
  Zn9      1.0000 0.90202  0.37480  0.55609  Biso   1.000  Zn
  Zn10     1.0000 0.84133  0.49670  0.33275  Biso   1.000  Zn
  P5       1.0000 0.70830  0.69570  0.41424  Biso   1.000  P
  P6       1.0000 0.16186  0.50440  0.45996  Biso   1.000  P
  P7       1.0000 0.71000  0.30020  0.41434  Biso   1.000  P
  P8       1.0000 0.64488  0.50040  0.65719  Biso   1.000  P
  O17      1.0000 0.69260  0.61330  0.35610  Biso   1.000  O
  O18      1.0000 0.69540  0.64840  0.49150  Biso   1.000  O
  O19      1.0000 0.55270  0.76800  0.40540  Biso   1.000  O
  O20      1.0000 0.89250  0.74970  0.40910  Biso   1.000  O
  O21      1.0000 0.01900  0.50350  0.52280  Biso   1.000  O
  O22      1.0000 0.27350  0.60120  0.46830  Biso   1.000  O
  O23      1.0000 0.27320  0.40870  0.46460  Biso   1.000  O
  O24      1.0000 0.06590  0.50580  0.38582  Biso   1.000  O
  O25      1.0000 0.69450  0.35640  0.49110  Biso   1.000  O
  O26      1.0000 0.69880  0.37670  0.35210  Biso   1.000  O
  O27      1.0000 0.89090  0.24720  0.41310  Biso   1.000  O
  O28      1.0000 0.55830  0.22440  0.40830  Biso   1.000  O
  O29      1.0000 0.48910  0.50260  0.59859  Biso   1.000  O
  O30      1.0000 0.56390  0.49690  0.73328  Biso   1.000  O
  O31      1.0000 0.75850  0.40680  0.64280  Biso   1.000  O
  O32      1.0000 0.75230  0.59840  0.64490  Biso   1.000  O
  Zn11     1.0000 0.95698  0.12424  0.46396  Biso   1.000  Zn
  Zn12     1.0000 0.95683  0.87161  0.46164  Biso   1.000  Zn
  Zn13     1.0000 0.39977  0.87188  0.44138  Biso   1.000  Zn
  Zn14     1.0000 0.40202  0.12520  0.44391  Biso   1.000  Zn
  Zn15     1.0000 0.34133  0.00330  0.66725  Biso   1.000  Zn
  P9       1.0000 0.20830  0.80430  0.58576  Biso   1.000  P
  P10      1.0000 0.66186  0.99560  0.54004  Biso   1.000  P
  P11      1.0000 0.21000  0.19980  0.58566  Biso   1.000  P
  P12      1.0000 0.14488  0.99960  0.34281  Biso   1.000  P
  O33      1.0000 0.19260  0.88670  0.64390  Biso   1.000  O
  O34      1.0000 0.19540  0.85160  0.50850  Biso   1.000  O
  O35      1.0000 0.05270  0.73200  0.59460  Biso   1.000  O
  O36      1.0000 0.39250  0.75030  0.59090  Biso   1.000  O
  O37      1.0000 0.51900  0.99650  0.47720  Biso   1.000  O
  O38      1.0000 0.77350  0.89880  0.53170  Biso   1.000  O
  O39      1.0000 0.77320  0.09130  0.53540  Biso   1.000  O
  O40      1.0000 0.56590  0.99420  0.61418  Biso   1.000  O
  O41      1.0000 0.19450  0.14360  0.50890  Biso   1.000  O
  O42      1.0000 0.19880  0.12330  0.64790  Biso   1.000  O
  O43      1.0000 0.39090  0.25280  0.58690  Biso   1.000  O
  O44      1.0000 0.05830  0.27560  0.59170  Biso   1.000  O
  O45      1.0000 0.98910  0.99740  0.40141  Biso   1.000  O
  O46      1.0000 0.06390  0.00310  0.26672  Biso   1.000  O
  O47      1.0000 0.25850  0.09320  0.35720  Biso   1.000  O
  O48      1.0000 0.25230  0.90160  0.35510  Biso   1.000  O
  Zn16     1.0000 0.54302  0.87576  0.96396  Biso   1.000  Zn
  Zn17     1.0000 0.54317  0.12839  0.96164  Biso   1.000  Zn
  Zn18     1.0000 0.10023  0.12812  0.94138  Biso   1.000  Zn
  Zn19     1.0000 0.09798  0.87480  0.94391  Biso   1.000  Zn
  Zn20     1.0000 0.15867  0.99670  0.16725  Biso   1.000  Zn
  P13      1.0000 0.29170  0.19570  0.08576  Biso   1.000  P
  P14      1.0000 0.83814  0.00440  0.04004  Biso   1.000  P
  P15      1.0000 0.29000  0.80020  0.08566  Biso   1.000  P
  P16      1.0000 0.35512  0.00040  0.84281  Biso   1.000  P
  O49      1.0000 0.30740  0.11330  0.14390  Biso   1.000  O
  O50      1.0000 0.30460  0.14840  0.00850  Biso   1.000  O
  O51      1.0000 0.44730  0.26800  0.09460  Biso   1.000  O
  O52      1.0000 0.10750  0.24970  0.09090  Biso   1.000  O
  O53      1.0000 0.98100  0.00350  0.97720  Biso   1.000  O
  O54      1.0000 0.72650  0.10120  0.03170  Biso   1.000  O
  O55      1.0000 0.72680  0.90870  0.03540  Biso   1.000  O
  O56      1.0000 0.93410  0.00580  0.11418  Biso   1.000  O
  O57      1.0000 0.30550  0.85640  0.00890  Biso   1.000  O
  O58      1.0000 0.30120  0.87670  0.14790  Biso   1.000  O
  O59      1.0000 0.10910  0.74720  0.08690  Biso   1.000  O
  O60      1.0000 0.44170  0.72440  0.09170  Biso   1.000  O
  O61      1.0000 0.51090  0.00260  0.90141  Biso   1.000  O
  O62      1.0000 0.43610  0.99690  0.76672  Biso   1.000  O
  O63      1.0000 0.24150  0.90680  0.85720  Biso   1.000  O
  O64      1.0000 0.24770  0.09840  0.85510  Biso   1.000  O
