data_YAYLER_clean
_audit_creation_date              2014-07-02
_audit_creation_method            'Materials Studio'
_symmetry_space_group_name_H-M    'P1'
_symmetry_Int_Tables_number       1
_symmetry_cell_setting            triclinic
loop_
_symmetry_equiv_pos_as_xyz
  x,y,z
_cell_length_a                    11.9234
_cell_length_b                    11.9234
_cell_length_c                    12.6748
_cell_angle_alpha                 69.6637
_cell_angle_beta                  69.6637
_cell_angle_gamma                 88.9422
loop_
_atom_site_label
_atom_site_type_symbol
_atom_site_fract_x
_atom_site_fract_y
_atom_site_fract_z
_atom_site_U_iso_or_equiv
_atom_site_adp_type
_atom_site_occupancy
Ba1    Ba    0.91363   0.52175   0.17176   0.01267  Uiso   1.00
Ba2    Ba    0.47825   0.08637   0.32824   0.01267  Uiso   1.00
Ba3    Ba    0.08637   0.47825   0.82824   0.01267  Uiso   1.00
Ba4    Ba    0.52175   0.91363   0.67176   0.01267  Uiso   1.00
Ba5    Ba    0.86269   0.13731   0.25000   0.01267  Uiso   1.00
Ba6    Ba    0.13731   0.86269   0.75000   0.01267  Uiso   1.00
U1     U     0.71343   0.39397   0.02756   0.01267  Uiso   1.00
U2     U     0.86168   0.86887   0.60100   0.01267  Uiso   1.00
U3     U     0.60603   0.28657   0.47244   0.01267  Uiso   1.00
U4     U     0.13113   0.13832   0.89900   0.01267  Uiso   1.00
U5     U     0.28657   0.60603   0.97244   0.01267  Uiso   1.00
U6     U     0.13832   0.13113   0.39900   0.01267  Uiso   1.00
U7     U     0.39397   0.71343   0.52756   0.01267  Uiso   1.00
U8     U     0.86887   0.86168   0.10100   0.01267  Uiso   1.00
P1     P     0.38299   0.33495   0.13488   0.01267  Uiso   1.00
P2     P     0.15897   0.29781   0.09309   0.01267  Uiso   1.00
P3     P     0.66505   0.61701   0.36512   0.01267  Uiso   1.00
P4     P     0.70219   0.84103   0.40691   0.01267  Uiso   1.00
P5     P     0.61701   0.66505   0.86512   0.01267  Uiso   1.00
P6     P     0.84103   0.70219   0.90691   0.01267  Uiso   1.00
P7     P     0.33495   0.38299   0.63488   0.01267  Uiso   1.00
P8     P     0.29781   0.15897   0.59309   0.01267  Uiso   1.00
H1     H     0.32500   0.19420   0.06990   0.01267  Uiso   1.00
H2     H     0.35670   0.32170   0.96660   0.01267  Uiso   1.00
H3     H     0.80580   0.67500   0.43010   0.01267  Uiso   1.00
H4     H     0.67830   0.64330   0.53340   0.01267  Uiso   1.00
H5     H     0.67500   0.80580   0.93010   0.01267  Uiso   1.00
H6     H     0.64330   0.67830   0.03340   0.01267  Uiso   1.00
H7     H     0.19420   0.32500   0.56990   0.01267  Uiso   1.00
H8     H     0.32170   0.35670   0.46660   0.01267  Uiso   1.00
C1     C     0.31554   0.27892   0.05259   0.01267  Uiso   1.00
C2     C     0.72108   0.68446   0.44741   0.01267  Uiso   1.00
C3     C     0.68446   0.72108   0.94741   0.01267  Uiso   1.00
C4     C     0.27892   0.31554   0.55259   0.01267  Uiso   1.00
O1     O     0.14055   0.42763   0.08118   0.01267  Uiso   1.00
O2     O     0.37166   0.46906   0.09934   0.01267  Uiso   1.00
O3     O     0.77979   0.97633   0.65532   0.01267  Uiso   1.00
O4     O     0.09281   0.21185   0.22399   0.01267  Uiso   1.00
O5     O     0.30951   0.26431   0.26953   0.01267  Uiso   1.00
O6     O     0.51219   0.30509   0.10708   0.01267  Uiso   1.00
O7     O     0.11197   0.26373   0.00900   0.01267  Uiso   1.00
O8     O     0.57237   0.85945   0.41882   0.01267  Uiso   1.00
O9     O     0.53094   0.62834   0.40066   0.01267  Uiso   1.00
O10    O     0.02367   0.22021   0.84468   0.01267  Uiso   1.00
O11    O     0.78815   0.90719   0.27601   0.01267  Uiso   1.00
O12    O     0.73569   0.69049   0.23047   0.01267  Uiso   1.00
O13    O     0.69491   0.48781   0.39292   0.01267  Uiso   1.00
O14    O     0.73627   0.88803   0.49100   0.01267  Uiso   1.00
O15    O     0.85945   0.57237   0.91882   0.01267  Uiso   1.00
O16    O     0.62834   0.53094   0.90066   0.01267  Uiso   1.00
O17    O     0.22021   0.02367   0.34468   0.01267  Uiso   1.00
O18    O     0.90719   0.78815   0.77601   0.01267  Uiso   1.00
O19    O     0.69049   0.73569   0.73047   0.01267  Uiso   1.00
O20    O     0.48781   0.69491   0.89292   0.01267  Uiso   1.00
O21    O     0.88803   0.73627   0.99100   0.01267  Uiso   1.00
O22    O     0.42763   0.14055   0.58118   0.01267  Uiso   1.00
O23    O     0.46906   0.37166   0.59934   0.01267  Uiso   1.00
O24    O     0.97633   0.77979   0.15532   0.01267  Uiso   1.00
O25    O     0.21185   0.09281   0.72399   0.01267  Uiso   1.00
O26    O     0.26431   0.30951   0.76953   0.01267  Uiso   1.00
O27    O     0.30509   0.51219   0.60708   0.01267  Uiso   1.00
O28    O     0.26373   0.11197   0.50900   0.01267  Uiso   1.00
F1     F     0.89185   0.36465   0.06631   0.01267  Uiso   1.00
F2     F     0.79647   0.30933   0.32771   0.01267  Uiso   1.00
F3     F     0.95801   0.02885   0.41673   0.01267  Uiso   1.00
F4     F     0.63535   0.10815   0.43369   0.01267  Uiso   1.00
F5     F     0.69067   0.20353   0.17229   0.01267  Uiso   1.00
F6     F     0.97115   0.04199   0.08327   0.01267  Uiso   1.00
F7     F     0.10815   0.63535   0.93369   0.01267  Uiso   1.00
F8     F     0.20353   0.69067   0.67229   0.01267  Uiso   1.00
F9     F     0.04199   0.97115   0.58327   0.01267  Uiso   1.00
F10    F     0.36465   0.89185   0.56631   0.01267  Uiso   1.00
F11    F     0.30933   0.79647   0.82771   0.01267  Uiso   1.00
F12    F     0.02885   0.95801   0.91673   0.01267  Uiso   1.00
