data_YAYPAR_charged
_audit_creation_date              2014-07-02
_audit_creation_method            'Materials Studio'
_symmetry_space_group_name_H-M    'P1'
_symmetry_Int_Tables_number       1
_symmetry_cell_setting            triclinic
loop_
_symmetry_equiv_pos_as_xyz
  x,y,z
_cell_length_a                    10.1611
_cell_length_b                    10.2490
_cell_length_c                    20.5782
_cell_angle_alpha                 90.0000
_cell_angle_beta                  90.0000
_cell_angle_gamma                 95.8630
loop_
_atom_site_label
_atom_site_type_symbol
_atom_site_fract_x
_atom_site_fract_y
_atom_site_fract_z
_atom_site_U_iso_or_equiv
_atom_site_adp_type
_atom_site_occupancy
Th1    Th    0.99918   0.12814   0.40690   0.01267  Uiso   1.00
Th2    Th    0.99319   0.17145   0.18752   0.01267  Uiso   1.00
Th3    Th    0.00082   0.37186   0.90690   0.01267  Uiso   1.00
Th4    Th    0.00681   0.32855   0.68752   0.01267  Uiso   1.00
Th5    Th    0.00082   0.87186   0.59310   0.01267  Uiso   1.00
Th6    Th    0.00681   0.82855   0.81248   0.01267  Uiso   1.00
Th7    Th    0.99918   0.62814   0.09310   0.01267  Uiso   1.00
Th8    Th    0.99319   0.67145   0.31248   0.01267  Uiso   1.00
P1     P     0.80119   0.33090   0.30857   0.01267  Uiso   1.00
P2     P     0.19607   0.87200   0.43531   0.01267  Uiso   1.00
P3     P     0.18225   0.39038   0.30630   0.01267  Uiso   1.00
P4     P     0.81615   0.80150   0.43703   0.01267  Uiso   1.00
P5     P     0.19881   0.16910   0.80857   0.01267  Uiso   1.00
P6     P     0.80393   0.62800   0.93531   0.01267  Uiso   1.00
P7     P     0.81775   0.10962   0.80630   0.01267  Uiso   1.00
P8     P     0.18385   0.69850   0.93703   0.01267  Uiso   1.00
P9     P     0.19881   0.66910   0.69143   0.01267  Uiso   1.00
P10    P     0.80393   0.12800   0.56469   0.01267  Uiso   1.00
P11    P     0.81775   0.60962   0.69370   0.01267  Uiso   1.00
P12    P     0.18385   0.19850   0.56297   0.01267  Uiso   1.00
P13    P     0.80119   0.83090   0.19143   0.01267  Uiso   1.00
P14    P     0.19607   0.37200   0.06469   0.01267  Uiso   1.00
P15    P     0.18225   0.89038   0.19370   0.01267  Uiso   1.00
P16    P     0.81615   0.30150   0.06297   0.01267  Uiso   1.00
H1     H     0.39900   0.86570   0.33890   0.01267  Uiso   1.00
H2     H     0.62290   0.83650   0.34010   0.01267  Uiso   1.00
H3     H     0.61540   0.80920   0.53600   0.01267  Uiso   1.00
H4     H     0.38950   0.83910   0.53640   0.01267  Uiso   1.00
H5     H     0.56560   0.15640   0.32590   0.01267  Uiso   1.00
H6     H     0.33990   0.17800   0.32550   0.01267  Uiso   1.00
H7     H     0.41780   0.56910   0.29430   0.01267  Uiso   1.00
H8     H     0.64410   0.54700   0.29320   0.01267  Uiso   1.00
H9     H     0.60100   0.63430   0.83890   0.01267  Uiso   1.00
H10    H     0.37710   0.66350   0.84010   0.01267  Uiso   1.00
H11    H     0.38460   0.69080   0.03600   0.01267  Uiso   1.00
H12    H     0.61050   0.66090   0.03640   0.01267  Uiso   1.00
H13    H     0.43440   0.34360   0.82590   0.01267  Uiso   1.00
H14    H     0.66010   0.32200   0.82550   0.01267  Uiso   1.00
H15    H     0.58220   0.93090   0.79430   0.01267  Uiso   1.00
H16    H     0.35590   0.95300   0.79320   0.01267  Uiso   1.00
H17    H     0.60100   0.13430   0.66110   0.01267  Uiso   1.00
H18    H     0.37710   0.16350   0.65990   0.01267  Uiso   1.00
H19    H     0.38460   0.19080   0.46400   0.01267  Uiso   1.00
H20    H     0.61050   0.16090   0.46360   0.01267  Uiso   1.00
H21    H     0.43440   0.84360   0.67410   0.01267  Uiso   1.00
H22    H     0.66010   0.82200   0.67450   0.01267  Uiso   1.00
H23    H     0.58220   0.43090   0.70570   0.01267  Uiso   1.00
H24    H     0.35590   0.45300   0.70680   0.01267  Uiso   1.00
H25    H     0.39900   0.36570   0.16110   0.01267  Uiso   1.00
H26    H     0.62290   0.33650   0.15990   0.01267  Uiso   1.00
H27    H     0.61540   0.30920   0.96400   0.01267  Uiso   1.00
H28    H     0.38950   0.33910   0.96360   0.01267  Uiso   1.00
H29    H     0.56560   0.65640   0.17410   0.01267  Uiso   1.00
H30    H     0.33990   0.67800   0.17450   0.01267  Uiso   1.00
H31    H     0.41780   0.06910   0.20570   0.01267  Uiso   1.00
H32    H     0.64410   0.04700   0.20680   0.01267  Uiso   1.00
C1     C     0.37140   0.85430   0.43740   0.01267  Uiso   1.00
C2     C     0.44250   0.85430   0.37900   0.01267  Uiso   1.00
C3     C     0.57570   0.83760   0.37990   0.01267  Uiso   1.00
C4     C     0.64120   0.82260   0.43790   0.01267  Uiso   1.00
C5     C     0.57110   0.82150   0.49620   0.01267  Uiso   1.00
C6     C     0.43650   0.83840   0.49650   0.01267  Uiso   1.00
C7     C     0.62730   0.35070   0.30980   0.01267  Uiso   1.00
C8     C     0.53540   0.24000   0.31920   0.01267  Uiso   1.00
C9     C     0.40150   0.25280   0.31860   0.01267  Uiso   1.00
C10    C     0.35590   0.37650   0.30780   0.01267  Uiso   1.00
C11    C     0.44750   0.48480   0.29980   0.01267  Uiso   1.00
C12    C     0.58250   0.47210   0.29990   0.01267  Uiso   1.00
C13    C     0.62860   0.64570   0.93740   0.01267  Uiso   1.00
C14    C     0.55750   0.64570   0.87900   0.01267  Uiso   1.00
C15    C     0.42430   0.66240   0.87990   0.01267  Uiso   1.00
C16    C     0.35880   0.67740   0.93790   0.01267  Uiso   1.00
C17    C     0.42890   0.67850   0.99620   0.01267  Uiso   1.00
C18    C     0.56350   0.66160   0.99650   0.01267  Uiso   1.00
C19    C     0.37270   0.14930   0.80980   0.01267  Uiso   1.00
C20    C     0.46460   0.26000   0.81920   0.01267  Uiso   1.00
C21    C     0.59850   0.24720   0.81860   0.01267  Uiso   1.00
C22    C     0.64410   0.12350   0.80780   0.01267  Uiso   1.00
C23    C     0.55250   0.01520   0.79980   0.01267  Uiso   1.00
C24    C     0.41750   0.02790   0.79990   0.01267  Uiso   1.00
C25    C     0.62860   0.14570   0.56260   0.01267  Uiso   1.00
C26    C     0.55750   0.14570   0.62100   0.01267  Uiso   1.00
C27    C     0.42430   0.16240   0.62010   0.01267  Uiso   1.00
C28    C     0.35880   0.17740   0.56210   0.01267  Uiso   1.00
C29    C     0.42890   0.17850   0.50380   0.01267  Uiso   1.00
C30    C     0.56350   0.16160   0.50350   0.01267  Uiso   1.00
C31    C     0.37270   0.64930   0.69020   0.01267  Uiso   1.00
C32    C     0.46460   0.76000   0.68080   0.01267  Uiso   1.00
C33    C     0.59850   0.74720   0.68140   0.01267  Uiso   1.00
C34    C     0.64410   0.62350   0.69220   0.01267  Uiso   1.00
C35    C     0.55250   0.51520   0.70020   0.01267  Uiso   1.00
C36    C     0.41750   0.52790   0.70010   0.01267  Uiso   1.00
C37    C     0.37140   0.35430   0.06260   0.01267  Uiso   1.00
C38    C     0.44250   0.35430   0.12100   0.01267  Uiso   1.00
C39    C     0.57570   0.33760   0.12010   0.01267  Uiso   1.00
C40    C     0.64120   0.32260   0.06210   0.01267  Uiso   1.00
C41    C     0.57110   0.32150   0.00380   0.01267  Uiso   1.00
C42    C     0.43650   0.33840   0.00350   0.01267  Uiso   1.00
C43    C     0.62730   0.85070   0.19020   0.01267  Uiso   1.00
C44    C     0.53540   0.74000   0.18080   0.01267  Uiso   1.00
C45    C     0.40150   0.75280   0.18140   0.01267  Uiso   1.00
C46    C     0.35590   0.87650   0.19220   0.01267  Uiso   1.00
C47    C     0.44750   0.98480   0.20020   0.01267  Uiso   1.00
C48    C     0.58250   0.97210   0.20010   0.01267  Uiso   1.00
O1     O     0.82940   0.26650   0.24360   0.01267  Uiso   1.00
O2     O     0.82840   0.24410   0.36740   0.01267  Uiso   1.00
O3     O     0.87420   0.46810   0.31540   0.01267  Uiso   1.00
O4     O     0.17650   0.99660   0.39900   0.01267  Uiso   1.00
O5     O     0.14530   0.87830   0.50480   0.01267  Uiso   1.00
O6     O     0.13080   0.75080   0.39990   0.01267  Uiso   1.00
O7     O     0.12760   0.32990   0.24330   0.01267  Uiso   1.00
O8     O     0.12310   0.31310   0.36570   0.01267  Uiso   1.00
O9     O     0.16440   0.53560   0.31230   0.01267  Uiso   1.00
O10    O     0.86310   0.79100   0.50650   0.01267  Uiso   1.00
O11    O     0.89030   0.91670   0.40060   0.01267  Uiso   1.00
O12    O     0.83130   0.67670   0.39840   0.01267  Uiso   1.00
O13    O     0.17060   0.23350   0.74360   0.01267  Uiso   1.00
O14    O     0.17160   0.25590   0.86740   0.01267  Uiso   1.00
O15    O     0.12580   0.03190   0.81540   0.01267  Uiso   1.00
O16    O     0.82350   0.50340   0.89900   0.01267  Uiso   1.00
O17    O     0.85470   0.62170   0.00480   0.01267  Uiso   1.00
O18    O     0.86920   0.74920   0.89990   0.01267  Uiso   1.00
O19    O     0.87240   0.17010   0.74330   0.01267  Uiso   1.00
O20    O     0.87690   0.18690   0.86570   0.01267  Uiso   1.00
O21    O     0.83560   0.96440   0.81230   0.01267  Uiso   1.00
O22    O     0.13690   0.70900   0.00650   0.01267  Uiso   1.00
O23    O     0.10970   0.58330   0.90060   0.01267  Uiso   1.00
O24    O     0.16870   0.82330   0.89840   0.01267  Uiso   1.00
O25    O     0.17060   0.73350   0.75640   0.01267  Uiso   1.00
O26    O     0.17160   0.75590   0.63260   0.01267  Uiso   1.00
O27    O     0.12580   0.53190   0.68460   0.01267  Uiso   1.00
O28    O     0.82350   0.00340   0.60100   0.01267  Uiso   1.00
O29    O     0.85470   0.12170   0.49520   0.01267  Uiso   1.00
O30    O     0.86920   0.24920   0.60010   0.01267  Uiso   1.00
O31    O     0.87240   0.67010   0.75670   0.01267  Uiso   1.00
O32    O     0.87690   0.68690   0.63430   0.01267  Uiso   1.00
O33    O     0.83560   0.46440   0.68770   0.01267  Uiso   1.00
O34    O     0.13690   0.20900   0.49350   0.01267  Uiso   1.00
O35    O     0.10970   0.08330   0.59940   0.01267  Uiso   1.00
O36    O     0.16870   0.32330   0.60160   0.01267  Uiso   1.00
O37    O     0.82940   0.76650   0.25640   0.01267  Uiso   1.00
O38    O     0.82840   0.74410   0.13260   0.01267  Uiso   1.00
O39    O     0.87420   0.96810   0.18460   0.01267  Uiso   1.00
O40    O     0.17650   0.49660   0.10100   0.01267  Uiso   1.00
O41    O     0.14530   0.37830   0.99520   0.01267  Uiso   1.00
O42    O     0.13080   0.25080   0.10010   0.01267  Uiso   1.00
O43    O     0.12760   0.82990   0.25670   0.01267  Uiso   1.00
O44    O     0.12310   0.81310   0.13430   0.01267  Uiso   1.00
O45    O     0.16440   0.03560   0.18770   0.01267  Uiso   1.00
O46    O     0.86310   0.29100   0.99350   0.01267  Uiso   1.00
O47    O     0.89030   0.41670   0.09940   0.01267  Uiso   1.00
O48    O     0.83130   0.17670   0.10160   0.01267  Uiso   1.00
F1     F     0.00190   0.09180   0.29560   0.01267  Uiso   1.00
F2     F     0.99810   0.40820   0.79560   0.01267  Uiso   1.00
F3     F     0.99810   0.90820   0.70440   0.01267  Uiso   1.00
F4     F     0.00190   0.59180   0.20440   0.01267  Uiso   1.00
