data_image0
_cell_length_a       11.248
_cell_length_b       20.8734
_cell_length_c       14.6641
_cell_angle_alpha    90
_cell_angle_beta     105.318
_cell_angle_gamma    90

_symmetry_space_group_name_H-M    "P 1"
_symmetry_int_tables_number       1

loop_
  _symmetry_equiv_pos_as_xyz
  'x, y, z'

loop_
  _atom_site_label
  _atom_site_occupancy
  _atom_site_fract_x
  _atom_site_fract_y
  _atom_site_fract_z
  _atom_site_thermal_displace_type
  _atom_site_B_iso_or_equiv
  _atom_site_type_symbol
  U1       1.0000 0.77722  0.22522  0.55879  Biso   1.000  U
  U2       1.0000 0.87467  0.01483  0.37284  Biso   1.000  U
  U3       1.0000 0.92344  0.41889  0.53633  Biso   1.000  U
  P1       1.0000 0.60186  0.11596  0.38537  Biso   1.000  P
  P2       1.0000 0.20442  0.44694  0.62824  Biso   1.000  P
  P3       1.0000 0.12637  0.94630  0.37640  Biso   1.000  P
  P4       1.0000 0.61711  0.36435  0.42487  Biso   1.000  P
  F1       1.0000 0.86650  0.32695  0.59440  Biso   1.000  F
  O1       1.0000 0.61910  0.16124  0.46830  Biso   1.000  O
  O2       1.0000 0.70600  0.06967  0.38920  Biso   1.000  O
  O3       1.0000 0.58050  0.15786  0.29280  Biso   1.000  O
  O4       1.0000 0.26620  0.48246  0.71700  Biso   1.000  O
  O5       1.0000 0.12690  0.38875  0.64310  Biso   1.000  O
  O6       1.0000 0.10780  0.48780  0.55740  Biso   1.000  O
  O7       1.0000 0.01560  0.96208  0.29140  Biso   1.000  O
  O8       1.0000 0.07900  0.96948  0.46060  Biso   1.000  O
  O9       1.0000 0.16450  0.87749  0.37990  Biso   1.000  O
  O10      1.0000 0.55740  0.36661  0.31520  Biso   1.000  O
  O11      1.0000 0.65510  0.29606  0.44900  Biso   1.000  O
  O12      1.0000 0.72070  0.41297  0.45410  Biso   1.000  O
  C1       1.0000 0.46510  0.06980  0.37660  Biso   1.000  C
  C2       1.0000 0.35680  0.09760  0.38180  Biso   1.000  C
  H1       1.0000 0.35230  0.14290  0.38660  Biso   1.000  H
  C3       1.0000 0.25370  0.06100  0.38040  Biso   1.000  C
  H2       1.0000 0.17980  0.08150  0.38440  Biso   1.000  H
  C4       1.0000 0.25740  0.99480  0.37320  Biso   1.000  C
  C5       1.0000 0.36510  0.96680  0.36870  Biso   1.000  C
  H3       1.0000 0.36980  0.92140  0.36470  Biso   1.000  H
  C6       1.0000 0.46860  0.00400  0.37010  Biso   1.000  C
  H4       1.0000 0.54270  0.98360  0.36640  Biso   1.000  H
  C7       1.0000 0.31920  0.42280  0.57060  Biso   1.000  C
  C8       1.0000 0.28750  0.39210  0.48460  Biso   1.000  C
  H5       1.0000 0.20330  0.38270  0.45580  Biso   1.000  H
  C9       1.0000 0.37680  0.37450  0.43900  Biso   1.000  C
  H6       1.0000 0.35290  0.35350  0.37940  Biso   1.000  H
  C10      1.0000 0.49960  0.38730  0.47990  Biso   1.000  C
  C11      1.0000 0.53220  0.41880  0.56560  Biso   1.000  C
  H7       1.0000 0.61640  0.42860  0.59380  Biso   1.000  H
  C12      1.0000 0.44330  0.43650  0.61160  Biso   1.000  C
  H8       1.0000 0.46720  0.45790  0.67080  Biso   1.000  H
  U4       1.0000 0.72278  0.72522  0.94121  Biso   1.000  U
  U5       1.0000 0.62533  0.51483  0.12716  Biso   1.000  U
  U6       1.0000 0.57656  0.91889  0.96367  Biso   1.000  U
  P5       1.0000 0.89814  0.61596  0.11463  Biso   1.000  P
  P6       1.0000 0.29558  0.94694  0.87176  Biso   1.000  P
  P7       1.0000 0.37363  0.44630  0.12360  Biso   1.000  P
  P8       1.0000 0.88289  0.86435  0.07513  Biso   1.000  P
  F2       1.0000 0.63350  0.82695  0.90560  Biso   1.000  F
  O13      1.0000 0.88090  0.66124  0.03170  Biso   1.000  O
  O14      1.0000 0.79400  0.56967  0.11080  Biso   1.000  O
  O15      1.0000 0.91950  0.65786  0.20720  Biso   1.000  O
  O16      1.0000 0.23380  0.98246  0.78300  Biso   1.000  O
  O17      1.0000 0.37310  0.88875  0.85690  Biso   1.000  O
  O18      1.0000 0.39220  0.98780  0.94260  Biso   1.000  O
  O19      1.0000 0.48440  0.46208  0.20860  Biso   1.000  O
  O20      1.0000 0.42100  0.46948  0.03940  Biso   1.000  O
  O21      1.0000 0.33550  0.37749  0.12010  Biso   1.000  O
  O22      1.0000 0.94260  0.86661  0.18480  Biso   1.000  O
  O23      1.0000 0.84490  0.79606  0.05100  Biso   1.000  O
  O24      1.0000 0.77930  0.91297  0.04590  Biso   1.000  O
  C13      1.0000 0.03490  0.56980  0.12340  Biso   1.000  C
  C14      1.0000 0.14320  0.59760  0.11820  Biso   1.000  C
  H9       1.0000 0.14770  0.64290  0.11340  Biso   1.000  H
  C15      1.0000 0.24630  0.56100  0.11960  Biso   1.000  C
  H10      1.0000 0.32020  0.58150  0.11560  Biso   1.000  H
  C16      1.0000 0.24260  0.49480  0.12680  Biso   1.000  C
  C17      1.0000 0.13490  0.46680  0.13130  Biso   1.000  C
  H11      1.0000 0.13020  0.42140  0.13530  Biso   1.000  H
  C18      1.0000 0.03140  0.50400  0.12990  Biso   1.000  C
  H12      1.0000 0.95730  0.48360  0.13360  Biso   1.000  H
  C19      1.0000 0.18080  0.92280  0.92940  Biso   1.000  C
  C20      1.0000 0.21250  0.89210  0.01540  Biso   1.000  C
  H13      1.0000 0.29670  0.88270  0.04420  Biso   1.000  H
  C21      1.0000 0.12320  0.87450  0.06100  Biso   1.000  C
  H14      1.0000 0.14710  0.85350  0.12060  Biso   1.000  H
  C22      1.0000 0.00040  0.88730  0.02010  Biso   1.000  C
  C23      1.0000 0.96780  0.91880  0.93440  Biso   1.000  C
  H15      1.0000 0.88360  0.92860  0.90620  Biso   1.000  H
  C24      1.0000 0.05670  0.93650  0.88840  Biso   1.000  C
  H16      1.0000 0.03280  0.95790  0.82920  Biso   1.000  H
  U7       1.0000 0.22278  0.77478  0.44121  Biso   1.000  U
  U8       1.0000 0.12533  0.98517  0.62716  Biso   1.000  U
  U9       1.0000 0.07656  0.58111  0.46367  Biso   1.000  U
  P9       1.0000 0.39814  0.88404  0.61463  Biso   1.000  P
  P10      1.0000 0.79558  0.55306  0.37176  Biso   1.000  P
  P11      1.0000 0.87363  0.05370  0.62360  Biso   1.000  P
  P12      1.0000 0.38289  0.63565  0.57513  Biso   1.000  P
  F3       1.0000 0.13350  0.67305  0.40560  Biso   1.000  F
  O25      1.0000 0.38090  0.83876  0.53170  Biso   1.000  O
  O26      1.0000 0.29400  0.93033  0.61080  Biso   1.000  O
  O27      1.0000 0.41950  0.84214  0.70720  Biso   1.000  O
  O28      1.0000 0.73380  0.51754  0.28300  Biso   1.000  O
  O29      1.0000 0.87310  0.61125  0.35690  Biso   1.000  O
  O30      1.0000 0.89220  0.51220  0.44260  Biso   1.000  O
  O31      1.0000 0.98440  0.03792  0.70860  Biso   1.000  O
  O32      1.0000 0.92100  0.03052  0.53940  Biso   1.000  O
  O33      1.0000 0.83550  0.12251  0.62010  Biso   1.000  O
  O34      1.0000 0.44260  0.63339  0.68480  Biso   1.000  O
  O35      1.0000 0.34490  0.70394  0.55100  Biso   1.000  O
  O36      1.0000 0.27930  0.58703  0.54590  Biso   1.000  O
  C25      1.0000 0.53490  0.93020  0.62340  Biso   1.000  C
  C26      1.0000 0.64320  0.90240  0.61820  Biso   1.000  C
  H17      1.0000 0.64770  0.85710  0.61340  Biso   1.000  H
  C27      1.0000 0.74630  0.93900  0.61960  Biso   1.000  C
  H18      1.0000 0.82020  0.91850  0.61560  Biso   1.000  H
  C28      1.0000 0.74260  0.00520  0.62680  Biso   1.000  C
  C29      1.0000 0.63490  0.03320  0.63130  Biso   1.000  C
  H19      1.0000 0.63020  0.07860  0.63530  Biso   1.000  H
  C30      1.0000 0.53140  0.99600  0.62990  Biso   1.000  C
  H20      1.0000 0.45730  0.01640  0.63360  Biso   1.000  H
  C31      1.0000 0.68080  0.57720  0.42940  Biso   1.000  C
  C32      1.0000 0.71250  0.60790  0.51540  Biso   1.000  C
  H21      1.0000 0.79670  0.61730  0.54420  Biso   1.000  H
  C33      1.0000 0.62320  0.62550  0.56100  Biso   1.000  C
  H22      1.0000 0.64710  0.64650  0.62060  Biso   1.000  H
  C34      1.0000 0.50040  0.61270  0.52010  Biso   1.000  C
  C35      1.0000 0.46780  0.58120  0.43440  Biso   1.000  C
  H23      1.0000 0.38360  0.57140  0.40620  Biso   1.000  H
  C36      1.0000 0.55670  0.56350  0.38840  Biso   1.000  C
  H24      1.0000 0.53280  0.54210  0.32920  Biso   1.000  H
  U10      1.0000 0.27722  0.27478  0.05879  Biso   1.000  U
  U11      1.0000 0.37467  0.48517  0.87284  Biso   1.000  U
  U12      1.0000 0.42344  0.08111  0.03633  Biso   1.000  U
  P13      1.0000 0.10186  0.38404  0.88537  Biso   1.000  P
  P14      1.0000 0.70442  0.05306  0.12824  Biso   1.000  P
  P15      1.0000 0.62637  0.55370  0.87640  Biso   1.000  P
  P16      1.0000 0.11711  0.13565  0.92487  Biso   1.000  P
  F4       1.0000 0.36650  0.17305  0.09440  Biso   1.000  F
  O37      1.0000 0.11910  0.33876  0.96830  Biso   1.000  O
  O38      1.0000 0.20600  0.43033  0.88920  Biso   1.000  O
  O39      1.0000 0.08050  0.34214  0.79280  Biso   1.000  O
  O40      1.0000 0.76620  0.01754  0.21700  Biso   1.000  O
  O41      1.0000 0.62690  0.11125  0.14310  Biso   1.000  O
  O42      1.0000 0.60780  0.01220  0.05740  Biso   1.000  O
  O43      1.0000 0.51560  0.53792  0.79140  Biso   1.000  O
  O44      1.0000 0.57900  0.53052  0.96060  Biso   1.000  O
  O45      1.0000 0.66450  0.62251  0.87990  Biso   1.000  O
  O46      1.0000 0.05740  0.13339  0.81520  Biso   1.000  O
  O47      1.0000 0.15510  0.20394  0.94900  Biso   1.000  O
  O48      1.0000 0.22070  0.08703  0.95410  Biso   1.000  O
  C37      1.0000 0.96510  0.43020  0.87660  Biso   1.000  C
  C38      1.0000 0.85680  0.40240  0.88180  Biso   1.000  C
  H25      1.0000 0.85230  0.35710  0.88660  Biso   1.000  H
  C39      1.0000 0.75370  0.43900  0.88040  Biso   1.000  C
  H26      1.0000 0.67980  0.41850  0.88440  Biso   1.000  H
  C40      1.0000 0.75740  0.50520  0.87320  Biso   1.000  C
  C41      1.0000 0.86510  0.53320  0.86870  Biso   1.000  C
  H27      1.0000 0.86980  0.57860  0.86470  Biso   1.000  H
  C42      1.0000 0.96860  0.49600  0.87010  Biso   1.000  C
  H28      1.0000 0.04270  0.51640  0.86640  Biso   1.000  H
  C43      1.0000 0.81920  0.07720  0.07060  Biso   1.000  C
  C44      1.0000 0.78750  0.10790  0.98460  Biso   1.000  C
  H29      1.0000 0.70330  0.11730  0.95580  Biso   1.000  H
  C45      1.0000 0.87680  0.12550  0.93900  Biso   1.000  C
  H30      1.0000 0.85290  0.14650  0.87940  Biso   1.000  H
  C46      1.0000 0.99960  0.11270  0.97990  Biso   1.000  C
  C47      1.0000 0.03220  0.08120  0.06560  Biso   1.000  C
  H31      1.0000 0.11640  0.07140  0.09380  Biso   1.000  H
  C48      1.0000 0.94330  0.06350  0.11160  Biso   1.000  C
  H32      1.0000 0.96720  0.04210  0.17080  Biso   1.000  H
