data_image0
_cell_length_a       27.943
_cell_length_b       27.943
_cell_length_c       17.707
_cell_angle_alpha    90
_cell_angle_beta     90
_cell_angle_gamma    120

_symmetry_space_group_name_H-M    "P 1"
_symmetry_int_tables_number       1

loop_
  _symmetry_equiv_pos_as_xyz
  'x, y, z'

loop_
  _atom_site_label
  _atom_site_occupancy
  _atom_site_fract_x
  _atom_site_fract_y
  _atom_site_fract_z
  _atom_site_thermal_displace_type
  _atom_site_B_iso_or_equiv
  _atom_site_type_symbol
  Ga1      1.0000 0.88143  0.38769  0.85568  Biso   1.000  Ga
  O1       1.0000 0.92293  0.44915  0.79610  Biso   1.000  O
  O2       1.0000 0.86026  0.40910  0.70580  Biso   1.000  O
  O3       1.0000 0.90388  0.49299  0.45337  Biso   1.000  O
  O4       1.0000 0.98381  0.56985  0.43021  Biso   1.000  O
  O5       1.0000 0.10677  0.66710  0.64647  Biso   1.000  O
  O6       1.0000 0.09182  0.62371  0.75670  Biso   1.000  O
  O7       1.0000 0.80512  0.35455  0.85929  Biso   1.000  O
  O8       1.0000 0.81433  0.43685  0.86570  Biso   1.000  O
  C1       1.0000 0.94128  0.49381  0.67900  Biso   1.000  C
  C2       1.0000 0.92849  0.49335  0.60240  Biso   1.000  C
  H1       1.0000 0.89630  0.46390  0.58280  Biso   1.000  H
  C3       1.0000 0.96373  0.53670  0.55550  Biso   1.000  C
  C4       1.0000 0.01106  0.58087  0.58550  Biso   1.000  C
  H2       1.0000 0.03410  0.61030  0.55440  Biso   1.000  H
  C5       1.0000 0.02449  0.58194  0.66010  Biso   1.000  C
  C6       1.0000 0.99009  0.53875  0.70730  Biso   1.000  C
  H3       1.0000 0.99930  0.53950  0.75790  Biso   1.000  H
  C7       1.0000 0.90450  0.44700  0.72890  Biso   1.000  C
  C8       1.0000 0.95120  0.53465  0.47310  Biso   1.000  C
  C9       1.0000 0.07700  0.62630  0.69280  Biso   1.000  C
  C10      1.0000 0.72369  0.35800  0.86080  Biso   1.000  C
  C11      1.0000 0.69790  0.38950  0.86000  Biso   1.000  C
  H4       1.0000 0.71950  0.42790  0.85880  Biso   1.000  H
  C12      1.0000 0.78570  0.38670  0.86250  Biso   1.000  C
  Ga2      1.0000 0.54810  0.72103  0.18901  Biso   1.000  Ga
  O9       1.0000 0.58960  0.78248  0.12943  Biso   1.000  O
  O10      1.0000 0.52693  0.74243  0.03913  Biso   1.000  O
  O11      1.0000 0.57055  0.82632  0.78670  Biso   1.000  O
  O12      1.0000 0.65048  0.90318  0.76354  Biso   1.000  O
  O13      1.0000 0.77344  0.00043  0.97980  Biso   1.000  O
  O14      1.0000 0.75849  0.95704  0.09003  Biso   1.000  O
  O15      1.0000 0.47179  0.68788  0.19262  Biso   1.000  O
  O16      1.0000 0.48100  0.77018  0.19903  Biso   1.000  O
  C13      1.0000 0.60795  0.82714  0.01233  Biso   1.000  C
  C14      1.0000 0.59516  0.82668  0.93573  Biso   1.000  C
  H5       1.0000 0.56297  0.79723  0.91613  Biso   1.000  H
  C15      1.0000 0.63040  0.87003  0.88883  Biso   1.000  C
  C16      1.0000 0.67773  0.91420  0.91883  Biso   1.000  C
  H6       1.0000 0.70077  0.94363  0.88773  Biso   1.000  H
  C17      1.0000 0.69116  0.91527  0.99343  Biso   1.000  C
  C18      1.0000 0.65676  0.87208  0.04063  Biso   1.000  C
  H7       1.0000 0.66597  0.87283  0.09123  Biso   1.000  H
  C19      1.0000 0.57117  0.78033  0.06223  Biso   1.000  C
  C20      1.0000 0.61787  0.86798  0.80643  Biso   1.000  C
  C21      1.0000 0.74367  0.95963  0.02613  Biso   1.000  C
  C22      1.0000 0.39036  0.69133  0.19413  Biso   1.000  C
  C23      1.0000 0.36457  0.72283  0.19333  Biso   1.000  C
  H8       1.0000 0.38617  0.76123  0.19213  Biso   1.000  H
  C24      1.0000 0.45237  0.72003  0.19583  Biso   1.000  C
  Ga3      1.0000 0.21477  0.05436  0.52235  Biso   1.000  Ga
  O17      1.0000 0.25626  0.11582  0.46277  Biso   1.000  O
  O18      1.0000 0.19359  0.07577  0.37247  Biso   1.000  O
  O19      1.0000 0.23721  0.15966  0.12004  Biso   1.000  O
  O20      1.0000 0.31714  0.23652  0.09688  Biso   1.000  O
  O21      1.0000 0.44010  0.33377  0.31314  Biso   1.000  O
  O22      1.0000 0.42515  0.29038  0.42337  Biso   1.000  O
  O23      1.0000 0.13845  0.02122  0.52596  Biso   1.000  O
  O24      1.0000 0.14766  0.10352  0.53237  Biso   1.000  O
  C25      1.0000 0.27461  0.16048  0.34567  Biso   1.000  C
  C26      1.0000 0.26182  0.16002  0.26907  Biso   1.000  C
  H9       1.0000 0.22963  0.13057  0.24947  Biso   1.000  H
  C27      1.0000 0.29706  0.20337  0.22217  Biso   1.000  C
  C28      1.0000 0.34439  0.24754  0.25217  Biso   1.000  C
  H10      1.0000 0.36743  0.27697  0.22107  Biso   1.000  H
  C29      1.0000 0.35782  0.24861  0.32677  Biso   1.000  C
  C30      1.0000 0.32342  0.20542  0.37397  Biso   1.000  C
  H11      1.0000 0.33263  0.20617  0.42457  Biso   1.000  H
  C31      1.0000 0.23783  0.11367  0.39557  Biso   1.000  C
  C32      1.0000 0.28453  0.20132  0.13977  Biso   1.000  C
  C33      1.0000 0.41033  0.29297  0.35947  Biso   1.000  C
  C34      1.0000 0.05702  0.02467  0.52747  Biso   1.000  C
  C35      1.0000 0.03123  0.05617  0.52667  Biso   1.000  C
  H12      1.0000 0.05283  0.09457  0.52547  Biso   1.000  H
  C36      1.0000 0.11903  0.05337  0.52917  Biso   1.000  C
  Ga4      1.0000 0.61231  0.49374  0.85568  Biso   1.000  Ga
  O25      1.0000 0.55085  0.47378  0.79610  Biso   1.000  O
  O26      1.0000 0.59090  0.45116  0.70580  Biso   1.000  O
  O27      1.0000 0.50701  0.41089  0.45337  Biso   1.000  O
  O28      1.0000 0.43015  0.41396  0.43021  Biso   1.000  O
  O29      1.0000 0.33290  0.43967  0.64647  Biso   1.000  O
  O30      1.0000 0.37629  0.46811  0.75670  Biso   1.000  O
  O31      1.0000 0.64545  0.45057  0.85929  Biso   1.000  O
  O32      1.0000 0.56315  0.37748  0.86570  Biso   1.000  O
  C37      1.0000 0.50619  0.44747  0.67900  Biso   1.000  C
  C38      1.0000 0.50665  0.43514  0.60240  Biso   1.000  C
  H13      1.0000 0.53610  0.43240  0.58280  Biso   1.000  H
  C39      1.0000 0.46330  0.42703  0.55550  Biso   1.000  C
  C40      1.0000 0.41913  0.43019  0.58550  Biso   1.000  C
  H14      1.0000 0.38970  0.42380  0.55440  Biso   1.000  H
  C41      1.0000 0.41806  0.44255  0.66010  Biso   1.000  C
  C42      1.0000 0.46125  0.45134  0.70730  Biso   1.000  C
  H15      1.0000 0.46050  0.45980  0.75790  Biso   1.000  H
  C43      1.0000 0.55300  0.45750  0.72890  Biso   1.000  C
  C44      1.0000 0.46535  0.41655  0.47310  Biso   1.000  C
  C45      1.0000 0.37370  0.45070  0.69280  Biso   1.000  C
  C46      1.0000 0.64200  0.36569  0.86080  Biso   1.000  C
  C47      1.0000 0.61050  0.30840  0.86000  Biso   1.000  C
  H16      1.0000 0.57210  0.29160  0.85880  Biso   1.000  H
  C48      1.0000 0.61330  0.39900  0.86250  Biso   1.000  C
  Ga5      1.0000 0.27897  0.82707  0.18901  Biso   1.000  Ga
  O33      1.0000 0.21752  0.80711  0.12943  Biso   1.000  O
  O34      1.0000 0.25757  0.78449  0.03913  Biso   1.000  O
  O35      1.0000 0.17368  0.74422  0.78670  Biso   1.000  O
  O36      1.0000 0.09682  0.74729  0.76354  Biso   1.000  O
  O37      1.0000 0.99957  0.77300  0.97980  Biso   1.000  O
  O38      1.0000 0.04296  0.80144  0.09003  Biso   1.000  O
  O39      1.0000 0.31212  0.78390  0.19262  Biso   1.000  O
  O40      1.0000 0.22982  0.71081  0.19903  Biso   1.000  O
  C49      1.0000 0.17286  0.78080  0.01233  Biso   1.000  C
  C50      1.0000 0.17332  0.76847  0.93573  Biso   1.000  C
  H17      1.0000 0.20277  0.76573  0.91613  Biso   1.000  H
  C51      1.0000 0.12997  0.76036  0.88883  Biso   1.000  C
  C52      1.0000 0.08580  0.76352  0.91883  Biso   1.000  C
  H18      1.0000 0.05637  0.75713  0.88773  Biso   1.000  H
  C53      1.0000 0.08473  0.77588  0.99343  Biso   1.000  C
  C54      1.0000 0.12792  0.78467  0.04063  Biso   1.000  C
  H19      1.0000 0.12717  0.79313  0.09123  Biso   1.000  H
  C55      1.0000 0.21967  0.79083  0.06223  Biso   1.000  C
  C56      1.0000 0.13202  0.74988  0.80643  Biso   1.000  C
  C57      1.0000 0.04037  0.78403  0.02613  Biso   1.000  C
  C58      1.0000 0.30867  0.69902  0.19413  Biso   1.000  C
  C59      1.0000 0.27717  0.64173  0.19333  Biso   1.000  C
  H20      1.0000 0.23877  0.62493  0.19213  Biso   1.000  H
  C60      1.0000 0.27997  0.73233  0.19583  Biso   1.000  C
  Ga6      1.0000 0.94564  0.16041  0.52235  Biso   1.000  Ga
  O41      1.0000 0.88418  0.14045  0.46277  Biso   1.000  O
  O42      1.0000 0.92423  0.11783  0.37247  Biso   1.000  O
  O43      1.0000 0.84034  0.07756  0.12004  Biso   1.000  O
  O44      1.0000 0.76348  0.08063  0.09688  Biso   1.000  O
  O45      1.0000 0.66623  0.10634  0.31314  Biso   1.000  O
  O46      1.0000 0.70962  0.13478  0.42337  Biso   1.000  O
  O47      1.0000 0.97878  0.11724  0.52596  Biso   1.000  O
  O48      1.0000 0.89648  0.04415  0.53237  Biso   1.000  O
  C61      1.0000 0.83952  0.11414  0.34567  Biso   1.000  C
  C62      1.0000 0.83998  0.10181  0.26907  Biso   1.000  C
  H21      1.0000 0.86943  0.09907  0.24947  Biso   1.000  H
  C63      1.0000 0.79663  0.09370  0.22217  Biso   1.000  C
  C64      1.0000 0.75246  0.09686  0.25217  Biso   1.000  C
  H22      1.0000 0.72303  0.09047  0.22107  Biso   1.000  H
  C65      1.0000 0.75139  0.10922  0.32677  Biso   1.000  C
  C66      1.0000 0.79458  0.11801  0.37397  Biso   1.000  C
  H23      1.0000 0.79383  0.12647  0.42457  Biso   1.000  H
  C67      1.0000 0.88633  0.12417  0.39557  Biso   1.000  C
  C68      1.0000 0.79868  0.08322  0.13977  Biso   1.000  C
  C69      1.0000 0.70703  0.11737  0.35947  Biso   1.000  C
  C70      1.0000 0.97533  0.03236  0.52747  Biso   1.000  C
  C71      1.0000 0.94383  0.97507  0.52667  Biso   1.000  C
  H24      1.0000 0.90543  0.95827  0.52547  Biso   1.000  H
  C72      1.0000 0.94663  0.06567  0.52917  Biso   1.000  C
  Ga7      1.0000 0.50626  0.11857  0.85568  Biso   1.000  Ga
  O49      1.0000 0.52622  0.07707  0.79610  Biso   1.000  O
  O50      1.0000 0.54884  0.13974  0.70580  Biso   1.000  O
  O51      1.0000 0.58911  0.09612  0.45337  Biso   1.000  O
  O52      1.0000 0.58604  0.01619  0.43021  Biso   1.000  O
  O53      1.0000 0.56033  0.89323  0.64647  Biso   1.000  O
  O54      1.0000 0.53189  0.90818  0.75670  Biso   1.000  O
  O55      1.0000 0.54943  0.19488  0.85929  Biso   1.000  O
  O56      1.0000 0.62252  0.18567  0.86570  Biso   1.000  O
  C73      1.0000 0.55253  0.05872  0.67900  Biso   1.000  C
  C74      1.0000 0.56486  0.07151  0.60240  Biso   1.000  C
  H25      1.0000 0.56760  0.10370  0.58280  Biso   1.000  H
  C75      1.0000 0.57297  0.03627  0.55550  Biso   1.000  C
  C76      1.0000 0.56981  0.98894  0.58550  Biso   1.000  C
  H26      1.0000 0.57620  0.96590  0.55440  Biso   1.000  H
  C77      1.0000 0.55745  0.97551  0.66010  Biso   1.000  C
  C78      1.0000 0.54866  0.00991  0.70730  Biso   1.000  C
  H27      1.0000 0.54020  0.00070  0.75790  Biso   1.000  H
  C79      1.0000 0.54250  0.09550  0.72890  Biso   1.000  C
  C80      1.0000 0.58345  0.04880  0.47310  Biso   1.000  C
  C81      1.0000 0.54930  0.92300  0.69280  Biso   1.000  C
  C82      1.0000 0.63431  0.27631  0.86080  Biso   1.000  C
  C83      1.0000 0.69160  0.30210  0.86000  Biso   1.000  C
  H28      1.0000 0.70840  0.28050  0.85880  Biso   1.000  H
  C84      1.0000 0.60100  0.21430  0.86250  Biso   1.000  C
  Ga8      1.0000 0.17293  0.45190  0.18901  Biso   1.000  Ga
  O57      1.0000 0.19289  0.41040  0.12943  Biso   1.000  O
  O58      1.0000 0.21551  0.47307  0.03913  Biso   1.000  O
  O59      1.0000 0.25578  0.42945  0.78670  Biso   1.000  O
  O60      1.0000 0.25271  0.34952  0.76354  Biso   1.000  O
  O61      1.0000 0.22700  0.22656  0.97980  Biso   1.000  O
  O62      1.0000 0.19856  0.24151  0.09003  Biso   1.000  O
  O63      1.0000 0.21610  0.52821  0.19262  Biso   1.000  O
  O64      1.0000 0.28919  0.51900  0.19903  Biso   1.000  O
  C85      1.0000 0.21920  0.39205  0.01233  Biso   1.000  C
  C86      1.0000 0.23153  0.40484  0.93573  Biso   1.000  C
  H29      1.0000 0.23427  0.43703  0.91613  Biso   1.000  H
  C87      1.0000 0.23964  0.36960  0.88883  Biso   1.000  C
  C88      1.0000 0.23648  0.32227  0.91883  Biso   1.000  C
  H30      1.0000 0.24287  0.29923  0.88773  Biso   1.000  H
  C89      1.0000 0.22412  0.30884  0.99343  Biso   1.000  C
  C90      1.0000 0.21533  0.34324  0.04063  Biso   1.000  C
  H31      1.0000 0.20687  0.33403  0.09123  Biso   1.000  H
  C91      1.0000 0.20917  0.42883  0.06223  Biso   1.000  C
  C92      1.0000 0.25012  0.38213  0.80643  Biso   1.000  C
  C93      1.0000 0.21597  0.25633  0.02613  Biso   1.000  C
  C94      1.0000 0.30098  0.60964  0.19413  Biso   1.000  C
  C95      1.0000 0.35827  0.63543  0.19333  Biso   1.000  C
  H32      1.0000 0.37507  0.61383  0.19213  Biso   1.000  H
  C96      1.0000 0.26767  0.54763  0.19583  Biso   1.000  C
  Ga9      1.0000 0.83959  0.78523  0.52235  Biso   1.000  Ga
  O65      1.0000 0.85955  0.74374  0.46277  Biso   1.000  O
  O66      1.0000 0.88217  0.80641  0.37247  Biso   1.000  O
  O67      1.0000 0.92244  0.76279  0.12004  Biso   1.000  O
  O68      1.0000 0.91937  0.68286  0.09688  Biso   1.000  O
  O69      1.0000 0.89366  0.55990  0.31314  Biso   1.000  O
  O70      1.0000 0.86522  0.57485  0.42337  Biso   1.000  O
  O71      1.0000 0.88276  0.86155  0.52596  Biso   1.000  O
  O72      1.0000 0.95585  0.85234  0.53237  Biso   1.000  O
  C97      1.0000 0.88586  0.72539  0.34567  Biso   1.000  C
  C98      1.0000 0.89819  0.73818  0.26907  Biso   1.000  C
  H33      1.0000 0.90093  0.77037  0.24947  Biso   1.000  H
  C99      1.0000 0.90630  0.70294  0.22217  Biso   1.000  C
  C100     1.0000 0.90314  0.65561  0.25217  Biso   1.000  C
  H34      1.0000 0.90953  0.63257  0.22107  Biso   1.000  H
  C101     1.0000 0.89078  0.64218  0.32677  Biso   1.000  C
  C102     1.0000 0.88199  0.67658  0.37397  Biso   1.000  C
  H35      1.0000 0.87353  0.66737  0.42457  Biso   1.000  H
  C103     1.0000 0.87583  0.76217  0.39557  Biso   1.000  C
  C104     1.0000 0.91678  0.71547  0.13977  Biso   1.000  C
  C105     1.0000 0.88263  0.58967  0.35947  Biso   1.000  C
  C106     1.0000 0.96764  0.94298  0.52747  Biso   1.000  C
  C107     1.0000 0.02493  0.96877  0.52667  Biso   1.000  C
  H36      1.0000 0.04173  0.94717  0.52547  Biso   1.000  H
  C108     1.0000 0.93433  0.88097  0.52917  Biso   1.000  C
  Ga10     1.0000 0.61231  0.11857  0.35568  Biso   1.000  Ga
  O73      1.0000 0.55085  0.07707  0.29610  Biso   1.000  O
  O74      1.0000 0.59090  0.13974  0.20580  Biso   1.000  O
  O75      1.0000 0.50701  0.09612  0.95337  Biso   1.000  O
  O76      1.0000 0.43015  0.01619  0.93021  Biso   1.000  O
  O77      1.0000 0.33290  0.89323  0.14647  Biso   1.000  O
  O78      1.0000 0.37629  0.90818  0.25670  Biso   1.000  O
  O79      1.0000 0.64545  0.19488  0.35929  Biso   1.000  O
  O80      1.0000 0.56315  0.18567  0.36570  Biso   1.000  O
  C109     1.0000 0.50619  0.05872  0.17900  Biso   1.000  C
  C110     1.0000 0.50665  0.07151  0.10240  Biso   1.000  C
  H37      1.0000 0.53610  0.10370  0.08280  Biso   1.000  H
  C111     1.0000 0.46330  0.03627  0.05550  Biso   1.000  C
  C112     1.0000 0.41913  0.98894  0.08550  Biso   1.000  C
  H38      1.0000 0.38970  0.96590  0.05440  Biso   1.000  H
  C113     1.0000 0.41806  0.97551  0.16010  Biso   1.000  C
  C114     1.0000 0.46125  0.00991  0.20730  Biso   1.000  C
  H39      1.0000 0.46050  0.00070  0.25790  Biso   1.000  H
  C115     1.0000 0.55300  0.09550  0.22890  Biso   1.000  C
  C116     1.0000 0.46535  0.04880  0.97310  Biso   1.000  C
  C117     1.0000 0.37370  0.92300  0.19280  Biso   1.000  C
  C118     1.0000 0.64200  0.27631  0.36080  Biso   1.000  C
  C119     1.0000 0.61050  0.30210  0.36000  Biso   1.000  C
  H40      1.0000 0.57210  0.28050  0.35880  Biso   1.000  H
  C120     1.0000 0.61330  0.21430  0.36250  Biso   1.000  C
  Ga11     1.0000 0.27897  0.45190  0.68901  Biso   1.000  Ga
  O81      1.0000 0.21752  0.41040  0.62943  Biso   1.000  O
  O82      1.0000 0.25757  0.47307  0.53913  Biso   1.000  O
  O83      1.0000 0.17368  0.42945  0.28670  Biso   1.000  O
  O84      1.0000 0.09682  0.34952  0.26354  Biso   1.000  O
  O85      1.0000 0.99957  0.22656  0.47980  Biso   1.000  O
  O86      1.0000 0.04296  0.24151  0.59003  Biso   1.000  O
  O87      1.0000 0.31212  0.52821  0.69262  Biso   1.000  O
  O88      1.0000 0.22982  0.51900  0.69903  Biso   1.000  O
  C121     1.0000 0.17286  0.39205  0.51233  Biso   1.000  C
  C122     1.0000 0.17332  0.40484  0.43573  Biso   1.000  C
  H41      1.0000 0.20277  0.43703  0.41613  Biso   1.000  H
  C123     1.0000 0.12997  0.36960  0.38883  Biso   1.000  C
  C124     1.0000 0.08580  0.32227  0.41883  Biso   1.000  C
  H42      1.0000 0.05637  0.29923  0.38773  Biso   1.000  H
  C125     1.0000 0.08473  0.30884  0.49343  Biso   1.000  C
  C126     1.0000 0.12792  0.34324  0.54063  Biso   1.000  C
  H43      1.0000 0.12717  0.33403  0.59123  Biso   1.000  H
  C127     1.0000 0.21967  0.42883  0.56223  Biso   1.000  C
  C128     1.0000 0.13202  0.38213  0.30643  Biso   1.000  C
  C129     1.0000 0.04037  0.25633  0.52613  Biso   1.000  C
  C130     1.0000 0.30867  0.60964  0.69413  Biso   1.000  C
  C131     1.0000 0.27717  0.63543  0.69333  Biso   1.000  C
  H44      1.0000 0.23877  0.61383  0.69213  Biso   1.000  H
  C132     1.0000 0.27997  0.54763  0.69583  Biso   1.000  C
  Ga12     1.0000 0.94564  0.78523  0.02235  Biso   1.000  Ga
  O89      1.0000 0.88418  0.74374  0.96277  Biso   1.000  O
  O90      1.0000 0.92423  0.80641  0.87247  Biso   1.000  O
  O91      1.0000 0.84034  0.76279  0.62004  Biso   1.000  O
  O92      1.0000 0.76348  0.68286  0.59688  Biso   1.000  O
  O93      1.0000 0.66623  0.55990  0.81314  Biso   1.000  O
  O94      1.0000 0.70962  0.57485  0.92337  Biso   1.000  O
  O95      1.0000 0.97878  0.86155  0.02596  Biso   1.000  O
  O96      1.0000 0.89648  0.85234  0.03237  Biso   1.000  O
  C133     1.0000 0.83952  0.72539  0.84567  Biso   1.000  C
  C134     1.0000 0.83998  0.73818  0.76907  Biso   1.000  C
  H45      1.0000 0.86943  0.77037  0.74947  Biso   1.000  H
  C135     1.0000 0.79663  0.70294  0.72217  Biso   1.000  C
  C136     1.0000 0.75246  0.65561  0.75217  Biso   1.000  C
  H46      1.0000 0.72303  0.63257  0.72107  Biso   1.000  H
  C137     1.0000 0.75139  0.64218  0.82677  Biso   1.000  C
  C138     1.0000 0.79458  0.67658  0.87397  Biso   1.000  C
  H47      1.0000 0.79383  0.66737  0.92457  Biso   1.000  H
  C139     1.0000 0.88633  0.76217  0.89557  Biso   1.000  C
  C140     1.0000 0.79868  0.71547  0.63977  Biso   1.000  C
  C141     1.0000 0.70703  0.58967  0.85947  Biso   1.000  C
  C142     1.0000 0.97533  0.94298  0.02747  Biso   1.000  C
  C143     1.0000 0.94383  0.96877  0.02667  Biso   1.000  C
  H48      1.0000 0.90543  0.94717  0.02547  Biso   1.000  H
  C144     1.0000 0.94663  0.88097  0.02917  Biso   1.000  C
  Ga13     1.0000 0.50626  0.38769  0.35568  Biso   1.000  Ga
  O97      1.0000 0.52622  0.44915  0.29610  Biso   1.000  O
  O98      1.0000 0.54884  0.40910  0.20580  Biso   1.000  O
  O99      1.0000 0.58911  0.49299  0.95337  Biso   1.000  O
  O100     1.0000 0.58604  0.56985  0.93021  Biso   1.000  O
  O101     1.0000 0.56033  0.66710  0.14647  Biso   1.000  O
  O102     1.0000 0.53189  0.62371  0.25670  Biso   1.000  O
  O103     1.0000 0.54943  0.35455  0.35929  Biso   1.000  O
  O104     1.0000 0.62252  0.43685  0.36570  Biso   1.000  O
  C145     1.0000 0.55253  0.49381  0.17900  Biso   1.000  C
  C146     1.0000 0.56486  0.49335  0.10240  Biso   1.000  C
  H49      1.0000 0.56760  0.46390  0.08280  Biso   1.000  H
  C147     1.0000 0.57297  0.53670  0.05550  Biso   1.000  C
  C148     1.0000 0.56981  0.58087  0.08550  Biso   1.000  C
  H50      1.0000 0.57620  0.61030  0.05440  Biso   1.000  H
  C149     1.0000 0.55745  0.58194  0.16010  Biso   1.000  C
  C150     1.0000 0.54866  0.53875  0.20730  Biso   1.000  C
  H51      1.0000 0.54020  0.53950  0.25790  Biso   1.000  H
  C151     1.0000 0.54250  0.44700  0.22890  Biso   1.000  C
  C152     1.0000 0.58345  0.53465  0.97310  Biso   1.000  C
  C153     1.0000 0.54930  0.62630  0.19280  Biso   1.000  C
  C154     1.0000 0.63431  0.35800  0.36080  Biso   1.000  C
  C155     1.0000 0.69160  0.38950  0.36000  Biso   1.000  C
  H52      1.0000 0.70840  0.42790  0.35880  Biso   1.000  H
  C156     1.0000 0.60100  0.38670  0.36250  Biso   1.000  C
  Ga14     1.0000 0.17293  0.72103  0.68901  Biso   1.000  Ga
  O105     1.0000 0.19289  0.78248  0.62943  Biso   1.000  O
  O106     1.0000 0.21551  0.74243  0.53913  Biso   1.000  O
  O107     1.0000 0.25578  0.82632  0.28670  Biso   1.000  O
  O108     1.0000 0.25271  0.90318  0.26354  Biso   1.000  O
  O109     1.0000 0.22700  0.00043  0.47980  Biso   1.000  O
  O110     1.0000 0.19856  0.95704  0.59003  Biso   1.000  O
  O111     1.0000 0.21610  0.68788  0.69262  Biso   1.000  O
  O112     1.0000 0.28919  0.77018  0.69903  Biso   1.000  O
  C157     1.0000 0.21920  0.82714  0.51233  Biso   1.000  C
  C158     1.0000 0.23153  0.82668  0.43573  Biso   1.000  C
  H53      1.0000 0.23427  0.79723  0.41613  Biso   1.000  H
  C159     1.0000 0.23964  0.87003  0.38883  Biso   1.000  C
  C160     1.0000 0.23648  0.91420  0.41883  Biso   1.000  C
  H54      1.0000 0.24287  0.94363  0.38773  Biso   1.000  H
  C161     1.0000 0.22412  0.91527  0.49343  Biso   1.000  C
  C162     1.0000 0.21533  0.87208  0.54063  Biso   1.000  C
  H55      1.0000 0.20687  0.87283  0.59123  Biso   1.000  H
  C163     1.0000 0.20917  0.78033  0.56223  Biso   1.000  C
  C164     1.0000 0.25012  0.86798  0.30643  Biso   1.000  C
  C165     1.0000 0.21597  0.95963  0.52613  Biso   1.000  C
  C166     1.0000 0.30098  0.69133  0.69413  Biso   1.000  C
  C167     1.0000 0.35827  0.72283  0.69333  Biso   1.000  C
  H56      1.0000 0.37507  0.76123  0.69213  Biso   1.000  H
  C168     1.0000 0.26767  0.72003  0.69583  Biso   1.000  C
  Ga15     1.0000 0.83959  0.05436  0.02235  Biso   1.000  Ga
  O113     1.0000 0.85955  0.11582  0.96277  Biso   1.000  O
  O114     1.0000 0.88217  0.07577  0.87247  Biso   1.000  O
  O115     1.0000 0.92244  0.15966  0.62004  Biso   1.000  O
  O116     1.0000 0.91937  0.23652  0.59688  Biso   1.000  O
  O117     1.0000 0.89366  0.33377  0.81314  Biso   1.000  O
  O118     1.0000 0.86522  0.29038  0.92337  Biso   1.000  O
  O119     1.0000 0.88276  0.02122  0.02596  Biso   1.000  O
  O120     1.0000 0.95585  0.10352  0.03237  Biso   1.000  O
  C169     1.0000 0.88586  0.16048  0.84567  Biso   1.000  C
  C170     1.0000 0.89819  0.16002  0.76907  Biso   1.000  C
  H57      1.0000 0.90093  0.13057  0.74947  Biso   1.000  H
  C171     1.0000 0.90630  0.20337  0.72217  Biso   1.000  C
  C172     1.0000 0.90314  0.24754  0.75217  Biso   1.000  C
  H58      1.0000 0.90953  0.27697  0.72107  Biso   1.000  H
  C173     1.0000 0.89078  0.24861  0.82677  Biso   1.000  C
  C174     1.0000 0.88199  0.20542  0.87397  Biso   1.000  C
  H59      1.0000 0.87353  0.20617  0.92457  Biso   1.000  H
  C175     1.0000 0.87583  0.11367  0.89557  Biso   1.000  C
  C176     1.0000 0.91678  0.20132  0.63977  Biso   1.000  C
  C177     1.0000 0.88263  0.29297  0.85947  Biso   1.000  C
  C178     1.0000 0.96764  0.02467  0.02747  Biso   1.000  C
  C179     1.0000 0.02493  0.05617  0.02667  Biso   1.000  C
  H60      1.0000 0.04173  0.09457  0.02547  Biso   1.000  H
  C180     1.0000 0.93433  0.05337  0.02917  Biso   1.000  C
  Ga16     1.0000 0.88143  0.49374  0.35568  Biso   1.000  Ga
  O121     1.0000 0.92293  0.47378  0.29610  Biso   1.000  O
  O122     1.0000 0.86026  0.45116  0.20580  Biso   1.000  O
  O123     1.0000 0.90388  0.41089  0.95337  Biso   1.000  O
  O124     1.0000 0.98381  0.41396  0.93021  Biso   1.000  O
  O125     1.0000 0.10677  0.43967  0.14647  Biso   1.000  O
  O126     1.0000 0.09182  0.46811  0.25670  Biso   1.000  O
  O127     1.0000 0.80512  0.45057  0.35929  Biso   1.000  O
  O128     1.0000 0.81433  0.37748  0.36570  Biso   1.000  O
  C181     1.0000 0.94128  0.44747  0.17900  Biso   1.000  C
  C182     1.0000 0.92849  0.43514  0.10240  Biso   1.000  C
  H61      1.0000 0.89630  0.43240  0.08280  Biso   1.000  H
  C183     1.0000 0.96373  0.42703  0.05550  Biso   1.000  C
  C184     1.0000 0.01106  0.43019  0.08550  Biso   1.000  C
  H62      1.0000 0.03410  0.42380  0.05440  Biso   1.000  H
  C185     1.0000 0.02449  0.44255  0.16010  Biso   1.000  C
  C186     1.0000 0.99009  0.45134  0.20730  Biso   1.000  C
  H63      1.0000 0.99930  0.45980  0.25790  Biso   1.000  H
  C187     1.0000 0.90450  0.45750  0.22890  Biso   1.000  C
  C188     1.0000 0.95120  0.41655  0.97310  Biso   1.000  C
  C189     1.0000 0.07700  0.45070  0.19280  Biso   1.000  C
  C190     1.0000 0.72369  0.36569  0.36080  Biso   1.000  C
  C191     1.0000 0.69790  0.30840  0.36000  Biso   1.000  C
  H64      1.0000 0.71950  0.29160  0.35880  Biso   1.000  H
  C192     1.0000 0.78570  0.39900  0.36250  Biso   1.000  C
  Ga17     1.0000 0.54810  0.82707  0.68901  Biso   1.000  Ga
  O129     1.0000 0.58960  0.80711  0.62943  Biso   1.000  O
  O130     1.0000 0.52693  0.78449  0.53913  Biso   1.000  O
  O131     1.0000 0.57055  0.74422  0.28670  Biso   1.000  O
  O132     1.0000 0.65048  0.74729  0.26354  Biso   1.000  O
  O133     1.0000 0.77344  0.77300  0.47980  Biso   1.000  O
  O134     1.0000 0.75849  0.80144  0.59003  Biso   1.000  O
  O135     1.0000 0.47179  0.78390  0.69262  Biso   1.000  O
  O136     1.0000 0.48100  0.71081  0.69903  Biso   1.000  O
  C193     1.0000 0.60795  0.78080  0.51233  Biso   1.000  C
  C194     1.0000 0.59516  0.76847  0.43573  Biso   1.000  C
  H65      1.0000 0.56297  0.76573  0.41613  Biso   1.000  H
  C195     1.0000 0.63040  0.76036  0.38883  Biso   1.000  C
  C196     1.0000 0.67773  0.76352  0.41883  Biso   1.000  C
  H66      1.0000 0.70077  0.75713  0.38773  Biso   1.000  H
  C197     1.0000 0.69116  0.77588  0.49343  Biso   1.000  C
  C198     1.0000 0.65676  0.78467  0.54063  Biso   1.000  C
  H67      1.0000 0.66597  0.79313  0.59123  Biso   1.000  H
  C199     1.0000 0.57117  0.79083  0.56223  Biso   1.000  C
  C200     1.0000 0.61787  0.74988  0.30643  Biso   1.000  C
  C201     1.0000 0.74367  0.78403  0.52613  Biso   1.000  C
  C202     1.0000 0.39036  0.69902  0.69413  Biso   1.000  C
  C203     1.0000 0.36457  0.64173  0.69333  Biso   1.000  C
  H68      1.0000 0.38617  0.62493  0.69213  Biso   1.000  H
  C204     1.0000 0.45237  0.73233  0.69583  Biso   1.000  C
  Ga18     1.0000 0.21477  0.16041  0.02235  Biso   1.000  Ga
  O137     1.0000 0.25626  0.14045  0.96277  Biso   1.000  O
  O138     1.0000 0.19359  0.11783  0.87247  Biso   1.000  O
  O139     1.0000 0.23721  0.07756  0.62004  Biso   1.000  O
  O140     1.0000 0.31714  0.08063  0.59688  Biso   1.000  O
  O141     1.0000 0.44010  0.10634  0.81314  Biso   1.000  O
  O142     1.0000 0.42515  0.13478  0.92337  Biso   1.000  O
  O143     1.0000 0.13845  0.11724  0.02596  Biso   1.000  O
  O144     1.0000 0.14766  0.04415  0.03237  Biso   1.000  O
  C205     1.0000 0.27461  0.11414  0.84567  Biso   1.000  C
  C206     1.0000 0.26182  0.10181  0.76907  Biso   1.000  C
  H69      1.0000 0.22963  0.09907  0.74947  Biso   1.000  H
  C207     1.0000 0.29706  0.09370  0.72217  Biso   1.000  C
  C208     1.0000 0.34439  0.09686  0.75217  Biso   1.000  C
  H70      1.0000 0.36743  0.09047  0.72107  Biso   1.000  H
  C209     1.0000 0.35782  0.10922  0.82677  Biso   1.000  C
  C210     1.0000 0.32342  0.11801  0.87397  Biso   1.000  C
  H71      1.0000 0.33263  0.12647  0.92457  Biso   1.000  H
  C211     1.0000 0.23783  0.12417  0.89557  Biso   1.000  C
  C212     1.0000 0.28453  0.08322  0.63977  Biso   1.000  C
  C213     1.0000 0.41033  0.11737  0.85947  Biso   1.000  C
  C214     1.0000 0.05702  0.03236  0.02747  Biso   1.000  C
  C215     1.0000 0.03123  0.97507  0.02667  Biso   1.000  C
  H72      1.0000 0.05283  0.95827  0.02547  Biso   1.000  H
  C216     1.0000 0.11903  0.06567  0.02917  Biso   1.000  C
