data_YAZYIJ_clean
_audit_creation_date              2014-07-02
_audit_creation_method            'Materials Studio'
_symmetry_space_group_name_H-M    'P1'
_symmetry_Int_Tables_number       1
_symmetry_cell_setting            triclinic
loop_
_symmetry_equiv_pos_as_xyz
  x,y,z
_cell_length_a                    6.7951
_cell_length_b                    13.1130
_cell_length_c                    16.2989
_cell_angle_alpha                 113.7200
_cell_angle_beta                  100.5840
_cell_angle_gamma                 90.0000
loop_
_atom_site_label
_atom_site_type_symbol
_atom_site_fract_x
_atom_site_fract_y
_atom_site_fract_z
_atom_site_U_iso_or_equiv
_atom_site_adp_type
_atom_site_occupancy
Pr1    Pr    0.27205   0.30096   0.19654   0.01267  Uiso   1.00
Pr2    Pr    0.22795   0.10442   0.80346   0.01267  Uiso   1.00
Pr3    Pr    0.72795   0.69904   0.80346   0.01267  Uiso   1.00
Pr4    Pr    0.77205   0.89558   0.19654   0.01267  Uiso   1.00
H1     H     0.19080   0.43430   0.38840   0.01267  Uiso   1.00
H2     H     0.50450   0.22070   0.65420   0.01267  Uiso   1.00
H3     H     0.24980   0.51890   0.18760   0.01267  Uiso   1.00
H4     H     0.36230   0.46570   0.53180   0.01267  Uiso   1.00
H5     H     0.27990   0.08150   0.43840   0.01267  Uiso   1.00
H6     H     0.85820   0.35420   0.86340   0.01267  Uiso   1.00
H7     H     0.30920   0.04590   0.61160   0.01267  Uiso   1.00
H8     H     0.99550   0.56650   0.34580   0.01267  Uiso   1.00
H9     H     0.25020   0.33130   0.81240   0.01267  Uiso   1.00
H10    H     0.13770   0.93390   0.46820   0.01267  Uiso   1.00
H11    H     0.22010   0.64310   0.56160   0.01267  Uiso   1.00
H12    H     0.64180   0.49080   0.13660   0.01267  Uiso   1.00
H13    H     0.80920   0.56570   0.61160   0.01267  Uiso   1.00
H14    H     0.49550   0.77930   0.34580   0.01267  Uiso   1.00
H15    H     0.75020   0.48110   0.81240   0.01267  Uiso   1.00
H16    H     0.63770   0.53430   0.46820   0.01267  Uiso   1.00
H17    H     0.72010   0.91850   0.56160   0.01267  Uiso   1.00
H18    H     0.14180   0.64580   0.13660   0.01267  Uiso   1.00
H19    H     0.69080   0.95410   0.38840   0.01267  Uiso   1.00
H20    H     0.00450   0.43350   0.65420   0.01267  Uiso   1.00
H21    H     0.74980   0.66870   0.18760   0.01267  Uiso   1.00
H22    H     0.86230   0.06610   0.53180   0.01267  Uiso   1.00
H23    H     0.77990   0.35690   0.43840   0.01267  Uiso   1.00
H24    H     0.35820   0.50920   0.86340   0.01267  Uiso   1.00
C1     C     0.23280   0.20390   0.39380   0.01267  Uiso   1.00
C2     C     0.25920   0.32160   0.42380   0.01267  Uiso   1.00
C3     C     0.34800   0.38860   0.51280   0.01267  Uiso   1.00
C4     C     0.41740   0.34130   0.57560   0.01267  Uiso   1.00
C5     C     0.38900   0.22530   0.54680   0.01267  Uiso   1.00
C6     C     0.29780   0.15840   0.45680   0.01267  Uiso   1.00
C7     C     0.13280   0.12650   0.29800   0.01267  Uiso   1.00
C8     C     0.52280   0.41590   0.66980   0.01267  Uiso   1.00
C9     C     0.00240   0.38910   0.99260   0.01267  Uiso   1.00
C10    C     0.09110   0.47850   0.07580   0.01267  Uiso   1.00
C11    C     0.91470   0.41310   0.91860   0.01267  Uiso   1.00
C12    C     0.01290   0.26990   0.97840   0.01267  Uiso   1.00
C13    C     0.26720   0.81010   0.60620   0.01267  Uiso   1.00
C14    C     0.24080   0.89780   0.57620   0.01267  Uiso   1.00
C15    C     0.15200   0.87580   0.48720   0.01267  Uiso   1.00
C16    C     0.08260   0.76570   0.42440   0.01267  Uiso   1.00
C17    C     0.11100   0.67850   0.45320   0.01267  Uiso   1.00
C18    C     0.20220   0.70160   0.54320   0.01267  Uiso   1.00
C19    C     0.36720   0.82850   0.70200   0.01267  Uiso   1.00
C20    C     0.97720   0.74610   0.33020   0.01267  Uiso   1.00
C21    C     0.49760   0.39650   0.00740   0.01267  Uiso   1.00
C22    C     0.40890   0.40270   0.92420   0.01267  Uiso   1.00
C23    C     0.58530   0.49450   0.08140   0.01267  Uiso   1.00
C24    C     0.48710   0.29150   0.02160   0.01267  Uiso   1.00
C25    C     0.76720   0.79610   0.60620   0.01267  Uiso   1.00
C26    C     0.74080   0.67840   0.57620   0.01267  Uiso   1.00
C27    C     0.65200   0.61140   0.48720   0.01267  Uiso   1.00
C28    C     0.58260   0.65870   0.42440   0.01267  Uiso   1.00
C29    C     0.61100   0.77470   0.45320   0.01267  Uiso   1.00
C30    C     0.70220   0.84160   0.54320   0.01267  Uiso   1.00
C31    C     0.86720   0.87350   0.70200   0.01267  Uiso   1.00
C32    C     0.47720   0.58410   0.33020   0.01267  Uiso   1.00
C33    C     0.99760   0.61090   0.00740   0.01267  Uiso   1.00
C34    C     0.90890   0.52150   0.92420   0.01267  Uiso   1.00
C35    C     0.08530   0.58690   0.08140   0.01267  Uiso   1.00
C36    C     0.98710   0.73010   0.02160   0.01267  Uiso   1.00
C37    C     0.73280   0.18990   0.39380   0.01267  Uiso   1.00
C38    C     0.75920   0.10220   0.42380   0.01267  Uiso   1.00
C39    C     0.84800   0.12420   0.51280   0.01267  Uiso   1.00
C40    C     0.91740   0.23430   0.57560   0.01267  Uiso   1.00
C41    C     0.88900   0.32150   0.54680   0.01267  Uiso   1.00
C42    C     0.79780   0.29840   0.45680   0.01267  Uiso   1.00
C43    C     0.63280   0.17150   0.29800   0.01267  Uiso   1.00
C44    C     0.02280   0.25390   0.66980   0.01267  Uiso   1.00
C45    C     0.50240   0.60350   0.99260   0.01267  Uiso   1.00
C46    C     0.59110   0.59730   0.07580   0.01267  Uiso   1.00
C47    C     0.41470   0.50550   0.91860   0.01267  Uiso   1.00
C48    C     0.51290   0.70850   0.97840   0.01267  Uiso   1.00
O1     O     0.11770   0.15950   0.23460   0.01267  Uiso   1.00
O2     O     0.06730   0.03006   0.28572   0.01267  Uiso   1.00
O3     O     0.59800   0.36977   0.72254   0.01267  Uiso   1.00
O4     O     0.53690   0.52006   0.69352   0.01267  Uiso   1.00
O5     O     0.19030   0.36626   0.36152   0.01267  Uiso   1.00
O6     O     0.44660   0.17427   0.60434   0.01267  Uiso   1.00
O7     O     0.06130   0.24333   0.04486   0.01267  Uiso   1.00
O8     O     0.97320   0.19659   0.89558   0.01267  Uiso   1.00
O9     O     0.18690   0.46078   0.14916   0.01267  Uiso   1.00
O10    O     0.38230   0.92490   0.76540   0.01267  Uiso   1.00
O11    O     0.43270   0.74434   0.71428   0.01267  Uiso   1.00
O12    O     0.90200   0.64723   0.27746   0.01267  Uiso   1.00
O13    O     0.96310   0.82654   0.30648   0.01267  Uiso   1.00
O14    O     0.30970   0.00474   0.63848   0.01267  Uiso   1.00
O15    O     0.05340   0.56993   0.39566   0.01267  Uiso   1.00
O16    O     0.43870   0.19847   0.95514   0.01267  Uiso   1.00
O17    O     0.52680   0.30101   0.10442   0.01267  Uiso   1.00
O18    O     0.31310   0.31162   0.85084   0.01267  Uiso   1.00
O19    O     0.88230   0.84050   0.76540   0.01267  Uiso   1.00
O20    O     0.93270   0.96994   0.71428   0.01267  Uiso   1.00
O21    O     0.40200   0.63023   0.27746   0.01267  Uiso   1.00
O22    O     0.46310   0.47994   0.30648   0.01267  Uiso   1.00
O23    O     0.80970   0.63374   0.63848   0.01267  Uiso   1.00
O24    O     0.55340   0.82573   0.39566   0.01267  Uiso   1.00
O25    O     0.93870   0.75667   0.95514   0.01267  Uiso   1.00
O26    O     0.02680   0.80341   0.10442   0.01267  Uiso   1.00
O27    O     0.81310   0.53922   0.85084   0.01267  Uiso   1.00
O28    O     0.61770   0.07510   0.23460   0.01267  Uiso   1.00
O29    O     0.56730   0.25566   0.28572   0.01267  Uiso   1.00
O30    O     0.09800   0.35277   0.72254   0.01267  Uiso   1.00
O31    O     0.03690   0.17346   0.69352   0.01267  Uiso   1.00
O32    O     0.69030   0.99526   0.36152   0.01267  Uiso   1.00
O33    O     0.94660   0.43007   0.60434   0.01267  Uiso   1.00
O34    O     0.56130   0.80153   0.04486   0.01267  Uiso   1.00
O35    O     0.47320   0.69899   0.89558   0.01267  Uiso   1.00
O36    O     0.68690   0.68838   0.14916   0.01267  Uiso   1.00
