data_YAZZAC_clean
_audit_creation_date              2014-07-02
_audit_creation_method            'Materials Studio'
_symmetry_space_group_name_H-M    'P1'
_symmetry_Int_Tables_number       1
_symmetry_cell_setting            triclinic
loop_
_symmetry_equiv_pos_as_xyz
  x,y,z
_cell_length_a                    7.3991
_cell_length_b                    11.4730
_cell_length_c                    16.2335
_cell_angle_alpha                 79.0380
_cell_angle_beta                  82.5880
_cell_angle_gamma                 79.9720
loop_
_atom_site_label
_atom_site_type_symbol
_atom_site_fract_x
_atom_site_fract_y
_atom_site_fract_z
_atom_site_U_iso_or_equiv
_atom_site_adp_type
_atom_site_occupancy
Gd1    Gd    0.05583   0.93622   0.22734   0.01267  Uiso   1.00
Gd2    Gd    0.55330   0.73727   0.23645   0.01267  Uiso   1.00
Gd3    Gd    0.94417   0.06378   0.77266   0.01267  Uiso   1.00
Gd4    Gd    0.44670   0.26273   0.76355   0.01267  Uiso   1.00
H1     H     0.00230   0.79140   0.03390   0.01267  Uiso   1.00
H2     H     0.43410   0.27120   0.01990   0.01267  Uiso   1.00
H3     H     0.15810   0.74240   0.44020   0.01267  Uiso   1.00
H4     H     0.15320   0.12770   0.40600   0.01267  Uiso   1.00
H5     H     0.12290   0.61210   0.89500   0.01267  Uiso   1.00
H6     H     0.35080   0.46150   0.15370   0.01267  Uiso   1.00
H7     H     0.77620   0.49790   0.41260   0.01267  Uiso   1.00
H8     H     0.60660   0.82110   0.45180   0.01267  Uiso   1.00
H9     H     0.79610   0.04360   0.97110   0.01267  Uiso   1.00
H10    H     0.99770   0.20860   0.96610   0.01267  Uiso   1.00
H11    H     0.56590   0.72880   0.98010   0.01267  Uiso   1.00
H12    H     0.84190   0.25760   0.55980   0.01267  Uiso   1.00
H13    H     0.84680   0.87230   0.59400   0.01267  Uiso   1.00
H14    H     0.87710   0.38790   0.10500   0.01267  Uiso   1.00
H15    H     0.64920   0.53850   0.84630   0.01267  Uiso   1.00
H16    H     0.22380   0.50210   0.58740   0.01267  Uiso   1.00
H17    H     0.39340   0.17890   0.54820   0.01267  Uiso   1.00
H18    H     0.20390   0.95640   0.02890   0.01267  Uiso   1.00
C1     C     0.20400   0.60770   0.08770   0.01267  Uiso   1.00
C2     C     0.12880   0.64980   0.01090   0.01267  Uiso   1.00
C3     C     0.16460   0.58090   0.94750   0.01267  Uiso   1.00
C4     C     0.26190   0.46630   0.96220   0.01267  Uiso   1.00
C5     C     0.32650   0.41970   0.04110   0.01267  Uiso   1.00
C6     C     0.30200   0.49100   0.10240   0.01267  Uiso   1.00
C7     C     0.18900   0.68670   0.15190   0.01267  Uiso   1.00
C8     C     0.29910   0.39360   0.89310   0.01267  Uiso   1.00
C9     C     0.09950   0.59460   0.48530   0.01267  Uiso   1.00
C10    C     0.96580   0.59400   0.43350   0.01267  Uiso   1.00
C11    C     0.86570   0.49900   0.44770   0.01267  Uiso   1.00
C12    C     0.92590   0.69470   0.35960   0.01267  Uiso   1.00
C13    C     0.35020   0.07820   0.46660   0.01267  Uiso   1.00
C14    C     0.56410   0.89320   0.47100   0.01267  Uiso   1.00
C15    C     0.41480   0.97010   0.43610   0.01267  Uiso   1.00
C16    C     0.33070   0.93480   0.36700   0.01267  Uiso   1.00
C17    C     0.67600   0.02670   0.98220   0.01267  Uiso   1.00
C18    C     0.43240   0.95470   0.08540   0.01267  Uiso   1.00
C19    C     0.61190   0.98410   0.06490   0.01267  Uiso   1.00
C20    C     0.74540   0.96710   0.12750   0.01267  Uiso   1.00
C21    C     0.79600   0.39230   0.91230   0.01267  Uiso   1.00
C22    C     0.87120   0.35020   0.98910   0.01267  Uiso   1.00
C23    C     0.83540   0.41910   0.05250   0.01267  Uiso   1.00
C24    C     0.73810   0.53370   0.03780   0.01267  Uiso   1.00
C25    C     0.67350   0.58030   0.95890   0.01267  Uiso   1.00
C26    C     0.69800   0.50900   0.89760   0.01267  Uiso   1.00
C27    C     0.81100   0.31330   0.84810   0.01267  Uiso   1.00
C28    C     0.70090   0.60640   0.10690   0.01267  Uiso   1.00
C29    C     0.90050   0.40540   0.51470   0.01267  Uiso   1.00
C30    C     0.03420   0.40600   0.56650   0.01267  Uiso   1.00
C31    C     0.13430   0.50100   0.55230   0.01267  Uiso   1.00
C32    C     0.07410   0.30530   0.64040   0.01267  Uiso   1.00
C33    C     0.64980   0.92180   0.53340   0.01267  Uiso   1.00
C34    C     0.43590   0.10680   0.52900   0.01267  Uiso   1.00
C35    C     0.58520   0.02990   0.56390   0.01267  Uiso   1.00
C36    C     0.66930   0.06520   0.63300   0.01267  Uiso   1.00
C37    C     0.32400   0.97330   0.01780   0.01267  Uiso   1.00
C38    C     0.56760   0.04530   0.91460   0.01267  Uiso   1.00
C39    C     0.38810   0.01590   0.93510   0.01267  Uiso   1.00
C40    C     0.25460   0.03290   0.87250   0.01267  Uiso   1.00
O1     O     0.07130   0.78130   0.14560   0.01267  Uiso   1.00
O2     O     0.29540   0.65850   0.21010   0.01267  Uiso   1.00
O3     O     0.26260   0.43850   0.81880   0.01267  Uiso   1.00
O4     O     0.37920   0.28460   0.90950   0.01267  Uiso   1.00
O5     O     0.01550   0.75640   0.99350   0.01267  Uiso   1.00
O6     O     0.42400   0.30550   0.06060   0.01267  Uiso   1.00
O7     O     0.01870   0.77980   0.34550   0.01267  Uiso   1.00
O8     O     0.80280   0.68660   0.31640   0.01267  Uiso   1.00
O9     O     0.20540   0.68450   0.47250   0.01267  Uiso   1.00
O10    O     0.39830   0.83860   0.34210   0.01267  Uiso   1.00
O11    O     0.19200   0.00270   0.33760   0.01267  Uiso   1.00
O12    O     0.20590   0.15870   0.43560   0.01267  Uiso   1.00
O13    O     0.72840   0.89580   0.19900   0.01267  Uiso   1.00
O14    O     0.88400   0.02110   0.11130   0.01267  Uiso   1.00
O15    O     0.36580   0.91050   0.16480   0.01267  Uiso   1.00
O16    O     0.92870   0.21870   0.85440   0.01267  Uiso   1.00
O17    O     0.70460   0.34150   0.78990   0.01267  Uiso   1.00
O18    O     0.73740   0.56150   0.18120   0.01267  Uiso   1.00
O19    O     0.62080   0.71540   0.09050   0.01267  Uiso   1.00
O20    O     0.98450   0.24360   0.00650   0.01267  Uiso   1.00
O21    O     0.57600   0.69450   0.93940   0.01267  Uiso   1.00
O22    O     0.98130   0.22020   0.65450   0.01267  Uiso   1.00
O23    O     0.19720   0.31340   0.68360   0.01267  Uiso   1.00
O24    O     0.79460   0.31550   0.52750   0.01267  Uiso   1.00
O25    O     0.60170   0.16140   0.65790   0.01267  Uiso   1.00
O26    O     0.80800   0.99730   0.66240   0.01267  Uiso   1.00
O27    O     0.79410   0.84130   0.56440   0.01267  Uiso   1.00
O28    O     0.27160   0.10420   0.80100   0.01267  Uiso   1.00
O29    O     0.11600   0.97890   0.88870   0.01267  Uiso   1.00
O30    O     0.63420   0.08950   0.83520   0.01267  Uiso   1.00
