data_image0
_cell_length_a       7.813
_cell_length_b       11.88
_cell_length_c       12.994
_cell_angle_alpha    93.092
_cell_angle_beta     93.938
_cell_angle_gamma    108.359

_symmetry_space_group_name_H-M    "P 1"
_symmetry_int_tables_number       1

loop_
  _symmetry_equiv_pos_as_xyz
  'x, y, z'

loop_
  _atom_site_label
  _atom_site_occupancy
  _atom_site_fract_x
  _atom_site_fract_y
  _atom_site_fract_z
  _atom_site_thermal_displace_type
  _atom_site_B_iso_or_equiv
  _atom_site_type_symbol
  Nd1      1.0000 0.15004  0.77776  0.03190  Biso   1.000  Nd
  Nd2      1.0000 0.15651  0.78215  0.53207  Biso   1.000  Nd
  O1       1.0000 0.98470  0.72710  0.35780  Biso   1.000  O
  O2       1.0000 0.98230  0.71880  0.18680  Biso   1.000  O
  O3       1.0000 0.34120  0.82540  0.20360  Biso   1.000  O
  O4       1.0000 0.34460  0.82160  0.37650  Biso   1.000  O
  O5       1.0000 0.21170  0.68020  0.69060  Biso   1.000  O
  O6       1.0000 0.19920  0.66970  0.86150  Biso   1.000  O
  O7       1.0000 0.10850  0.87330  0.70090  Biso   1.000  O
  O8       1.0000 0.08130  0.85850  0.86950  Biso   1.000  O
  O9       1.0000 0.46880  0.84810  0.98970  Biso   1.000  O
  O10      1.0000 0.70110  0.99940  0.94930  Biso   1.000  O
  O11      1.0000 0.88480  0.85200  0.51690  Biso   1.000  O
  O12      1.0000 0.77800  0.00280  0.49200  Biso   1.000  O
  O13      1.0000 0.88820  0.60380  0.97750  Biso   1.000  O
  O14      1.0000 0.79930  0.40870  0.93070  Biso   1.000  O
  O15      1.0000 0.21270  0.59560  0.47780  Biso   1.000  O
  O16      1.0000 0.10950  0.39740  0.46380  Biso   1.000  O
  C1       1.0000 0.05980  0.74560  0.27620  Biso   1.000  C
  C2       1.0000 0.26850  0.80440  0.28620  Biso   1.000  C
  C3       1.0000 0.18180  0.71430  0.77830  Biso   1.000  C
  C4       1.0000 0.11840  0.82610  0.78410  Biso   1.000  C
  C5       1.0000 0.54770  0.95510  0.98270  Biso   1.000  C
  C6       1.0000 0.90260  0.95720  0.50250  Biso   1.000  C
  C7       1.0000 0.90900  0.50360  0.97360  Biso   1.000  C
  C8       1.0000 0.09390  0.49780  0.48320  Biso   1.000  C
  Nd3      1.0000 0.84996  0.22224  0.96810  Biso   1.000  Nd
  Nd4      1.0000 0.84349  0.21785  0.46793  Biso   1.000  Nd
  O17      1.0000 0.01530  0.27290  0.64220  Biso   1.000  O
  O18      1.0000 0.01770  0.28120  0.81320  Biso   1.000  O
  O19      1.0000 0.65880  0.17460  0.79640  Biso   1.000  O
  O20      1.0000 0.65540  0.17840  0.62350  Biso   1.000  O
  O21      1.0000 0.78830  0.31980  0.30940  Biso   1.000  O
  O22      1.0000 0.80080  0.33030  0.13850  Biso   1.000  O
  O23      1.0000 0.89150  0.12670  0.29910  Biso   1.000  O
  O24      1.0000 0.91870  0.14150  0.13050  Biso   1.000  O
  O25      1.0000 0.53120  0.15190  0.01030  Biso   1.000  O
  O26      1.0000 0.29890  0.00060  0.05070  Biso   1.000  O
  O27      1.0000 0.11520  0.14800  0.48310  Biso   1.000  O
  O28      1.0000 0.22200  0.99720  0.50800  Biso   1.000  O
  O29      1.0000 0.11180  0.39620  0.02250  Biso   1.000  O
  O30      1.0000 0.20070  0.59130  0.06930  Biso   1.000  O
  O31      1.0000 0.78730  0.40440  0.52220  Biso   1.000  O
  O32      1.0000 0.89050  0.60260  0.53620  Biso   1.000  O
  C9       1.0000 0.94020  0.25440  0.72380  Biso   1.000  C
  C10      1.0000 0.73150  0.19560  0.71380  Biso   1.000  C
  C11      1.0000 0.81820  0.28570  0.22170  Biso   1.000  C
  C12      1.0000 0.88160  0.17390  0.21590  Biso   1.000  C
  C13      1.0000 0.45230  0.04490  0.01730  Biso   1.000  C
  C14      1.0000 0.09740  0.04280  0.49750  Biso   1.000  C
  C15      1.0000 0.09100  0.49640  0.02640  Biso   1.000  C
  C16      1.0000 0.90610  0.50220  0.51680  Biso   1.000  C
