data_image0
_cell_length_a       8.797
_cell_length_b       16.155
_cell_length_c       32.17
_cell_angle_alpha    90
_cell_angle_beta     90
_cell_angle_gamma    90

_symmetry_space_group_name_H-M    "P 1"
_symmetry_int_tables_number       1

loop_
  _symmetry_equiv_pos_as_xyz
  'x, y, z'

loop_
  _atom_site_label
  _atom_site_occupancy
  _atom_site_fract_x
  _atom_site_fract_y
  _atom_site_fract_z
  _atom_site_thermal_displace_type
  _atom_site_B_iso_or_equiv
  _atom_site_type_symbol
  Yb1      1.0000 0.88979  0.23160  0.06407  Biso   1.000  Yb
  O1       1.0000 0.06080  0.16690  0.02173  Biso   1.000  O
  O2       1.0000 0.22150  0.18330  0.96921  Biso   1.000  O
  O3       1.0000 0.23840  0.34380  0.98423  Biso   1.000  O
  O4       1.0000 0.05450  0.32980  0.03274  Biso   1.000  O
  O5       1.0000 0.83960  0.35270  0.10199  Biso   1.000  O
  O6       1.0000 0.94110  0.44770  0.14352  Biso   1.000  O
  O7       1.0000 0.06910  0.25020  0.11683  Biso   1.000  O
  O8       1.0000 0.17090  0.34630  0.15965  Biso   1.000  O
  C1       1.0000 0.14210  0.21030  0.99823  Biso   1.000  C
  C2       1.0000 0.14570  0.30370  0.00601  Biso   1.000  C
  C3       1.0000 0.93860  0.37970  0.12594  Biso   1.000  C
  C4       1.0000 0.07150  0.32000  0.13491  Biso   1.000  C
  Yb2      1.0000 0.88979  0.73160  0.56407  Biso   1.000  Yb
  O9       1.0000 0.06080  0.66690  0.52173  Biso   1.000  O
  O10      1.0000 0.22150  0.68330  0.46921  Biso   1.000  O
  O11      1.0000 0.23840  0.84380  0.48423  Biso   1.000  O
  O12      1.0000 0.05450  0.82980  0.53274  Biso   1.000  O
  O13      1.0000 0.83960  0.85270  0.60199  Biso   1.000  O
  O14      1.0000 0.94110  0.94770  0.64352  Biso   1.000  O
  O15      1.0000 0.06910  0.75020  0.61683  Biso   1.000  O
  O16      1.0000 0.17090  0.84630  0.65965  Biso   1.000  O
  C5       1.0000 0.14210  0.71030  0.49823  Biso   1.000  C
  C6       1.0000 0.14570  0.80370  0.50601  Biso   1.000  C
  C7       1.0000 0.93860  0.87970  0.62594  Biso   1.000  C
  C8       1.0000 0.07150  0.82000  0.63491  Biso   1.000  C
  Yb3      1.0000 0.38979  0.23160  0.56407  Biso   1.000  Yb
  O17      1.0000 0.56080  0.16690  0.52173  Biso   1.000  O
  O18      1.0000 0.72150  0.18330  0.46921  Biso   1.000  O
  O19      1.0000 0.73840  0.34380  0.48423  Biso   1.000  O
  O20      1.0000 0.55450  0.32980  0.53274  Biso   1.000  O
  O21      1.0000 0.33960  0.35270  0.60199  Biso   1.000  O
  O22      1.0000 0.44110  0.44770  0.64352  Biso   1.000  O
  O23      1.0000 0.56910  0.25020  0.61683  Biso   1.000  O
  O24      1.0000 0.67090  0.34630  0.65965  Biso   1.000  O
  C9       1.0000 0.64210  0.21030  0.49823  Biso   1.000  C
  C10      1.0000 0.64570  0.30370  0.50601  Biso   1.000  C
  C11      1.0000 0.43860  0.37970  0.62594  Biso   1.000  C
  C12      1.0000 0.57150  0.32000  0.63491  Biso   1.000  C
  Yb4      1.0000 0.38979  0.73160  0.06407  Biso   1.000  Yb
  O25      1.0000 0.56080  0.66690  0.02173  Biso   1.000  O
  O26      1.0000 0.72150  0.68330  0.96921  Biso   1.000  O
  O27      1.0000 0.73840  0.84380  0.98423  Biso   1.000  O
  O28      1.0000 0.55450  0.82980  0.03274  Biso   1.000  O
  O29      1.0000 0.33960  0.85270  0.10199  Biso   1.000  O
  O30      1.0000 0.44110  0.94770  0.14352  Biso   1.000  O
  O31      1.0000 0.56910  0.75020  0.11683  Biso   1.000  O
  O32      1.0000 0.67090  0.84630  0.15965  Biso   1.000  O
  C13      1.0000 0.64210  0.71030  0.99823  Biso   1.000  C
  C14      1.0000 0.64570  0.80370  0.00601  Biso   1.000  C
  C15      1.0000 0.43860  0.87970  0.12594  Biso   1.000  C
  C16      1.0000 0.57150  0.82000  0.13491  Biso   1.000  C
  Yb5      1.0000 0.88979  0.76840  0.93593  Biso   1.000  Yb
  O33      1.0000 0.06080  0.83310  0.97827  Biso   1.000  O
  O34      1.0000 0.22150  0.81670  0.03079  Biso   1.000  O
  O35      1.0000 0.23840  0.65620  0.01577  Biso   1.000  O
  O36      1.0000 0.05450  0.67020  0.96726  Biso   1.000  O
  O37      1.0000 0.83960  0.64730  0.89801  Biso   1.000  O
  O38      1.0000 0.94110  0.55230  0.85648  Biso   1.000  O
  O39      1.0000 0.06910  0.74980  0.88317  Biso   1.000  O
  O40      1.0000 0.17090  0.65370  0.84035  Biso   1.000  O
  C17      1.0000 0.14210  0.78970  0.00177  Biso   1.000  C
  C18      1.0000 0.14570  0.69630  0.99399  Biso   1.000  C
  C19      1.0000 0.93860  0.62030  0.87406  Biso   1.000  C
  C20      1.0000 0.07150  0.68000  0.86509  Biso   1.000  C
  Yb6      1.0000 0.88979  0.26840  0.43593  Biso   1.000  Yb
  O41      1.0000 0.06080  0.33310  0.47827  Biso   1.000  O
  O42      1.0000 0.22150  0.31670  0.53079  Biso   1.000  O
  O43      1.0000 0.23840  0.15620  0.51577  Biso   1.000  O
  O44      1.0000 0.05450  0.17020  0.46726  Biso   1.000  O
  O45      1.0000 0.83960  0.14730  0.39801  Biso   1.000  O
  O46      1.0000 0.94110  0.05230  0.35648  Biso   1.000  O
  O47      1.0000 0.06910  0.24980  0.38317  Biso   1.000  O
  O48      1.0000 0.17090  0.15370  0.34035  Biso   1.000  O
  C21      1.0000 0.14210  0.28970  0.50177  Biso   1.000  C
  C22      1.0000 0.14570  0.19630  0.49399  Biso   1.000  C
  C23      1.0000 0.93860  0.12030  0.37406  Biso   1.000  C
  C24      1.0000 0.07150  0.18000  0.36509  Biso   1.000  C
  Yb7      1.0000 0.38979  0.76840  0.43593  Biso   1.000  Yb
  O49      1.0000 0.56080  0.83310  0.47827  Biso   1.000  O
  O50      1.0000 0.72150  0.81670  0.53079  Biso   1.000  O
  O51      1.0000 0.73840  0.65620  0.51577  Biso   1.000  O
  O52      1.0000 0.55450  0.67020  0.46726  Biso   1.000  O
  O53      1.0000 0.33960  0.64730  0.39801  Biso   1.000  O
  O54      1.0000 0.44110  0.55230  0.35648  Biso   1.000  O
  O55      1.0000 0.56910  0.74980  0.38317  Biso   1.000  O
  O56      1.0000 0.67090  0.65370  0.34035  Biso   1.000  O
  C25      1.0000 0.64210  0.78970  0.50177  Biso   1.000  C
  C26      1.0000 0.64570  0.69630  0.49399  Biso   1.000  C
  C27      1.0000 0.43860  0.62030  0.37406  Biso   1.000  C
  C28      1.0000 0.57150  0.68000  0.36509  Biso   1.000  C
  Yb8      1.0000 0.38979  0.26840  0.93593  Biso   1.000  Yb
  O57      1.0000 0.56080  0.33310  0.97827  Biso   1.000  O
  O58      1.0000 0.72150  0.31670  0.03079  Biso   1.000  O
  O59      1.0000 0.73840  0.15620  0.01577  Biso   1.000  O
  O60      1.0000 0.55450  0.17020  0.96726  Biso   1.000  O
  O61      1.0000 0.33960  0.14730  0.89801  Biso   1.000  O
  O62      1.0000 0.44110  0.05230  0.85648  Biso   1.000  O
  O63      1.0000 0.56910  0.24980  0.88317  Biso   1.000  O
  O64      1.0000 0.67090  0.15370  0.84035  Biso   1.000  O
  C29      1.0000 0.64210  0.28970  0.00177  Biso   1.000  C
  C30      1.0000 0.64570  0.19630  0.99399  Biso   1.000  C
  C31      1.0000 0.43860  0.12030  0.87406  Biso   1.000  C
  C32      1.0000 0.57150  0.18000  0.86509  Biso   1.000  C
  Yb9      1.0000 0.63979  0.98160  0.18593  Biso   1.000  Yb
  O65      1.0000 0.81080  0.91690  0.22827  Biso   1.000  O
  O66      1.0000 0.97150  0.93330  0.28079  Biso   1.000  O
  O67      1.0000 0.98840  0.09380  0.26577  Biso   1.000  O
  O68      1.0000 0.80450  0.07980  0.21726  Biso   1.000  O
  O69      1.0000 0.58960  0.10270  0.14801  Biso   1.000  O
  O70      1.0000 0.69110  0.19770  0.10648  Biso   1.000  O
  O71      1.0000 0.81910  0.00020  0.13317  Biso   1.000  O
  O72      1.0000 0.92090  0.09630  0.09035  Biso   1.000  O
  C33      1.0000 0.89210  0.96030  0.25177  Biso   1.000  C
  C34      1.0000 0.89570  0.05370  0.24399  Biso   1.000  C
  C35      1.0000 0.68860  0.12970  0.12406  Biso   1.000  C
  C36      1.0000 0.82150  0.07000  0.11509  Biso   1.000  C
  Yb10     1.0000 0.63979  0.48160  0.68593  Biso   1.000  Yb
  O73      1.0000 0.81080  0.41690  0.72827  Biso   1.000  O
  O74      1.0000 0.97150  0.43330  0.78079  Biso   1.000  O
  O75      1.0000 0.98840  0.59380  0.76577  Biso   1.000  O
  O76      1.0000 0.80450  0.57980  0.71726  Biso   1.000  O
  O77      1.0000 0.58960  0.60270  0.64801  Biso   1.000  O
  O78      1.0000 0.69110  0.69770  0.60648  Biso   1.000  O
  O79      1.0000 0.81910  0.50020  0.63317  Biso   1.000  O
  O80      1.0000 0.92090  0.59630  0.59035  Biso   1.000  O
  C37      1.0000 0.89210  0.46030  0.75177  Biso   1.000  C
  C38      1.0000 0.89570  0.55370  0.74399  Biso   1.000  C
  C39      1.0000 0.68860  0.62970  0.62406  Biso   1.000  C
  C40      1.0000 0.82150  0.57000  0.61509  Biso   1.000  C
  Yb11     1.0000 0.13979  0.98160  0.68593  Biso   1.000  Yb
  O81      1.0000 0.31080  0.91690  0.72827  Biso   1.000  O
  O82      1.0000 0.47150  0.93330  0.78079  Biso   1.000  O
  O83      1.0000 0.48840  0.09380  0.76577  Biso   1.000  O
  O84      1.0000 0.30450  0.07980  0.71726  Biso   1.000  O
  O85      1.0000 0.08960  0.10270  0.64801  Biso   1.000  O
  O86      1.0000 0.19110  0.19770  0.60648  Biso   1.000  O
  O87      1.0000 0.31910  0.00020  0.63317  Biso   1.000  O
  O88      1.0000 0.42090  0.09630  0.59035  Biso   1.000  O
  C41      1.0000 0.39210  0.96030  0.75177  Biso   1.000  C
  C42      1.0000 0.39570  0.05370  0.74399  Biso   1.000  C
  C43      1.0000 0.18860  0.12970  0.62406  Biso   1.000  C
  C44      1.0000 0.32150  0.07000  0.61509  Biso   1.000  C
  Yb12     1.0000 0.13979  0.48160  0.18593  Biso   1.000  Yb
  O89      1.0000 0.31080  0.41690  0.22827  Biso   1.000  O
  O90      1.0000 0.47150  0.43330  0.28079  Biso   1.000  O
  O91      1.0000 0.48840  0.59380  0.26577  Biso   1.000  O
  O92      1.0000 0.30450  0.57980  0.21726  Biso   1.000  O
  O93      1.0000 0.08960  0.60270  0.14801  Biso   1.000  O
  O94      1.0000 0.19110  0.69770  0.10648  Biso   1.000  O
  O95      1.0000 0.31910  0.50020  0.13317  Biso   1.000  O
  O96      1.0000 0.42090  0.59630  0.09035  Biso   1.000  O
  C45      1.0000 0.39210  0.46030  0.25177  Biso   1.000  C
  C46      1.0000 0.39570  0.55370  0.24399  Biso   1.000  C
  C47      1.0000 0.18860  0.62970  0.12406  Biso   1.000  C
  C48      1.0000 0.32150  0.57000  0.11509  Biso   1.000  C
  Yb13     1.0000 0.63979  0.51840  0.31407  Biso   1.000  Yb
  O97      1.0000 0.81080  0.58310  0.27173  Biso   1.000  O
  O98      1.0000 0.97150  0.56670  0.21921  Biso   1.000  O
  O99      1.0000 0.98840  0.40620  0.23423  Biso   1.000  O
  O100     1.0000 0.80450  0.42020  0.28274  Biso   1.000  O
  O101     1.0000 0.58960  0.39730  0.35199  Biso   1.000  O
  O102     1.0000 0.69110  0.30230  0.39352  Biso   1.000  O
  O103     1.0000 0.81910  0.49980  0.36683  Biso   1.000  O
  O104     1.0000 0.92090  0.40370  0.40965  Biso   1.000  O
  C49      1.0000 0.89210  0.53970  0.24823  Biso   1.000  C
  C50      1.0000 0.89570  0.44630  0.25601  Biso   1.000  C
  C51      1.0000 0.68860  0.37030  0.37594  Biso   1.000  C
  C52      1.0000 0.82150  0.43000  0.38491  Biso   1.000  C
  Yb14     1.0000 0.63979  0.01840  0.81407  Biso   1.000  Yb
  O105     1.0000 0.81080  0.08310  0.77173  Biso   1.000  O
  O106     1.0000 0.97150  0.06670  0.71921  Biso   1.000  O
  O107     1.0000 0.98840  0.90620  0.73423  Biso   1.000  O
  O108     1.0000 0.80450  0.92020  0.78274  Biso   1.000  O
  O109     1.0000 0.58960  0.89730  0.85199  Biso   1.000  O
  O110     1.0000 0.69110  0.80230  0.89352  Biso   1.000  O
  O111     1.0000 0.81910  0.99980  0.86683  Biso   1.000  O
  O112     1.0000 0.92090  0.90370  0.90965  Biso   1.000  O
  C53      1.0000 0.89210  0.03970  0.74823  Biso   1.000  C
  C54      1.0000 0.89570  0.94630  0.75601  Biso   1.000  C
  C55      1.0000 0.68860  0.87030  0.87594  Biso   1.000  C
  C56      1.0000 0.82150  0.93000  0.88491  Biso   1.000  C
  Yb15     1.0000 0.13979  0.51840  0.81407  Biso   1.000  Yb
  O113     1.0000 0.31080  0.58310  0.77173  Biso   1.000  O
  O114     1.0000 0.47150  0.56670  0.71921  Biso   1.000  O
  O115     1.0000 0.48840  0.40620  0.73423  Biso   1.000  O
  O116     1.0000 0.30450  0.42020  0.78274  Biso   1.000  O
  O117     1.0000 0.08960  0.39730  0.85199  Biso   1.000  O
  O118     1.0000 0.19110  0.30230  0.89352  Biso   1.000  O
  O119     1.0000 0.31910  0.49980  0.86683  Biso   1.000  O
  O120     1.0000 0.42090  0.40370  0.90965  Biso   1.000  O
  C57      1.0000 0.39210  0.53970  0.74823  Biso   1.000  C
  C58      1.0000 0.39570  0.44630  0.75601  Biso   1.000  C
  C59      1.0000 0.18860  0.37030  0.87594  Biso   1.000  C
  C60      1.0000 0.32150  0.43000  0.88491  Biso   1.000  C
  Yb16     1.0000 0.13979  0.01840  0.31407  Biso   1.000  Yb
  O121     1.0000 0.31080  0.08310  0.27173  Biso   1.000  O
  O122     1.0000 0.47150  0.06670  0.21921  Biso   1.000  O
  O123     1.0000 0.48840  0.90620  0.23423  Biso   1.000  O
  O124     1.0000 0.30450  0.92020  0.28274  Biso   1.000  O
  O125     1.0000 0.08960  0.89730  0.35199  Biso   1.000  O
  O126     1.0000 0.19110  0.80230  0.39352  Biso   1.000  O
  O127     1.0000 0.31910  0.99980  0.36683  Biso   1.000  O
  O128     1.0000 0.42090  0.90370  0.40965  Biso   1.000  O
  C61      1.0000 0.39210  0.03970  0.24823  Biso   1.000  C
  C62      1.0000 0.39570  0.94630  0.25601  Biso   1.000  C
  C63      1.0000 0.18860  0.87030  0.37594  Biso   1.000  C
  C64      1.0000 0.32150  0.93000  0.38491  Biso   1.000  C
