data_image0
_cell_length_a       11.665
_cell_length_b       11.924
_cell_length_c       13.223
_cell_angle_alpha    104.585
_cell_angle_beta     108.268
_cell_angle_gamma    111.132

_symmetry_space_group_name_H-M    "P 1"
_symmetry_int_tables_number       1

loop_
  _symmetry_equiv_pos_as_xyz
  'x, y, z'

loop_
  _atom_site_label
  _atom_site_occupancy
  _atom_site_fract_x
  _atom_site_fract_y
  _atom_site_fract_z
  _atom_site_thermal_displace_type
  _atom_site_B_iso_or_equiv
  _atom_site_type_symbol
  La1      1.0000 0.74998  0.08746  0.92504  Biso   1.000  La
  La2      1.0000 0.25888  0.59055  0.42086  Biso   1.000  La
  O1       1.0000 0.09430  0.50190  0.20040  Biso   1.000  O
  O2       1.0000 0.91330  0.33690  0.03970  Biso   1.000  O
  O3       1.0000 0.09000  0.33680  0.30650  Biso   1.000  O
  O4       1.0000 0.89760  0.17460  0.14950  Biso   1.000  O
  O5       1.0000 0.62230  0.30680  0.69620  Biso   1.000  O
  O6       1.0000 0.64700  0.22050  0.82940  Biso   1.000  O
  O7       1.0000 0.82540  0.16070  0.77460  Biso   1.000  O
  O8       1.0000 0.78130  0.22500  0.62950  Biso   1.000  O
  O9       1.0000 0.48680  0.94630  0.77640  Biso   1.000  O
  O10      1.0000 0.32230  0.77490  0.60920  Biso   1.000  O
  O11      1.0000 0.51880  0.76020  0.54990  Biso   1.000  O
  O12      1.0000 0.67460  0.88840  0.73620  Biso   1.000  O
  O13      1.0000 0.00380  0.13690  0.97220  Biso   1.000  O
  O14      1.0000 0.17140  0.08520  0.03320  Biso   1.000  O
  O15      1.0000 0.61130  0.15800  0.01990  Biso   1.000  O
  O16      1.0000 0.40170  0.07970  0.01370  Biso   1.000  O
  O17      1.0000 0.39700  0.47850  0.36050  Biso   1.000  O
  O18      1.0000 0.59930  0.48030  0.42970  Biso   1.000  O
  O19      1.0000 0.01870  0.55940  0.39600  Biso   1.000  O
  O20      1.0000 0.84680  0.50660  0.44680  Biso   1.000  O
  C1       1.0000 0.00110  0.38450  0.14280  Biso   1.000  C
  C2       1.0000 0.99500  0.29070  0.20430  Biso   1.000  C
  C3       1.0000 0.67060  0.24910  0.75060  Biso   1.000  C
  C4       1.0000 0.76710  0.20800  0.71480  Biso   1.000  C
  C5       1.0000 0.44550  0.85370  0.68130  Biso   1.000  C
  C6       1.0000 0.55620  0.83260  0.65370  Biso   1.000  C
  C7       1.0000 0.05090  0.06370  0.00120  Biso   1.000  C
  C8       1.0000 0.50270  0.06840  0.00930  Biso   1.000  C
  C9       1.0000 0.49910  0.48840  0.43980  Biso   1.000  C
  C10      1.0000 0.96200  0.51990  0.45600  Biso   1.000  C
  La3      1.0000 0.25002  0.91254  0.07496  Biso   1.000  La
  La4      1.0000 0.74112  0.40945  0.57914  Biso   1.000  La
  O21      1.0000 0.90570  0.49810  0.79960  Biso   1.000  O
  O22      1.0000 0.08670  0.66310  0.96030  Biso   1.000  O
  O23      1.0000 0.91000  0.66320  0.69350  Biso   1.000  O
  O24      1.0000 0.10240  0.82540  0.85050  Biso   1.000  O
  O25      1.0000 0.37770  0.69320  0.30380  Biso   1.000  O
  O26      1.0000 0.35300  0.77950  0.17060  Biso   1.000  O
  O27      1.0000 0.17460  0.83930  0.22540  Biso   1.000  O
  O28      1.0000 0.21870  0.77500  0.37050  Biso   1.000  O
  O29      1.0000 0.51320  0.05370  0.22360  Biso   1.000  O
  O30      1.0000 0.67770  0.22510  0.39080  Biso   1.000  O
  O31      1.0000 0.48120  0.23980  0.45010  Biso   1.000  O
  O32      1.0000 0.32540  0.11160  0.26380  Biso   1.000  O
  O33      1.0000 0.99620  0.86310  0.02780  Biso   1.000  O
  O34      1.0000 0.82860  0.91480  0.96680  Biso   1.000  O
  O35      1.0000 0.38870  0.84200  0.98010  Biso   1.000  O
  O36      1.0000 0.59830  0.92030  0.98630  Biso   1.000  O
  O37      1.0000 0.60300  0.52150  0.63950  Biso   1.000  O
  O38      1.0000 0.40070  0.51970  0.57030  Biso   1.000  O
  O39      1.0000 0.98130  0.44060  0.60400  Biso   1.000  O
  O40      1.0000 0.15320  0.49340  0.55320  Biso   1.000  O
  C11      1.0000 0.99890  0.61550  0.85720  Biso   1.000  C
  C12      1.0000 0.00500  0.70930  0.79570  Biso   1.000  C
  C13      1.0000 0.32940  0.75090  0.24940  Biso   1.000  C
  C14      1.0000 0.23290  0.79200  0.28520  Biso   1.000  C
  C15      1.0000 0.55450  0.14630  0.31870  Biso   1.000  C
  C16      1.0000 0.44380  0.16740  0.34630  Biso   1.000  C
  C17      1.0000 0.94910  0.93630  0.99880  Biso   1.000  C
  C18      1.0000 0.49730  0.93160  0.99070  Biso   1.000  C
  C19      1.0000 0.50090  0.51160  0.56020  Biso   1.000  C
  C20      1.0000 0.03800  0.48010  0.54400  Biso   1.000  C
