data_image0
_cell_length_a       12.1647
_cell_length_b       12.1647
_cell_length_c       27.1971
_cell_angle_alpha    90
_cell_angle_beta     90
_cell_angle_gamma    120

_symmetry_space_group_name_H-M    "P 1"
_symmetry_int_tables_number       1

loop_
  _symmetry_equiv_pos_as_xyz
  'x, y, z'

loop_
  _atom_site_label
  _atom_site_occupancy
  _atom_site_fract_x
  _atom_site_fract_y
  _atom_site_fract_z
  _atom_site_thermal_displace_type
  _atom_site_B_iso_or_equiv
  _atom_site_type_symbol
  O1       1.0000 0.88180  0.43230  0.19820  Biso   1.000  O
  O2       1.0000 0.84710  0.58770  0.19890  Biso   1.000  O
  C1       1.0000 0.87460  0.51630  0.17880  Biso   1.000  C
  C2       1.0000 0.90940  0.53790  0.12650  Biso   1.000  C
  C3       1.0000 0.82350  0.45340  0.08820  Biso   1.000  C
  C4       1.0000 0.85440  0.49460  0.03740  Biso   1.000  C
  C5       1.0000 0.97980  0.58400  0.02590  Biso   1.000  C
  C6       1.0000 0.04980  0.67160  0.05880  Biso   1.000  C
  C7       1.0000 0.99810  0.66100  0.10730  Biso   1.000  C
  O3       1.0000 0.56770  0.44950  0.19820  Biso   1.000  O
  O4       1.0000 0.41230  0.25940  0.19890  Biso   1.000  O
  C8       1.0000 0.48370  0.35830  0.17880  Biso   1.000  C
  C9       1.0000 0.46210  0.37150  0.12650  Biso   1.000  C
  C10      1.0000 0.54660  0.37010  0.08820  Biso   1.000  C
  C11      1.0000 0.50540  0.35980  0.03740  Biso   1.000  C
  C12      1.0000 0.41600  0.39580  0.02590  Biso   1.000  C
  C13      1.0000 0.32840  0.37820  0.05880  Biso   1.000  C
  C14      1.0000 0.33900  0.33710  0.10730  Biso   1.000  C
  O5       1.0000 0.55050  0.11820  0.19820  Biso   1.000  O
  O6       1.0000 0.74060  0.15290  0.19890  Biso   1.000  O
  C15      1.0000 0.64170  0.12540  0.17880  Biso   1.000  C
  C16      1.0000 0.62850  0.09060  0.12650  Biso   1.000  C
  C17      1.0000 0.62990  0.17650  0.08820  Biso   1.000  C
  C18      1.0000 0.64020  0.14560  0.03740  Biso   1.000  C
  C19      1.0000 0.60420  0.02020  0.02590  Biso   1.000  C
  C20      1.0000 0.62180  0.95020  0.05880  Biso   1.000  C
  C21      1.0000 0.66290  0.00190  0.10730  Biso   1.000  C
  O7       1.0000 0.88180  0.43230  0.30180  Biso   1.000  O
  O8       1.0000 0.84710  0.58770  0.30110  Biso   1.000  O
  C22      1.0000 0.87460  0.51630  0.32120  Biso   1.000  C
  C23      1.0000 0.90940  0.53790  0.37350  Biso   1.000  C
  C24      1.0000 0.82350  0.45340  0.41180  Biso   1.000  C
  C25      1.0000 0.85440  0.49460  0.46260  Biso   1.000  C
  C26      1.0000 0.97980  0.58400  0.47410  Biso   1.000  C
  C27      1.0000 0.04980  0.67160  0.44120  Biso   1.000  C
  C28      1.0000 0.99810  0.66100  0.39270  Biso   1.000  C
  O9       1.0000 0.56770  0.44950  0.30180  Biso   1.000  O
  O10      1.0000 0.41230  0.25940  0.30110  Biso   1.000  O
  C29      1.0000 0.48370  0.35830  0.32120  Biso   1.000  C
  C30      1.0000 0.46210  0.37150  0.37350  Biso   1.000  C
  C31      1.0000 0.54660  0.37010  0.41180  Biso   1.000  C
  C32      1.0000 0.50540  0.35980  0.46260  Biso   1.000  C
  C33      1.0000 0.41600  0.39580  0.47410  Biso   1.000  C
  C34      1.0000 0.32840  0.37820  0.44120  Biso   1.000  C
  C35      1.0000 0.33900  0.33710  0.39270  Biso   1.000  C
  O11      1.0000 0.55050  0.11820  0.30180  Biso   1.000  O
  O12      1.0000 0.74060  0.15290  0.30110  Biso   1.000  O
  C36      1.0000 0.64170  0.12540  0.32120  Biso   1.000  C
  C37      1.0000 0.62850  0.09060  0.37350  Biso   1.000  C
  C38      1.0000 0.62990  0.17650  0.41180  Biso   1.000  C
  C39      1.0000 0.64020  0.14560  0.46260  Biso   1.000  C
  C40      1.0000 0.60420  0.02020  0.47410  Biso   1.000  C
  C41      1.0000 0.62180  0.95020  0.44120  Biso   1.000  C
  C42      1.0000 0.66290  0.00190  0.39270  Biso   1.000  C
  O13      1.0000 0.43230  0.88180  0.80180  Biso   1.000  O
  O14      1.0000 0.58770  0.84710  0.80110  Biso   1.000  O
  C43      1.0000 0.51630  0.87460  0.82120  Biso   1.000  C
  C44      1.0000 0.53790  0.90940  0.87350  Biso   1.000  C
  C45      1.0000 0.45340  0.82350  0.91180  Biso   1.000  C
  C46      1.0000 0.49460  0.85440  0.96260  Biso   1.000  C
  C47      1.0000 0.58400  0.97980  0.97410  Biso   1.000  C
  C48      1.0000 0.67160  0.04980  0.94120  Biso   1.000  C
  C49      1.0000 0.66100  0.99810  0.89270  Biso   1.000  C
  O15      1.0000 0.44950  0.56770  0.80180  Biso   1.000  O
  O16      1.0000 0.25940  0.41230  0.80110  Biso   1.000  O
  C50      1.0000 0.35830  0.48370  0.82120  Biso   1.000  C
  C51      1.0000 0.37150  0.46210  0.87350  Biso   1.000  C
  C52      1.0000 0.37010  0.54660  0.91180  Biso   1.000  C
  C53      1.0000 0.35980  0.50540  0.96260  Biso   1.000  C
  C54      1.0000 0.39580  0.41600  0.97410  Biso   1.000  C
  C55      1.0000 0.37820  0.32840  0.94120  Biso   1.000  C
  C56      1.0000 0.33710  0.33900  0.89270  Biso   1.000  C
  O17      1.0000 0.11820  0.55050  0.80180  Biso   1.000  O
  O18      1.0000 0.15290  0.74060  0.80110  Biso   1.000  O
  C57      1.0000 0.12540  0.64170  0.82120  Biso   1.000  C
  C58      1.0000 0.09060  0.62850  0.87350  Biso   1.000  C
  C59      1.0000 0.17650  0.62990  0.91180  Biso   1.000  C
  C60      1.0000 0.14560  0.64020  0.96260  Biso   1.000  C
  C61      1.0000 0.02020  0.60420  0.97410  Biso   1.000  C
  C62      1.0000 0.95020  0.62180  0.94120  Biso   1.000  C
  C63      1.0000 0.00190  0.66290  0.89270  Biso   1.000  C
  O19      1.0000 0.43230  0.88180  0.69820  Biso   1.000  O
  O20      1.0000 0.58770  0.84710  0.69890  Biso   1.000  O
  C64      1.0000 0.51630  0.87460  0.67880  Biso   1.000  C
  C65      1.0000 0.53790  0.90940  0.62650  Biso   1.000  C
  C66      1.0000 0.45340  0.82350  0.58820  Biso   1.000  C
  C67      1.0000 0.49460  0.85440  0.53740  Biso   1.000  C
  C68      1.0000 0.58400  0.97980  0.52590  Biso   1.000  C
  C69      1.0000 0.67160  0.04980  0.55880  Biso   1.000  C
  C70      1.0000 0.66100  0.99810  0.60730  Biso   1.000  C
  O21      1.0000 0.44950  0.56770  0.69820  Biso   1.000  O
  O22      1.0000 0.25940  0.41230  0.69890  Biso   1.000  O
  C71      1.0000 0.35830  0.48370  0.67880  Biso   1.000  C
  C72      1.0000 0.37150  0.46210  0.62650  Biso   1.000  C
  C73      1.0000 0.37010  0.54660  0.58820  Biso   1.000  C
  C74      1.0000 0.35980  0.50540  0.53740  Biso   1.000  C
  C75      1.0000 0.39580  0.41600  0.52590  Biso   1.000  C
  C76      1.0000 0.37820  0.32840  0.55880  Biso   1.000  C
  C77      1.0000 0.33710  0.33900  0.60730  Biso   1.000  C
  O23      1.0000 0.11820  0.55050  0.69820  Biso   1.000  O
  O24      1.0000 0.15290  0.74060  0.69890  Biso   1.000  O
  C78      1.0000 0.12540  0.64170  0.67880  Biso   1.000  C
  C79      1.0000 0.09060  0.62850  0.62650  Biso   1.000  C
  C80      1.0000 0.17650  0.62990  0.58820  Biso   1.000  C
  C81      1.0000 0.14560  0.64020  0.53740  Biso   1.000  C
  C82      1.0000 0.02020  0.60420  0.52590  Biso   1.000  C
  C83      1.0000 0.95020  0.62180  0.55880  Biso   1.000  C
  C84      1.0000 0.00190  0.66290  0.60730  Biso   1.000  C
  Cr1      1.0000 0.81310  0.30040  0.25000  Biso   1.000  Cr
  Cr2      1.0000 0.69960  0.51270  0.25000  Biso   1.000  Cr
  Cr3      1.0000 0.48730  0.18690  0.25000  Biso   1.000  Cr
  Cr4      1.0000 0.30040  0.81310  0.75000  Biso   1.000  Cr
  Cr5      1.0000 0.51270  0.69960  0.75000  Biso   1.000  Cr
  Cr6      1.0000 0.18690  0.48730  0.75000  Biso   1.000  Cr
  O25      1.0000 0.66667  0.33333  0.25000  Biso   1.000  O
  O26      1.0000 0.33333  0.66667  0.75000  Biso   1.000  O
