data_image0
_cell_length_a       11.0282
_cell_length_b       11.0282
_cell_length_c       18.9717
_cell_angle_alpha    90
_cell_angle_beta     90
_cell_angle_gamma    120

_symmetry_space_group_name_H-M    "P 1"
_symmetry_int_tables_number       1

loop_
  _symmetry_equiv_pos_as_xyz
  'x, y, z'

loop_
  _atom_site_label
  _atom_site_occupancy
  _atom_site_fract_x
  _atom_site_fract_y
  _atom_site_fract_z
  _atom_site_thermal_displace_type
  _atom_site_B_iso_or_equiv
  _atom_site_type_symbol
  O1       1.0000 0.33000  0.90400  0.67200  Biso   1.000  O
  O2       1.0000 0.52260  0.88950  0.67770  Biso   1.000  O
  C1       1.0000 0.44440  0.91940  0.64160  Biso   1.000  C
  C2       1.0000 0.48410  0.98540  0.57280  Biso   1.000  C
  C3       1.0000 0.60260  0.99940  0.53650  Biso   1.000  C
  C4       1.0000 0.37710  0.98640  0.53630  Biso   1.000  C
  O3       1.0000 0.09600  0.42600  0.67200  Biso   1.000  O
  O4       1.0000 0.11050  0.63310  0.67770  Biso   1.000  O
  C5       1.0000 0.08060  0.52500  0.64160  Biso   1.000  C
  C6       1.0000 0.01460  0.49870  0.57280  Biso   1.000  C
  C7       1.0000 0.00060  0.60320  0.53650  Biso   1.000  C
  C8       1.0000 0.01360  0.39070  0.53630  Biso   1.000  C
  O5       1.0000 0.57400  0.67000  0.67200  Biso   1.000  O
  O6       1.0000 0.36690  0.47740  0.67770  Biso   1.000  O
  C9       1.0000 0.47500  0.55560  0.64160  Biso   1.000  C
  C10      1.0000 0.50130  0.51590  0.57280  Biso   1.000  C
  C11      1.0000 0.39680  0.39740  0.53650  Biso   1.000  C
  C12      1.0000 0.60930  0.62290  0.53630  Biso   1.000  C
  O7       1.0000 0.33000  0.90400  0.82800  Biso   1.000  O
  O8       1.0000 0.52260  0.88950  0.82230  Biso   1.000  O
  C13      1.0000 0.44440  0.91940  0.85840  Biso   1.000  C
  C14      1.0000 0.48410  0.98540  0.92720  Biso   1.000  C
  C15      1.0000 0.60260  0.99940  0.96350  Biso   1.000  C
  C16      1.0000 0.37710  0.98640  0.96370  Biso   1.000  C
  O9       1.0000 0.09600  0.42600  0.82800  Biso   1.000  O
  O10      1.0000 0.11050  0.63310  0.82230  Biso   1.000  O
  C17      1.0000 0.08060  0.52500  0.85840  Biso   1.000  C
  C18      1.0000 0.01460  0.49870  0.92720  Biso   1.000  C
  C19      1.0000 0.00060  0.60320  0.96350  Biso   1.000  C
  C20      1.0000 0.01360  0.39070  0.96370  Biso   1.000  C
  O11      1.0000 0.57400  0.67000  0.82800  Biso   1.000  O
  O12      1.0000 0.36690  0.47740  0.82230  Biso   1.000  O
  C21      1.0000 0.47500  0.55560  0.85840  Biso   1.000  C
  C22      1.0000 0.50130  0.51590  0.92720  Biso   1.000  C
  C23      1.0000 0.39680  0.39740  0.96350  Biso   1.000  C
  C24      1.0000 0.60930  0.62290  0.96370  Biso   1.000  C
  O13      1.0000 0.90400  0.33000  0.32800  Biso   1.000  O
  O14      1.0000 0.88950  0.52260  0.32230  Biso   1.000  O
  C25      1.0000 0.91940  0.44440  0.35840  Biso   1.000  C
  C26      1.0000 0.98540  0.48410  0.42720  Biso   1.000  C
  C27      1.0000 0.99940  0.60260  0.46350  Biso   1.000  C
  C28      1.0000 0.98640  0.37710  0.46370  Biso   1.000  C
  O15      1.0000 0.42600  0.09600  0.32800  Biso   1.000  O
  O16      1.0000 0.63310  0.11050  0.32230  Biso   1.000  O
  C29      1.0000 0.52500  0.08060  0.35840  Biso   1.000  C
  C30      1.0000 0.49870  0.01460  0.42720  Biso   1.000  C
  C31      1.0000 0.60320  0.00060  0.46350  Biso   1.000  C
  C32      1.0000 0.39070  0.01360  0.46370  Biso   1.000  C
  O17      1.0000 0.67000  0.57400  0.32800  Biso   1.000  O
  O18      1.0000 0.47740  0.36690  0.32230  Biso   1.000  O
  C33      1.0000 0.55560  0.47500  0.35840  Biso   1.000  C
  C34      1.0000 0.51590  0.50130  0.42720  Biso   1.000  C
  C35      1.0000 0.39740  0.39680  0.46350  Biso   1.000  C
  C36      1.0000 0.62290  0.60930  0.46370  Biso   1.000  C
  O19      1.0000 0.90400  0.33000  0.17200  Biso   1.000  O
  O20      1.0000 0.88950  0.52260  0.17770  Biso   1.000  O
  C37      1.0000 0.91940  0.44440  0.14160  Biso   1.000  C
  C38      1.0000 0.98540  0.48410  0.07280  Biso   1.000  C
  C39      1.0000 0.99940  0.60260  0.03650  Biso   1.000  C
  C40      1.0000 0.98640  0.37710  0.03630  Biso   1.000  C
  O21      1.0000 0.42600  0.09600  0.17200  Biso   1.000  O
  O22      1.0000 0.63310  0.11050  0.17770  Biso   1.000  O
  C41      1.0000 0.52500  0.08060  0.14160  Biso   1.000  C
  C42      1.0000 0.49870  0.01460  0.07280  Biso   1.000  C
  C43      1.0000 0.60320  0.00060  0.03650  Biso   1.000  C
  C44      1.0000 0.39070  0.01360  0.03630  Biso   1.000  C
  O23      1.0000 0.67000  0.57400  0.17200  Biso   1.000  O
  O24      1.0000 0.47740  0.36690  0.17770  Biso   1.000  O
  C45      1.0000 0.55560  0.47500  0.14160  Biso   1.000  C
  C46      1.0000 0.51590  0.50130  0.07280  Biso   1.000  C
  C47      1.0000 0.39740  0.39680  0.03650  Biso   1.000  C
  C48      1.0000 0.62290  0.60930  0.03630  Biso   1.000  C
  Cr1      1.0000 0.22360  0.76280  0.75000  Biso   1.000  Cr
  Cr2      1.0000 0.23720  0.46080  0.75000  Biso   1.000  Cr
  Cr3      1.0000 0.53920  0.77640  0.75000  Biso   1.000  Cr
  Cr4      1.0000 0.76280  0.22360  0.25000  Biso   1.000  Cr
  Cr5      1.0000 0.46080  0.23720  0.25000  Biso   1.000  Cr
  Cr6      1.0000 0.77640  0.53920  0.25000  Biso   1.000  Cr
  O25      1.0000 0.33333  0.66667  0.75000  Biso   1.000  O
  O26      1.0000 0.66667  0.33333  0.25000  Biso   1.000  O
