data_image0
_cell_length_a       10.1751
_cell_length_b       10.1751
_cell_length_c       23.7722
_cell_angle_alpha    90
_cell_angle_beta     90
_cell_angle_gamma    120

_symmetry_space_group_name_H-M    "P 1"
_symmetry_int_tables_number       1

loop_
  _symmetry_equiv_pos_as_xyz
  'x, y, z'

loop_
  _atom_site_label
  _atom_site_occupancy
  _atom_site_fract_x
  _atom_site_fract_y
  _atom_site_fract_z
  _atom_site_thermal_displace_type
  _atom_site_B_iso_or_equiv
  _atom_site_type_symbol
  O1       1.0000 0.87550  0.27270  0.18940  Biso   1.000  O
  O2       1.0000 0.93170  0.50460  0.19160  Biso   1.000  O
  C1       1.0000 0.91870  0.38170  0.10370  Biso   1.000  C
  C2       1.0000 0.06520  0.43440  0.10230  Biso   1.000  C
  C3       1.0000 0.13560  0.52290  0.05820  Biso   1.000  C
  C4       1.0000 0.07620  0.46000  0.00170  Biso   1.000  C
  C5       1.0000 0.84690  0.36600  0.04900  Biso   1.000  C
  C6       1.0000 0.86030  0.37620  0.16620  Biso   1.000  C
  O3       1.0000 0.72730  0.60280  0.18940  Biso   1.000  O
  O4       1.0000 0.49540  0.42710  0.19160  Biso   1.000  O
  C7       1.0000 0.61830  0.53700  0.10370  Biso   1.000  C
  C8       1.0000 0.56560  0.63080  0.10230  Biso   1.000  C
  C9       1.0000 0.47710  0.61270  0.05820  Biso   1.000  C
  C10      1.0000 0.54000  0.61620  0.00170  Biso   1.000  C
  C11      1.0000 0.63400  0.48090  0.04900  Biso   1.000  C
  C12      1.0000 0.62380  0.48410  0.16620  Biso   1.000  C
  O5       1.0000 0.39720  0.12450  0.18940  Biso   1.000  O
  O6       1.0000 0.57290  0.06830  0.19160  Biso   1.000  O
  C13      1.0000 0.46300  0.08130  0.10370  Biso   1.000  C
  C14      1.0000 0.36920  0.93480  0.10230  Biso   1.000  C
  C15      1.0000 0.38730  0.86440  0.05820  Biso   1.000  C
  C16      1.0000 0.38380  0.92380  0.00170  Biso   1.000  C
  C17      1.0000 0.51910  0.15310  0.04900  Biso   1.000  C
  C18      1.0000 0.51590  0.13970  0.16620  Biso   1.000  C
  O7       1.0000 0.87550  0.27270  0.31060  Biso   1.000  O
  O8       1.0000 0.93170  0.50460  0.30840  Biso   1.000  O
  C19      1.0000 0.91870  0.38170  0.39630  Biso   1.000  C
  C20      1.0000 0.06520  0.43440  0.39770  Biso   1.000  C
  C21      1.0000 0.13560  0.52290  0.44180  Biso   1.000  C
  C22      1.0000 0.07620  0.46000  0.49830  Biso   1.000  C
  C23      1.0000 0.84690  0.36600  0.45100  Biso   1.000  C
  C24      1.0000 0.86030  0.37620  0.33380  Biso   1.000  C
  O9       1.0000 0.72730  0.60280  0.31060  Biso   1.000  O
  O10      1.0000 0.49540  0.42710  0.30840  Biso   1.000  O
  C25      1.0000 0.61830  0.53700  0.39630  Biso   1.000  C
  C26      1.0000 0.56560  0.63080  0.39770  Biso   1.000  C
  C27      1.0000 0.47710  0.61270  0.44180  Biso   1.000  C
  C28      1.0000 0.54000  0.61620  0.49830  Biso   1.000  C
  C29      1.0000 0.63400  0.48090  0.45100  Biso   1.000  C
  C30      1.0000 0.62380  0.48410  0.33380  Biso   1.000  C
  O11      1.0000 0.39720  0.12450  0.31060  Biso   1.000  O
  O12      1.0000 0.57290  0.06830  0.30840  Biso   1.000  O
  C31      1.0000 0.46300  0.08130  0.39630  Biso   1.000  C
  C32      1.0000 0.36920  0.93480  0.39770  Biso   1.000  C
  C33      1.0000 0.38730  0.86440  0.44180  Biso   1.000  C
  C34      1.0000 0.38380  0.92380  0.49830  Biso   1.000  C
  C35      1.0000 0.51910  0.15310  0.45100  Biso   1.000  C
  C36      1.0000 0.51590  0.13970  0.33380  Biso   1.000  C
  O13      1.0000 0.27270  0.87550  0.81060  Biso   1.000  O
  O14      1.0000 0.50460  0.93170  0.80840  Biso   1.000  O
  C37      1.0000 0.38170  0.91870  0.89630  Biso   1.000  C
  C38      1.0000 0.43440  0.06520  0.89770  Biso   1.000  C
  C39      1.0000 0.52290  0.13560  0.94180  Biso   1.000  C
  C40      1.0000 0.46000  0.07620  0.99830  Biso   1.000  C
  C41      1.0000 0.36600  0.84690  0.95100  Biso   1.000  C
  C42      1.0000 0.37620  0.86030  0.83380  Biso   1.000  C
  O15      1.0000 0.60280  0.72730  0.81060  Biso   1.000  O
  O16      1.0000 0.42710  0.49540  0.80840  Biso   1.000  O
  C43      1.0000 0.53700  0.61830  0.89630  Biso   1.000  C
  C44      1.0000 0.63080  0.56560  0.89770  Biso   1.000  C
  C45      1.0000 0.61270  0.47710  0.94180  Biso   1.000  C
  C46      1.0000 0.61620  0.54000  0.99830  Biso   1.000  C
  C47      1.0000 0.48090  0.63400  0.95100  Biso   1.000  C
  C48      1.0000 0.48410  0.62380  0.83380  Biso   1.000  C
  O17      1.0000 0.12450  0.39720  0.81060  Biso   1.000  O
  O18      1.0000 0.06830  0.57290  0.80840  Biso   1.000  O
  C49      1.0000 0.08130  0.46300  0.89630  Biso   1.000  C
  C50      1.0000 0.93480  0.36920  0.89770  Biso   1.000  C
  C51      1.0000 0.86440  0.38730  0.94180  Biso   1.000  C
  C52      1.0000 0.92380  0.38380  0.99830  Biso   1.000  C
  C53      1.0000 0.15310  0.51910  0.95100  Biso   1.000  C
  C54      1.0000 0.13970  0.51590  0.83380  Biso   1.000  C
  O19      1.0000 0.27270  0.87550  0.68940  Biso   1.000  O
  O20      1.0000 0.50460  0.93170  0.69160  Biso   1.000  O
  C55      1.0000 0.38170  0.91870  0.60370  Biso   1.000  C
  C56      1.0000 0.43440  0.06520  0.60230  Biso   1.000  C
  C57      1.0000 0.52290  0.13560  0.55820  Biso   1.000  C
  C58      1.0000 0.46000  0.07620  0.50170  Biso   1.000  C
  C59      1.0000 0.36600  0.84690  0.54900  Biso   1.000  C
  C60      1.0000 0.37620  0.86030  0.66620  Biso   1.000  C
  O21      1.0000 0.60280  0.72730  0.68940  Biso   1.000  O
  O22      1.0000 0.42710  0.49540  0.69160  Biso   1.000  O
  C61      1.0000 0.53700  0.61830  0.60370  Biso   1.000  C
  C62      1.0000 0.63080  0.56560  0.60230  Biso   1.000  C
  C63      1.0000 0.61270  0.47710  0.55820  Biso   1.000  C
  C64      1.0000 0.61620  0.54000  0.50170  Biso   1.000  C
  C65      1.0000 0.48090  0.63400  0.54900  Biso   1.000  C
  C66      1.0000 0.48410  0.62380  0.66620  Biso   1.000  C
  O23      1.0000 0.12450  0.39720  0.68940  Biso   1.000  O
  O24      1.0000 0.06830  0.57290  0.69160  Biso   1.000  O
  C67      1.0000 0.08130  0.46300  0.60370  Biso   1.000  C
  C68      1.0000 0.93480  0.36920  0.60230  Biso   1.000  C
  C69      1.0000 0.86440  0.38730  0.55820  Biso   1.000  C
  C70      1.0000 0.92380  0.38380  0.50170  Biso   1.000  C
  C71      1.0000 0.15310  0.51910  0.54900  Biso   1.000  C
  C72      1.0000 0.13970  0.51590  0.66620  Biso   1.000  C
  Fe1      1.0000 0.72710  0.16390  0.25000  Biso   1.000  Fe
  Fe2      1.0000 0.83610  0.56320  0.25000  Biso   1.000  Fe
  Fe3      1.0000 0.43680  0.27290  0.25000  Biso   1.000  Fe
  Fe4      1.0000 0.16390  0.72710  0.75000  Biso   1.000  Fe
  Fe5      1.0000 0.56320  0.83610  0.75000  Biso   1.000  Fe
  Fe6      1.0000 0.27290  0.43680  0.75000  Biso   1.000  Fe
  O25      1.0000 0.66667  0.33333  0.25000  Biso   1.000  O
  O26      1.0000 0.33333  0.66667  0.75000  Biso   1.000  O
