data_YEGCUJ_clean
_audit_creation_date              2014-07-02
_audit_creation_method            'Materials Studio'
_symmetry_space_group_name_H-M    'P1'
_symmetry_Int_Tables_number       1
_symmetry_cell_setting            triclinic
loop_
_symmetry_equiv_pos_as_xyz
  x,y,z
_cell_length_a                    16.2792
_cell_length_b                    16.2792
_cell_length_c                    16.2792
_cell_angle_alpha                 90.0000
_cell_angle_beta                  90.0000
_cell_angle_gamma                 90.0000
loop_
_atom_site_label
_atom_site_type_symbol
_atom_site_fract_x
_atom_site_fract_y
_atom_site_fract_z
_atom_site_U_iso_or_equiv
_atom_site_adp_type
_atom_site_occupancy
H1     H     0.41940   0.24570   0.59280   0.01267  Uiso   1.00
H2     H     0.08060   0.25430   0.59280   0.01267  Uiso   1.00
H3     H     0.08060   0.24570   0.90720   0.01267  Uiso   1.00
H4     H     0.41940   0.25430   0.90720   0.01267  Uiso   1.00
H5     H     0.59280   0.41940   0.24570   0.01267  Uiso   1.00
H6     H     0.59280   0.08060   0.25430   0.01267  Uiso   1.00
H7     H     0.90720   0.08060   0.24570   0.01267  Uiso   1.00
H8     H     0.90720   0.41940   0.25430   0.01267  Uiso   1.00
H9     H     0.24570   0.59280   0.41940   0.01267  Uiso   1.00
H10    H     0.25430   0.59280   0.08060   0.01267  Uiso   1.00
H11    H     0.24570   0.90720   0.08060   0.01267  Uiso   1.00
H12    H     0.25430   0.90720   0.41940   0.01267  Uiso   1.00
H13    H     0.74570   0.91940   0.40720   0.01267  Uiso   1.00
H14    H     0.75430   0.58060   0.40720   0.01267  Uiso   1.00
H15    H     0.74570   0.58060   0.09280   0.01267  Uiso   1.00
H16    H     0.75430   0.91940   0.09280   0.01267  Uiso   1.00
H17    H     0.91940   0.09280   0.75430   0.01267  Uiso   1.00
H18    H     0.58060   0.09280   0.74570   0.01267  Uiso   1.00
H19    H     0.58060   0.40720   0.75430   0.01267  Uiso   1.00
H20    H     0.91940   0.40720   0.74570   0.01267  Uiso   1.00
H21    H     0.09280   0.74570   0.58060   0.01267  Uiso   1.00
H22    H     0.09280   0.75430   0.91940   0.01267  Uiso   1.00
H23    H     0.40720   0.74570   0.91940   0.01267  Uiso   1.00
H24    H     0.40720   0.75430   0.58060   0.01267  Uiso   1.00
H25    H     0.58060   0.75430   0.40720   0.01267  Uiso   1.00
H26    H     0.91940   0.74570   0.40720   0.01267  Uiso   1.00
H27    H     0.91940   0.75430   0.09280   0.01267  Uiso   1.00
H28    H     0.58060   0.74570   0.09280   0.01267  Uiso   1.00
H29    H     0.40720   0.58060   0.75430   0.01267  Uiso   1.00
H30    H     0.40720   0.91940   0.74570   0.01267  Uiso   1.00
H31    H     0.09280   0.91940   0.75430   0.01267  Uiso   1.00
H32    H     0.09280   0.58060   0.74570   0.01267  Uiso   1.00
H33    H     0.75430   0.40720   0.58060   0.01267  Uiso   1.00
H34    H     0.74570   0.40720   0.91940   0.01267  Uiso   1.00
H35    H     0.75430   0.09280   0.91940   0.01267  Uiso   1.00
H36    H     0.74570   0.09280   0.58060   0.01267  Uiso   1.00
H37    H     0.25430   0.08060   0.59280   0.01267  Uiso   1.00
H38    H     0.24570   0.41940   0.59280   0.01267  Uiso   1.00
H39    H     0.25430   0.41940   0.90720   0.01267  Uiso   1.00
H40    H     0.24570   0.08060   0.90720   0.01267  Uiso   1.00
H41    H     0.08060   0.90720   0.24570   0.01267  Uiso   1.00
H42    H     0.41940   0.90720   0.25430   0.01267  Uiso   1.00
H43    H     0.41940   0.59280   0.24570   0.01267  Uiso   1.00
H44    H     0.08060   0.59280   0.25430   0.01267  Uiso   1.00
H45    H     0.90720   0.25430   0.41940   0.01267  Uiso   1.00
H46    H     0.90720   0.24570   0.08060   0.01267  Uiso   1.00
H47    H     0.59280   0.25430   0.08060   0.01267  Uiso   1.00
H48    H     0.59280   0.24570   0.41940   0.01267  Uiso   1.00
H49    H     0.31116   0.31116   0.52856   0.01267  Uiso   1.00
H50    H     0.18884   0.18884   0.52856   0.01267  Uiso   1.00
H51    H     0.18884   0.31116   0.97144   0.01267  Uiso   1.00
H52    H     0.31116   0.18884   0.97144   0.01267  Uiso   1.00
H53    H     0.52856   0.31116   0.31116   0.01267  Uiso   1.00
H54    H     0.52856   0.18884   0.18884   0.01267  Uiso   1.00
H55    H     0.97144   0.18884   0.31116   0.01267  Uiso   1.00
H56    H     0.97144   0.31116   0.18884   0.01267  Uiso   1.00
H57    H     0.31116   0.52856   0.31116   0.01267  Uiso   1.00
H58    H     0.18884   0.52856   0.18884   0.01267  Uiso   1.00
H59    H     0.31116   0.97144   0.18884   0.01267  Uiso   1.00
H60    H     0.18884   0.97144   0.31116   0.01267  Uiso   1.00
H61    H     0.81116   0.81116   0.47144   0.01267  Uiso   1.00
H62    H     0.68884   0.68884   0.47144   0.01267  Uiso   1.00
H63    H     0.81116   0.68884   0.02856   0.01267  Uiso   1.00
H64    H     0.68884   0.81116   0.02856   0.01267  Uiso   1.00
H65    H     0.81116   0.02856   0.68884   0.01267  Uiso   1.00
H66    H     0.68884   0.02856   0.81116   0.01267  Uiso   1.00
H67    H     0.68884   0.47144   0.68884   0.01267  Uiso   1.00
H68    H     0.81116   0.47144   0.81116   0.01267  Uiso   1.00
H69    H     0.02856   0.81116   0.68884   0.01267  Uiso   1.00
H70    H     0.02856   0.68884   0.81116   0.01267  Uiso   1.00
H71    H     0.47144   0.81116   0.81116   0.01267  Uiso   1.00
H72    H     0.47144   0.68884   0.68884   0.01267  Uiso   1.00
Pd1    Pd    0.50000   0.25000   0.75000   0.01267  Uiso   1.00
Pd2    Pd    0.00000   0.25000   0.75000   0.01267  Uiso   1.00
Pd3    Pd    0.75000   0.50000   0.25000   0.01267  Uiso   1.00
Pd4    Pd    0.75000   0.00000   0.25000   0.01267  Uiso   1.00
Pd5    Pd    0.25000   0.75000   0.50000   0.01267  Uiso   1.00
Pd6    Pd    0.25000   0.75000   0.00000   0.01267  Uiso   1.00
Pd7    Pd    0.50000   0.75000   0.25000   0.01267  Uiso   1.00
Pd8    Pd    0.00000   0.75000   0.25000   0.01267  Uiso   1.00
Pd9    Pd    0.25000   0.50000   0.75000   0.01267  Uiso   1.00
Pd10   Pd    0.25000   0.00000   0.75000   0.01267  Uiso   1.00
Pd11   Pd    0.75000   0.25000   0.50000   0.01267  Uiso   1.00
Pd12   Pd    0.75000   0.25000   0.00000   0.01267  Uiso   1.00
C1     C     0.39253   0.29033   0.61911   0.01267  Uiso   1.00
C2     C     0.10747   0.20967   0.61911   0.01267  Uiso   1.00
C3     C     0.10747   0.29033   0.88089   0.01267  Uiso   1.00
C4     C     0.39253   0.20967   0.88089   0.01267  Uiso   1.00
C5     C     0.61911   0.39253   0.29033   0.01267  Uiso   1.00
C6     C     0.61911   0.10747   0.20967   0.01267  Uiso   1.00
C7     C     0.88089   0.10747   0.29033   0.01267  Uiso   1.00
C8     C     0.88089   0.39253   0.20967   0.01267  Uiso   1.00
C9     C     0.29033   0.61911   0.39253   0.01267  Uiso   1.00
C10    C     0.20967   0.61911   0.10747   0.01267  Uiso   1.00
C11    C     0.29033   0.88089   0.10747   0.01267  Uiso   1.00
C12    C     0.20967   0.88089   0.39253   0.01267  Uiso   1.00
C13    C     0.79033   0.89253   0.38089   0.01267  Uiso   1.00
C14    C     0.70967   0.60747   0.38089   0.01267  Uiso   1.00
C15    C     0.79033   0.60747   0.11911   0.01267  Uiso   1.00
C16    C     0.70967   0.89253   0.11911   0.01267  Uiso   1.00
C17    C     0.89253   0.11911   0.70967   0.01267  Uiso   1.00
C18    C     0.60747   0.11911   0.79033   0.01267  Uiso   1.00
C19    C     0.60747   0.38089   0.70967   0.01267  Uiso   1.00
C20    C     0.89253   0.38089   0.79033   0.01267  Uiso   1.00
C21    C     0.11911   0.79033   0.60747   0.01267  Uiso   1.00
C22    C     0.11911   0.70967   0.89253   0.01267  Uiso   1.00
C23    C     0.38089   0.79033   0.89253   0.01267  Uiso   1.00
C24    C     0.38089   0.70967   0.60747   0.01267  Uiso   1.00
C25    C     0.60747   0.70967   0.38089   0.01267  Uiso   1.00
C26    C     0.89253   0.79033   0.38089   0.01267  Uiso   1.00
C27    C     0.89253   0.70967   0.11911   0.01267  Uiso   1.00
C28    C     0.60747   0.79033   0.11911   0.01267  Uiso   1.00
C29    C     0.38089   0.60747   0.70967   0.01267  Uiso   1.00
C30    C     0.38089   0.89253   0.79033   0.01267  Uiso   1.00
C31    C     0.11911   0.89253   0.70967   0.01267  Uiso   1.00
C32    C     0.11911   0.60747   0.79033   0.01267  Uiso   1.00
C33    C     0.70967   0.38089   0.60747   0.01267  Uiso   1.00
C34    C     0.79033   0.38089   0.89253   0.01267  Uiso   1.00
C35    C     0.70967   0.11911   0.89253   0.01267  Uiso   1.00
C36    C     0.79033   0.11911   0.60747   0.01267  Uiso   1.00
C37    C     0.20967   0.10747   0.61911   0.01267  Uiso   1.00
C38    C     0.29033   0.39253   0.61911   0.01267  Uiso   1.00
C39    C     0.20967   0.39253   0.88089   0.01267  Uiso   1.00
C40    C     0.29033   0.10747   0.88089   0.01267  Uiso   1.00
C41    C     0.10747   0.88089   0.29033   0.01267  Uiso   1.00
C42    C     0.39253   0.88089   0.20967   0.01267  Uiso   1.00
C43    C     0.39253   0.61911   0.29033   0.01267  Uiso   1.00
C44    C     0.10747   0.61911   0.20967   0.01267  Uiso   1.00
C45    C     0.88089   0.20967   0.39253   0.01267  Uiso   1.00
C46    C     0.88089   0.29033   0.10747   0.01267  Uiso   1.00
C47    C     0.61911   0.20967   0.10747   0.01267  Uiso   1.00
C48    C     0.61911   0.29033   0.39253   0.01267  Uiso   1.00
C49    C     0.37944   0.37944   0.73227   0.01267  Uiso   1.00
C50    C     0.32884   0.32884   0.58129   0.01267  Uiso   1.00
C51    C     0.12056   0.12056   0.73227   0.01267  Uiso   1.00
C52    C     0.17116   0.17116   0.58129   0.01267  Uiso   1.00
C53    C     0.12056   0.37944   0.76773   0.01267  Uiso   1.00
C54    C     0.17116   0.32884   0.91871   0.01267  Uiso   1.00
C55    C     0.37944   0.12056   0.76773   0.01267  Uiso   1.00
C56    C     0.32884   0.17116   0.91871   0.01267  Uiso   1.00
C57    C     0.73227   0.37944   0.37944   0.01267  Uiso   1.00
C58    C     0.58129   0.32884   0.32884   0.01267  Uiso   1.00
C59    C     0.73227   0.12056   0.12056   0.01267  Uiso   1.00
C60    C     0.58129   0.17116   0.17116   0.01267  Uiso   1.00
C61    C     0.76773   0.12056   0.37944   0.01267  Uiso   1.00
C62    C     0.91871   0.17116   0.32884   0.01267  Uiso   1.00
C63    C     0.76773   0.37944   0.12056   0.01267  Uiso   1.00
C64    C     0.91871   0.32884   0.17116   0.01267  Uiso   1.00
C65    C     0.37944   0.73227   0.37944   0.01267  Uiso   1.00
C66    C     0.32884   0.58129   0.32884   0.01267  Uiso   1.00
C67    C     0.12056   0.73227   0.12056   0.01267  Uiso   1.00
C68    C     0.17116   0.58129   0.17116   0.01267  Uiso   1.00
C69    C     0.37944   0.76773   0.12056   0.01267  Uiso   1.00
C70    C     0.32884   0.91871   0.17116   0.01267  Uiso   1.00
C71    C     0.12056   0.76773   0.37944   0.01267  Uiso   1.00
C72    C     0.17116   0.91871   0.32884   0.01267  Uiso   1.00
C73    C     0.87944   0.87944   0.26773   0.01267  Uiso   1.00
C74    C     0.82884   0.82884   0.41871   0.01267  Uiso   1.00
C75    C     0.62056   0.62056   0.26773   0.01267  Uiso   1.00
C76    C     0.67116   0.67116   0.41871   0.01267  Uiso   1.00
C77    C     0.87944   0.62056   0.23227   0.01267  Uiso   1.00
C78    C     0.82884   0.67116   0.08129   0.01267  Uiso   1.00
C79    C     0.62056   0.87944   0.23227   0.01267  Uiso   1.00
C80    C     0.67116   0.82884   0.08129   0.01267  Uiso   1.00
C81    C     0.87944   0.23227   0.62056   0.01267  Uiso   1.00
C82    C     0.82884   0.08129   0.67116   0.01267  Uiso   1.00
C83    C     0.62056   0.23227   0.87944   0.01267  Uiso   1.00
C84    C     0.67116   0.08129   0.82884   0.01267  Uiso   1.00
C85    C     0.62056   0.26773   0.62056   0.01267  Uiso   1.00
C86    C     0.67116   0.41871   0.67116   0.01267  Uiso   1.00
C87    C     0.87944   0.26773   0.87944   0.01267  Uiso   1.00
C88    C     0.82884   0.41871   0.82884   0.01267  Uiso   1.00
C89    C     0.23227   0.87944   0.62056   0.01267  Uiso   1.00
C90    C     0.08129   0.82884   0.67116   0.01267  Uiso   1.00
C91    C     0.23227   0.62056   0.87944   0.01267  Uiso   1.00
C92    C     0.08129   0.67116   0.82884   0.01267  Uiso   1.00
C93    C     0.26773   0.87944   0.87944   0.01267  Uiso   1.00
C94    C     0.41871   0.82884   0.82884   0.01267  Uiso   1.00
C95    C     0.26773   0.62056   0.62056   0.01267  Uiso   1.00
C96    C     0.41871   0.67116   0.67116   0.01267  Uiso   1.00
N1     N     0.41809   0.31561   0.69445   0.01267  Uiso   1.00
N2     N     0.08191   0.18439   0.69445   0.01267  Uiso   1.00
N3     N     0.08191   0.31561   0.80555   0.01267  Uiso   1.00
N4     N     0.41809   0.18439   0.80555   0.01267  Uiso   1.00
N5     N     0.69445   0.41809   0.31561   0.01267  Uiso   1.00
N6     N     0.69445   0.08191   0.18439   0.01267  Uiso   1.00
N7     N     0.80555   0.08191   0.31561   0.01267  Uiso   1.00
N8     N     0.80555   0.41809   0.18439   0.01267  Uiso   1.00
N9     N     0.31561   0.69445   0.41809   0.01267  Uiso   1.00
N10    N     0.18439   0.69445   0.08191   0.01267  Uiso   1.00
N11    N     0.31561   0.80555   0.08191   0.01267  Uiso   1.00
N12    N     0.18439   0.80555   0.41809   0.01267  Uiso   1.00
N13    N     0.81561   0.91809   0.30555   0.01267  Uiso   1.00
N14    N     0.68439   0.58191   0.30555   0.01267  Uiso   1.00
N15    N     0.81561   0.58191   0.19445   0.01267  Uiso   1.00
N16    N     0.68439   0.91809   0.19445   0.01267  Uiso   1.00
N17    N     0.91809   0.19445   0.68439   0.01267  Uiso   1.00
N18    N     0.58191   0.19445   0.81561   0.01267  Uiso   1.00
N19    N     0.58191   0.30555   0.68439   0.01267  Uiso   1.00
N20    N     0.91809   0.30555   0.81561   0.01267  Uiso   1.00
N21    N     0.19445   0.81561   0.58191   0.01267  Uiso   1.00
N22    N     0.19445   0.68439   0.91809   0.01267  Uiso   1.00
N23    N     0.30555   0.81561   0.91809   0.01267  Uiso   1.00
N24    N     0.30555   0.68439   0.58191   0.01267  Uiso   1.00
N25    N     0.58191   0.68439   0.30555   0.01267  Uiso   1.00
N26    N     0.91809   0.81561   0.30555   0.01267  Uiso   1.00
N27    N     0.91809   0.68439   0.19445   0.01267  Uiso   1.00
N28    N     0.58191   0.81561   0.19445   0.01267  Uiso   1.00
N29    N     0.30555   0.58191   0.68439   0.01267  Uiso   1.00
N30    N     0.30555   0.91809   0.81561   0.01267  Uiso   1.00
N31    N     0.19445   0.91809   0.68439   0.01267  Uiso   1.00
N32    N     0.19445   0.58191   0.81561   0.01267  Uiso   1.00
N33    N     0.68439   0.30555   0.58191   0.01267  Uiso   1.00
N34    N     0.81561   0.30555   0.91809   0.01267  Uiso   1.00
N35    N     0.68439   0.19445   0.91809   0.01267  Uiso   1.00
N36    N     0.81561   0.19445   0.58191   0.01267  Uiso   1.00
N37    N     0.18439   0.08191   0.69445   0.01267  Uiso   1.00
N38    N     0.31561   0.41809   0.69445   0.01267  Uiso   1.00
N39    N     0.18439   0.41809   0.80555   0.01267  Uiso   1.00
N40    N     0.31561   0.08191   0.80555   0.01267  Uiso   1.00
N41    N     0.08191   0.80555   0.31561   0.01267  Uiso   1.00
N42    N     0.41809   0.80555   0.18439   0.01267  Uiso   1.00
N43    N     0.41809   0.69445   0.31561   0.01267  Uiso   1.00
N44    N     0.08191   0.69445   0.18439   0.01267  Uiso   1.00
N45    N     0.80555   0.18439   0.41809   0.01267  Uiso   1.00
N46    N     0.80555   0.31561   0.08191   0.01267  Uiso   1.00
N47    N     0.69445   0.18439   0.08191   0.01267  Uiso   1.00
N48    N     0.69445   0.31561   0.41809   0.01267  Uiso   1.00
O1     O     0.40270   0.40270   0.80165   0.01267  Uiso   1.00
O2     O     0.09730   0.09730   0.80165   0.01267  Uiso   1.00
O3     O     0.09730   0.40270   0.69835   0.01267  Uiso   1.00
O4     O     0.40270   0.09730   0.69835   0.01267  Uiso   1.00
O5     O     0.80165   0.40270   0.40270   0.01267  Uiso   1.00
O6     O     0.80165   0.09730   0.09730   0.01267  Uiso   1.00
O7     O     0.69835   0.09730   0.40270   0.01267  Uiso   1.00
O8     O     0.69835   0.40270   0.09730   0.01267  Uiso   1.00
O9     O     0.40270   0.80165   0.40270   0.01267  Uiso   1.00
O10    O     0.09730   0.80165   0.09730   0.01267  Uiso   1.00
O11    O     0.40270   0.69835   0.09730   0.01267  Uiso   1.00
O12    O     0.09730   0.69835   0.40270   0.01267  Uiso   1.00
O13    O     0.90270   0.90270   0.19835   0.01267  Uiso   1.00
O14    O     0.59730   0.59730   0.19835   0.01267  Uiso   1.00
O15    O     0.90270   0.59730   0.30165   0.01267  Uiso   1.00
O16    O     0.59730   0.90270   0.30165   0.01267  Uiso   1.00
O17    O     0.90270   0.30165   0.59730   0.01267  Uiso   1.00
O18    O     0.59730   0.30165   0.90270   0.01267  Uiso   1.00
O19    O     0.59730   0.19835   0.59730   0.01267  Uiso   1.00
O20    O     0.90270   0.19835   0.90270   0.01267  Uiso   1.00
O21    O     0.30165   0.90270   0.59730   0.01267  Uiso   1.00
O22    O     0.30165   0.59730   0.90270   0.01267  Uiso   1.00
O23    O     0.19835   0.90270   0.90270   0.01267  Uiso   1.00
O24    O     0.19835   0.59730   0.59730   0.01267  Uiso   1.00
