data_YEGDAR_clean
_audit_creation_date              2014-07-02
_audit_creation_method            'Materials Studio'
_symmetry_space_group_name_H-M    'P1'
_symmetry_Int_Tables_number       1
_symmetry_cell_setting            triclinic
loop_
_symmetry_equiv_pos_as_xyz
  x,y,z
_cell_length_a                    9.7770
_cell_length_b                    9.7770
_cell_length_c                    33.6110
_cell_angle_alpha                 90.0000
_cell_angle_beta                  90.0000
_cell_angle_gamma                 90.3410
loop_
_atom_site_label
_atom_site_type_symbol
_atom_site_fract_x
_atom_site_fract_y
_atom_site_fract_z
_atom_site_U_iso_or_equiv
_atom_site_adp_type
_atom_site_occupancy
Mn1    Mn    0.95265   0.02741   0.39258   0.01267  Uiso   1.00
Mn2    Mn    0.02741   0.95265   0.60742   0.01267  Uiso   1.00
Mn3    Mn    0.02741   0.95265   0.89258   0.01267  Uiso   1.00
Mn4    Mn    0.95265   0.02741   0.10742   0.01267  Uiso   1.00
Mn5    Mn    0.97269   0.97269   0.50000   0.01267  Uiso   1.00
Mn6    Mn    0.97269   0.97269   0.00000   0.01267  Uiso   1.00
H1     H     0.27340   0.95980   0.38290   0.01267  Uiso   1.00
H2     H     0.68010   0.92530   0.38970   0.01267  Uiso   1.00
H3     H     0.46040   0.97600   0.48890   0.01267  Uiso   1.00
H4     H     0.23180   0.30120   0.30920   0.01267  Uiso   1.00
H5     H     0.48750   0.32970   0.28900   0.01267  Uiso   1.00
H6     H     0.52830   0.48350   0.28260   0.01267  Uiso   1.00
H7     H     0.40060   0.44560   0.30870   0.01267  Uiso   1.00
H8     H     0.79940   0.28000   0.34010   0.01267  Uiso   1.00
H9     H     0.67630   0.47370   0.36720   0.01267  Uiso   1.00
H10    H     0.79360   0.23680   0.45550   0.01267  Uiso   1.00
H11    H     0.65600   0.43980   0.47780   0.01267  Uiso   1.00
H12    H     0.67810   0.56650   0.44970   0.01267  Uiso   1.00
H13    H     0.45330   0.27830   0.44920   0.01267  Uiso   1.00
H14    H     0.23150   0.27590   0.42950   0.01267  Uiso   1.00
H15    H     0.24920   0.67640   0.41640   0.01267  Uiso   1.00
H16    H     0.47760   0.67360   0.43190   0.01267  Uiso   1.00
H17    H     0.01070   0.46650   0.43480   0.01267  Uiso   1.00
H18    H     0.04600   0.39300   0.39470   0.01267  Uiso   1.00
H19    H     0.96680   0.72620   0.43200   0.01267  Uiso   1.00
H20    H     0.98650   0.78770   0.31740   0.01267  Uiso   1.00
H21    H     0.04860   0.55100   0.32920   0.01267  Uiso   1.00
H22    H     0.28170   0.91970   0.32160   0.01267  Uiso   1.00
H23    H     0.36330   0.83650   0.28970   0.01267  Uiso   1.00
H24    H     0.33340   0.77200   0.33150   0.01267  Uiso   1.00
H25    H     0.58530   0.10170   0.32590   0.01267  Uiso   1.00
H26    H     0.50840   0.05420   0.28730   0.01267  Uiso   1.00
H27    H     0.42580   0.11420   0.32320   0.01267  Uiso   1.00
H28    H     0.60340   0.74320   0.33290   0.01267  Uiso   1.00
H29    H     0.59930   0.81630   0.29140   0.01267  Uiso   1.00
H30    H     0.68990   0.87650   0.32580   0.01267  Uiso   1.00
H31    H     0.95980   0.27340   0.61710   0.01267  Uiso   1.00
H32    H     0.92530   0.68010   0.61030   0.01267  Uiso   1.00
H33    H     0.97600   0.46040   0.51110   0.01267  Uiso   1.00
H34    H     0.30120   0.23180   0.69080   0.01267  Uiso   1.00
H35    H     0.32970   0.48750   0.71100   0.01267  Uiso   1.00
H36    H     0.48350   0.52830   0.71740   0.01267  Uiso   1.00
H37    H     0.44560   0.40060   0.69130   0.01267  Uiso   1.00
H38    H     0.28000   0.79940   0.65990   0.01267  Uiso   1.00
H39    H     0.47370   0.67630   0.63280   0.01267  Uiso   1.00
H40    H     0.23680   0.79360   0.54450   0.01267  Uiso   1.00
H41    H     0.43980   0.65600   0.52220   0.01267  Uiso   1.00
H42    H     0.56650   0.67810   0.55030   0.01267  Uiso   1.00
H43    H     0.27830   0.45330   0.55080   0.01267  Uiso   1.00
H44    H     0.27590   0.23150   0.57050   0.01267  Uiso   1.00
H45    H     0.67640   0.24920   0.58360   0.01267  Uiso   1.00
H46    H     0.67360   0.47760   0.56810   0.01267  Uiso   1.00
H47    H     0.46650   0.01070   0.56520   0.01267  Uiso   1.00
H48    H     0.39300   0.04600   0.60530   0.01267  Uiso   1.00
H49    H     0.72620   0.96680   0.56800   0.01267  Uiso   1.00
H50    H     0.78770   0.98650   0.68260   0.01267  Uiso   1.00
H51    H     0.55100   0.04860   0.67080   0.01267  Uiso   1.00
H52    H     0.91970   0.28170   0.67840   0.01267  Uiso   1.00
H53    H     0.83650   0.36330   0.71030   0.01267  Uiso   1.00
H54    H     0.77200   0.33340   0.66850   0.01267  Uiso   1.00
H55    H     0.10170   0.58530   0.67410   0.01267  Uiso   1.00
H56    H     0.05420   0.50840   0.71270   0.01267  Uiso   1.00
H57    H     0.11420   0.42580   0.67680   0.01267  Uiso   1.00
H58    H     0.74320   0.60340   0.66710   0.01267  Uiso   1.00
H59    H     0.81630   0.59930   0.70860   0.01267  Uiso   1.00
H60    H     0.87650   0.68990   0.67420   0.01267  Uiso   1.00
H61    H     0.95980   0.27340   0.88290   0.01267  Uiso   1.00
H62    H     0.92530   0.68010   0.88970   0.01267  Uiso   1.00
H63    H     0.97600   0.46040   0.98890   0.01267  Uiso   1.00
H64    H     0.30120   0.23180   0.80920   0.01267  Uiso   1.00
H65    H     0.32970   0.48750   0.78900   0.01267  Uiso   1.00
H66    H     0.48350   0.52830   0.78260   0.01267  Uiso   1.00
H67    H     0.44560   0.40060   0.80870   0.01267  Uiso   1.00
H68    H     0.28000   0.79940   0.84010   0.01267  Uiso   1.00
H69    H     0.47370   0.67630   0.86720   0.01267  Uiso   1.00
H70    H     0.23680   0.79360   0.95550   0.01267  Uiso   1.00
H71    H     0.43980   0.65600   0.97780   0.01267  Uiso   1.00
H72    H     0.56650   0.67810   0.94970   0.01267  Uiso   1.00
H73    H     0.27830   0.45330   0.94920   0.01267  Uiso   1.00
H74    H     0.27590   0.23150   0.92950   0.01267  Uiso   1.00
H75    H     0.67640   0.24920   0.91640   0.01267  Uiso   1.00
H76    H     0.67360   0.47760   0.93190   0.01267  Uiso   1.00
H77    H     0.46650   0.01070   0.93480   0.01267  Uiso   1.00
H78    H     0.39300   0.04600   0.89470   0.01267  Uiso   1.00
H79    H     0.72620   0.96680   0.93200   0.01267  Uiso   1.00
H80    H     0.78770   0.98650   0.81740   0.01267  Uiso   1.00
H81    H     0.55100   0.04860   0.82920   0.01267  Uiso   1.00
H82    H     0.91970   0.28170   0.82160   0.01267  Uiso   1.00
H83    H     0.83650   0.36330   0.78970   0.01267  Uiso   1.00
H84    H     0.77200   0.33340   0.83150   0.01267  Uiso   1.00
H85    H     0.10170   0.58530   0.82590   0.01267  Uiso   1.00
H86    H     0.05420   0.50840   0.78730   0.01267  Uiso   1.00
H87    H     0.11420   0.42580   0.82320   0.01267  Uiso   1.00
H88    H     0.74320   0.60340   0.83290   0.01267  Uiso   1.00
H89    H     0.81630   0.59930   0.79140   0.01267  Uiso   1.00
H90    H     0.87650   0.68990   0.82580   0.01267  Uiso   1.00
H91    H     0.27340   0.95980   0.11710   0.01267  Uiso   1.00
H92    H     0.68010   0.92530   0.11030   0.01267  Uiso   1.00
H93    H     0.46040   0.97600   0.01110   0.01267  Uiso   1.00
H94    H     0.23180   0.30120   0.19080   0.01267  Uiso   1.00
H95    H     0.48750   0.32970   0.21100   0.01267  Uiso   1.00
H96    H     0.52830   0.48350   0.21740   0.01267  Uiso   1.00
H97    H     0.40060   0.44560   0.19130   0.01267  Uiso   1.00
H98    H     0.79940   0.28000   0.15990   0.01267  Uiso   1.00
H99    H     0.67630   0.47370   0.13280   0.01267  Uiso   1.00
H100   H     0.79360   0.23680   0.04450   0.01267  Uiso   1.00
H101   H     0.65600   0.43980   0.02220   0.01267  Uiso   1.00
H102   H     0.67810   0.56650   0.05030   0.01267  Uiso   1.00
H103   H     0.45330   0.27830   0.05080   0.01267  Uiso   1.00
H104   H     0.23150   0.27590   0.07050   0.01267  Uiso   1.00
H105   H     0.24920   0.67640   0.08360   0.01267  Uiso   1.00
H106   H     0.47760   0.67360   0.06810   0.01267  Uiso   1.00
H107   H     0.01070   0.46650   0.06520   0.01267  Uiso   1.00
H108   H     0.04600   0.39300   0.10530   0.01267  Uiso   1.00
H109   H     0.96680   0.72620   0.06800   0.01267  Uiso   1.00
H110   H     0.98650   0.78770   0.18260   0.01267  Uiso   1.00
H111   H     0.04860   0.55100   0.17080   0.01267  Uiso   1.00
H112   H     0.28170   0.91970   0.17840   0.01267  Uiso   1.00
H113   H     0.36330   0.83650   0.21030   0.01267  Uiso   1.00
H114   H     0.33340   0.77200   0.16850   0.01267  Uiso   1.00
H115   H     0.58530   0.10170   0.17410   0.01267  Uiso   1.00
H116   H     0.50840   0.05420   0.21270   0.01267  Uiso   1.00
H117   H     0.42580   0.11420   0.17680   0.01267  Uiso   1.00
H118   H     0.60340   0.74320   0.16710   0.01267  Uiso   1.00
H119   H     0.59930   0.81630   0.20860   0.01267  Uiso   1.00
H120   H     0.68990   0.87650   0.17420   0.01267  Uiso   1.00
H121   H     0.96170   0.06810   0.25000   0.01267  Uiso   1.00
H122   H     0.06810   0.96170   0.75000   0.01267  Uiso   1.00
C1     C     0.20990   0.98090   0.45831   0.01267  Uiso   1.00
C2     C     0.34590   0.96970   0.43866   0.01267  Uiso   1.00
C3     C     0.35340   0.95540   0.39776   0.01267  Uiso   1.00
C4     C     0.47780   0.93460   0.37814   0.01267  Uiso   1.00
C5     C     0.59540   0.93640   0.40186   0.01267  Uiso   1.00
C6     C     0.59050   0.95410   0.44265   0.01267  Uiso   1.00
C7     C     0.46500   0.96800   0.46137   0.01267  Uiso   1.00
C8     C     0.72060   0.95840   0.46629   0.01267  Uiso   1.00
C9     C     0.48760   0.91500   0.33336   0.01267  Uiso   1.00
C10    C     0.03510   0.12190   0.32440   0.01267  Uiso   1.00
C11    C     0.08930   0.17550   0.28584   0.01267  Uiso   1.00
C12    C     0.19640   0.27000   0.28522   0.01267  Uiso   1.00
C13    C     0.45310   0.42070   0.28570   0.01267  Uiso   1.00
C14    C     0.78270   0.29550   0.36697   0.01267  Uiso   1.00
C15    C     0.71510   0.40270   0.38166   0.01267  Uiso   1.00
C16    C     0.78010   0.27150   0.43003   0.01267  Uiso   1.00
C17    C     0.64180   0.47400   0.45101   0.01267  Uiso   1.00
C18    C     0.49060   0.47540   0.44174   0.01267  Uiso   1.00
C19    C     0.41310   0.36010   0.44150   0.01267  Uiso   1.00
C20    C     0.27940   0.35820   0.43070   0.01267  Uiso   1.00
C21    C     0.21570   0.47750   0.42145   0.01267  Uiso   1.00
C22    C     0.29080   0.59360   0.42240   0.01267  Uiso   1.00
C23    C     0.42800   0.59220   0.43210   0.01267  Uiso   1.00
C24    C     0.06430   0.47390   0.41056   0.01267  Uiso   1.00
C25    C     0.98050   0.71290   0.40487   0.01267  Uiso   1.00
C26    C     0.99090   0.74590   0.34216   0.01267  Uiso   1.00
C27    C     0.02560   0.61480   0.34851   0.01267  Uiso   1.00
C28    C     0.35420   0.85520   0.31760   0.01267  Uiso   1.00
C29    C     0.50330   0.05990   0.31580   0.01267  Uiso   1.00
C30    C     0.60570   0.83010   0.31960   0.01267  Uiso   1.00
C31    C     0.98090   0.20990   0.54169   0.01267  Uiso   1.00
C32    C     0.96970   0.34590   0.56134   0.01267  Uiso   1.00
C33    C     0.95540   0.35340   0.60224   0.01267  Uiso   1.00
C34    C     0.93460   0.47780   0.62186   0.01267  Uiso   1.00
C35    C     0.93640   0.59540   0.59814   0.01267  Uiso   1.00
C36    C     0.95410   0.59050   0.55735   0.01267  Uiso   1.00
C37    C     0.96800   0.46500   0.53863   0.01267  Uiso   1.00
C38    C     0.95840   0.72060   0.53371   0.01267  Uiso   1.00
C39    C     0.91500   0.48760   0.66664   0.01267  Uiso   1.00
C40    C     0.12190   0.03510   0.67560   0.01267  Uiso   1.00
C41    C     0.17550   0.08930   0.71416   0.01267  Uiso   1.00
C42    C     0.27000   0.19640   0.71478   0.01267  Uiso   1.00
C43    C     0.42070   0.45310   0.71430   0.01267  Uiso   1.00
C44    C     0.29550   0.78270   0.63303   0.01267  Uiso   1.00
C45    C     0.40270   0.71510   0.61834   0.01267  Uiso   1.00
C46    C     0.27150   0.78010   0.56997   0.01267  Uiso   1.00
C47    C     0.47400   0.64180   0.54899   0.01267  Uiso   1.00
C48    C     0.47540   0.49060   0.55826   0.01267  Uiso   1.00
C49    C     0.36010   0.41310   0.55850   0.01267  Uiso   1.00
C50    C     0.35820   0.27940   0.56930   0.01267  Uiso   1.00
C51    C     0.47750   0.21570   0.57855   0.01267  Uiso   1.00
C52    C     0.59360   0.29080   0.57760   0.01267  Uiso   1.00
C53    C     0.59220   0.42800   0.56790   0.01267  Uiso   1.00
C54    C     0.47390   0.06430   0.58944   0.01267  Uiso   1.00
C55    C     0.71290   0.98050   0.59513   0.01267  Uiso   1.00
C56    C     0.74590   0.99090   0.65784   0.01267  Uiso   1.00
C57    C     0.61480   0.02560   0.65149   0.01267  Uiso   1.00
C58    C     0.85520   0.35420   0.68240   0.01267  Uiso   1.00
C59    C     0.05990   0.50330   0.68420   0.01267  Uiso   1.00
C60    C     0.83010   0.60570   0.68040   0.01267  Uiso   1.00
C61    C     0.98090   0.20990   0.95831   0.01267  Uiso   1.00
C62    C     0.96970   0.34590   0.93866   0.01267  Uiso   1.00
C63    C     0.95540   0.35340   0.89776   0.01267  Uiso   1.00
C64    C     0.93460   0.47780   0.87814   0.01267  Uiso   1.00
C65    C     0.93640   0.59540   0.90186   0.01267  Uiso   1.00
C66    C     0.95410   0.59050   0.94265   0.01267  Uiso   1.00
C67    C     0.96800   0.46500   0.96137   0.01267  Uiso   1.00
C68    C     0.95840   0.72060   0.96629   0.01267  Uiso   1.00
C69    C     0.91500   0.48760   0.83336   0.01267  Uiso   1.00
C70    C     0.12190   0.03510   0.82440   0.01267  Uiso   1.00
C71    C     0.17550   0.08930   0.78584   0.01267  Uiso   1.00
C72    C     0.27000   0.19640   0.78522   0.01267  Uiso   1.00
C73    C     0.42070   0.45310   0.78570   0.01267  Uiso   1.00
C74    C     0.29550   0.78270   0.86697   0.01267  Uiso   1.00
C75    C     0.40270   0.71510   0.88166   0.01267  Uiso   1.00
C76    C     0.27150   0.78010   0.93003   0.01267  Uiso   1.00
C77    C     0.47400   0.64180   0.95101   0.01267  Uiso   1.00
C78    C     0.47540   0.49060   0.94174   0.01267  Uiso   1.00
C79    C     0.36010   0.41310   0.94150   0.01267  Uiso   1.00
C80    C     0.35820   0.27940   0.93070   0.01267  Uiso   1.00
C81    C     0.47750   0.21570   0.92145   0.01267  Uiso   1.00
C82    C     0.59360   0.29080   0.92240   0.01267  Uiso   1.00
C83    C     0.59220   0.42800   0.93210   0.01267  Uiso   1.00
C84    C     0.47390   0.06430   0.91056   0.01267  Uiso   1.00
C85    C     0.71290   0.98050   0.90487   0.01267  Uiso   1.00
C86    C     0.74590   0.99090   0.84216   0.01267  Uiso   1.00
C87    C     0.61480   0.02560   0.84851   0.01267  Uiso   1.00
C88    C     0.85520   0.35420   0.81760   0.01267  Uiso   1.00
C89    C     0.05990   0.50330   0.81580   0.01267  Uiso   1.00
C90    C     0.83010   0.60570   0.81960   0.01267  Uiso   1.00
C91    C     0.20990   0.98090   0.04169   0.01267  Uiso   1.00
C92    C     0.34590   0.96970   0.06134   0.01267  Uiso   1.00
C93    C     0.35340   0.95540   0.10224   0.01267  Uiso   1.00
C94    C     0.47780   0.93460   0.12186   0.01267  Uiso   1.00
C95    C     0.59540   0.93640   0.09814   0.01267  Uiso   1.00
C96    C     0.59050   0.95410   0.05735   0.01267  Uiso   1.00
C97    C     0.46500   0.96800   0.03863   0.01267  Uiso   1.00
C98    C     0.72060   0.95840   0.03371   0.01267  Uiso   1.00
C99    C     0.48760   0.91500   0.16664   0.01267  Uiso   1.00
C100   C     0.03510   0.12190   0.17560   0.01267  Uiso   1.00
C101   C     0.08930   0.17550   0.21416   0.01267  Uiso   1.00
C102   C     0.19640   0.27000   0.21478   0.01267  Uiso   1.00
C103   C     0.45310   0.42070   0.21430   0.01267  Uiso   1.00
C104   C     0.78270   0.29550   0.13303   0.01267  Uiso   1.00
C105   C     0.71510   0.40270   0.11834   0.01267  Uiso   1.00
C106   C     0.78010   0.27150   0.06997   0.01267  Uiso   1.00
C107   C     0.64180   0.47400   0.04899   0.01267  Uiso   1.00
C108   C     0.49060   0.47540   0.05826   0.01267  Uiso   1.00
C109   C     0.41310   0.36010   0.05850   0.01267  Uiso   1.00
C110   C     0.27940   0.35820   0.06930   0.01267  Uiso   1.00
C111   C     0.21570   0.47750   0.07855   0.01267  Uiso   1.00
C112   C     0.29080   0.59360   0.07760   0.01267  Uiso   1.00
C113   C     0.42800   0.59220   0.06790   0.01267  Uiso   1.00
C114   C     0.06430   0.47390   0.08944   0.01267  Uiso   1.00
C115   C     0.98050   0.71290   0.09513   0.01267  Uiso   1.00
C116   C     0.99090   0.74590   0.15784   0.01267  Uiso   1.00
C117   C     0.02560   0.61480   0.15149   0.01267  Uiso   1.00
C118   C     0.35420   0.85520   0.18240   0.01267  Uiso   1.00
C119   C     0.50330   0.05990   0.18420   0.01267  Uiso   1.00
C120   C     0.60570   0.83010   0.18040   0.01267  Uiso   1.00
C121   C     0.03470   0.12950   0.25000   0.01267  Uiso   1.00
C122   C     0.25180   0.31920   0.25000   0.01267  Uiso   1.00
C123   C     0.36520   0.42620   0.25000   0.01267  Uiso   1.00
C124   C     0.29960   0.56460   0.25000   0.01267  Uiso   1.00
C125   C     0.12950   0.03470   0.75000   0.01267  Uiso   1.00
C126   C     0.31920   0.25180   0.75000   0.01267  Uiso   1.00
C127   C     0.42620   0.36520   0.75000   0.01267  Uiso   1.00
C128   C     0.56460   0.29960   0.75000   0.01267  Uiso   1.00
N1     N     0.82400   0.21180   0.39750   0.01267  Uiso   1.00
N2     N     0.71440   0.38700   0.42245   0.01267  Uiso   1.00
N3     N     0.96270   0.80890   0.37777   0.01267  Uiso   1.00
N4     N     0.02100   0.59300   0.38876   0.01267  Uiso   1.00
N5     N     0.21180   0.82400   0.60250   0.01267  Uiso   1.00
N6     N     0.38700   0.71440   0.57755   0.01267  Uiso   1.00
N7     N     0.80890   0.96270   0.62223   0.01267  Uiso   1.00
N8     N     0.59300   0.02100   0.61124   0.01267  Uiso   1.00
N9     N     0.21180   0.82400   0.89750   0.01267  Uiso   1.00
N10    N     0.38700   0.71440   0.92245   0.01267  Uiso   1.00
N11    N     0.80890   0.96270   0.87777   0.01267  Uiso   1.00
N12    N     0.59300   0.02100   0.88876   0.01267  Uiso   1.00
N13    N     0.82400   0.21180   0.10250   0.01267  Uiso   1.00
N14    N     0.71440   0.38700   0.07755   0.01267  Uiso   1.00
N15    N     0.96270   0.80890   0.12223   0.01267  Uiso   1.00
N16    N     0.02100   0.59300   0.11124   0.01267  Uiso   1.00
O1     O     0.10657   0.00903   0.43769   0.01267  Uiso   1.00
O2     O     0.19850   0.96210   0.49499   0.01267  Uiso   1.00
O3     O     0.71710   0.96490   0.50290   0.01267  Uiso   1.00
O4     O     0.83481   0.95899   0.44798   0.01267  Uiso   1.00
O5     O     0.09900   0.14900   0.35613   0.01267  Uiso   1.00
O6     O     0.92898   0.04962   0.32464   0.01267  Uiso   1.00
O7     O     0.00903   0.10657   0.56231   0.01267  Uiso   1.00
O8     O     0.96210   0.19850   0.50501   0.01267  Uiso   1.00
O9     O     0.96490   0.71710   0.49710   0.01267  Uiso   1.00
O10    O     0.95899   0.83481   0.55202   0.01267  Uiso   1.00
O11    O     0.14900   0.09900   0.64387   0.01267  Uiso   1.00
O12    O     0.04962   0.92898   0.67536   0.01267  Uiso   1.00
O13    O     0.00903   0.10657   0.93769   0.01267  Uiso   1.00
O14    O     0.96210   0.19850   0.99499   0.01267  Uiso   1.00
O15    O     0.96490   0.71710   0.00290   0.01267  Uiso   1.00
O16    O     0.95899   0.83481   0.94798   0.01267  Uiso   1.00
O17    O     0.14900   0.09900   0.85613   0.01267  Uiso   1.00
O18    O     0.04962   0.92898   0.82464   0.01267  Uiso   1.00
O19    O     0.10657   0.00903   0.06231   0.01267  Uiso   1.00
O20    O     0.19850   0.96210   0.00501   0.01267  Uiso   1.00
O21    O     0.71710   0.96490   0.99710   0.01267  Uiso   1.00
O22    O     0.83481   0.95899   0.05202   0.01267  Uiso   1.00
O23    O     0.09900   0.14900   0.14387   0.01267  Uiso   1.00
O24    O     0.92898   0.04962   0.17536   0.01267  Uiso   1.00
