data_image0
_cell_length_a       20.883
_cell_length_b       20.883
_cell_length_c       32.658
_cell_angle_alpha    90
_cell_angle_beta     90
_cell_angle_gamma    120

_symmetry_space_group_name_H-M    "P 1"
_symmetry_int_tables_number       1

loop_
  _symmetry_equiv_pos_as_xyz
  'x, y, z'

loop_
  _atom_site_label
  _atom_site_occupancy
  _atom_site_fract_x
  _atom_site_fract_y
  _atom_site_fract_z
  _atom_site_thermal_displace_type
  _atom_site_B_iso_or_equiv
  _atom_site_type_symbol
  C1       1.0000 0.01580  0.30630  0.81246  Biso   1.000  C
  C2       1.0000 0.92710  0.31160  0.75931  Biso   1.000  C
  C3       1.0000 0.98420  0.17880  0.78844  Biso   1.000  C
  C4       1.0000 0.11170  0.28950  0.75779  Biso   1.000  C
  N1       1.0000 0.02360  0.32810  0.84550  Biso   1.000  N
  N2       1.0000 0.88720  0.33260  0.76546  Biso   1.000  N
  N3       1.0000 0.96860  0.12810  0.80834  Biso   1.000  N
  N4       1.0000 0.17000  0.29750  0.76018  Biso   1.000  N
  C5       1.0000 0.68247  0.63963  0.14579  Biso   1.000  C
  C6       1.0000 0.59377  0.64493  0.09264  Biso   1.000  C
  C7       1.0000 0.65087  0.51213  0.12177  Biso   1.000  C
  C8       1.0000 0.77837  0.62283  0.09112  Biso   1.000  C
  N5       1.0000 0.69027  0.66143  0.17883  Biso   1.000  N
  N6       1.0000 0.55387  0.66593  0.09879  Biso   1.000  N
  N7       1.0000 0.63527  0.46143  0.14167  Biso   1.000  N
  N8       1.0000 0.83667  0.63083  0.09351  Biso   1.000  N
  C9       1.0000 0.34913  0.97297  0.47913  Biso   1.000  C
  C10      1.0000 0.26043  0.97827  0.42598  Biso   1.000  C
  C11      1.0000 0.31753  0.84547  0.45511  Biso   1.000  C
  C12      1.0000 0.44503  0.95617  0.42446  Biso   1.000  C
  N9       1.0000 0.35693  0.99477  0.51217  Biso   1.000  N
  N10      1.0000 0.22053  0.99927  0.43213  Biso   1.000  N
  N11      1.0000 0.30193  0.79477  0.47501  Biso   1.000  N
  N12      1.0000 0.50333  0.96417  0.42685  Biso   1.000  N
  C13      1.0000 0.69370  0.70950  0.81246  Biso   1.000  C
  C14      1.0000 0.68840  0.61550  0.75931  Biso   1.000  C
  C15      1.0000 0.82120  0.80540  0.78844  Biso   1.000  C
  C16      1.0000 0.71050  0.82220  0.75779  Biso   1.000  C
  N13      1.0000 0.67190  0.69550  0.84550  Biso   1.000  N
  N14      1.0000 0.66740  0.55460  0.76546  Biso   1.000  N
  N15      1.0000 0.87190  0.84050  0.80834  Biso   1.000  N
  N16      1.0000 0.70250  0.87250  0.76018  Biso   1.000  N
  C17      1.0000 0.36037  0.04283  0.14579  Biso   1.000  C
  C18      1.0000 0.35507  0.94883  0.09264  Biso   1.000  C
  C19      1.0000 0.48787  0.13873  0.12177  Biso   1.000  C
  C20      1.0000 0.37717  0.15553  0.09112  Biso   1.000  C
  N17      1.0000 0.33857  0.02883  0.17883  Biso   1.000  N
  N18      1.0000 0.33407  0.88793  0.09879  Biso   1.000  N
  N19      1.0000 0.53857  0.17383  0.14167  Biso   1.000  N
  N20      1.0000 0.36917  0.20583  0.09351  Biso   1.000  N
  C21      1.0000 0.02703  0.37617  0.47913  Biso   1.000  C
  C22      1.0000 0.02173  0.28217  0.42598  Biso   1.000  C
  C23      1.0000 0.15453  0.47207  0.45511  Biso   1.000  C
  C24      1.0000 0.04383  0.48887  0.42446  Biso   1.000  C
  N21      1.0000 0.00523  0.36217  0.51217  Biso   1.000  N
  N22      1.0000 0.00073  0.22127  0.43213  Biso   1.000  N
  N23      1.0000 0.20523  0.50717  0.47501  Biso   1.000  N
  N24      1.0000 0.03583  0.53917  0.42685  Biso   1.000  N
  C25      1.0000 0.29050  0.98420  0.81246  Biso   1.000  C
  C26      1.0000 0.38450  0.07290  0.75931  Biso   1.000  C
  C27      1.0000 0.19460  0.01580  0.78844  Biso   1.000  C
  C28      1.0000 0.17780  0.88830  0.75779  Biso   1.000  C
  N25      1.0000 0.30450  0.97640  0.84550  Biso   1.000  N
  N26      1.0000 0.44540  0.11280  0.76546  Biso   1.000  N
  N27      1.0000 0.15950  0.03140  0.80834  Biso   1.000  N
  N28      1.0000 0.12750  0.83000  0.76018  Biso   1.000  N
  C29      1.0000 0.95717  0.31753  0.14579  Biso   1.000  C
  C30      1.0000 0.05117  0.40623  0.09264  Biso   1.000  C
  C31      1.0000 0.86127  0.34913  0.12177  Biso   1.000  C
  C32      1.0000 0.84447  0.22163  0.09112  Biso   1.000  C
  N29      1.0000 0.97117  0.30973  0.17883  Biso   1.000  N
  N30      1.0000 0.11207  0.44613  0.09879  Biso   1.000  N
  N31      1.0000 0.82617  0.36473  0.14167  Biso   1.000  N
  N32      1.0000 0.79417  0.16333  0.09351  Biso   1.000  N
  C33      1.0000 0.62383  0.65087  0.47913  Biso   1.000  C
  C34      1.0000 0.71783  0.73957  0.42598  Biso   1.000  C
  C35      1.0000 0.52793  0.68247  0.45511  Biso   1.000  C
  C36      1.0000 0.51113  0.55497  0.42446  Biso   1.000  C
  N33      1.0000 0.63783  0.64307  0.51217  Biso   1.000  N
  N34      1.0000 0.77873  0.77947  0.43213  Biso   1.000  N
  N35      1.0000 0.49283  0.69807  0.47501  Biso   1.000  N
  N36      1.0000 0.46083  0.49667  0.42685  Biso   1.000  N
  C37      1.0000 0.30630  0.01580  0.68754  Biso   1.000  C
  C38      1.0000 0.31160  0.92710  0.74069  Biso   1.000  C
  C39      1.0000 0.17880  0.98420  0.71156  Biso   1.000  C
  C40      1.0000 0.28950  0.11170  0.74221  Biso   1.000  C
  N37      1.0000 0.32810  0.02360  0.65450  Biso   1.000  N
  N38      1.0000 0.33260  0.88720  0.73454  Biso   1.000  N
  N39      1.0000 0.12810  0.96860  0.69166  Biso   1.000  N
  N40      1.0000 0.29750  0.17000  0.73982  Biso   1.000  N
  C41      1.0000 0.97297  0.34913  0.02087  Biso   1.000  C
  C42      1.0000 0.97827  0.26043  0.07402  Biso   1.000  C
  C43      1.0000 0.84547  0.31753  0.04489  Biso   1.000  C
  C44      1.0000 0.95617  0.44503  0.07554  Biso   1.000  C
  N41      1.0000 0.99477  0.35693  0.98783  Biso   1.000  N
  N42      1.0000 0.99927  0.22053  0.06787  Biso   1.000  N
  N43      1.0000 0.79477  0.30193  0.02499  Biso   1.000  N
  N44      1.0000 0.96417  0.50333  0.07315  Biso   1.000  N
  C45      1.0000 0.63963  0.68247  0.35421  Biso   1.000  C
  C46      1.0000 0.64493  0.59377  0.40736  Biso   1.000  C
  C47      1.0000 0.51213  0.65087  0.37823  Biso   1.000  C
  C48      1.0000 0.62283  0.77837  0.40888  Biso   1.000  C
  N45      1.0000 0.66143  0.69027  0.32117  Biso   1.000  N
  N46      1.0000 0.66593  0.55387  0.40121  Biso   1.000  N
  N47      1.0000 0.46143  0.63527  0.35833  Biso   1.000  N
  N48      1.0000 0.63083  0.83667  0.40649  Biso   1.000  N
  C49      1.0000 0.70950  0.69370  0.68754  Biso   1.000  C
  C50      1.0000 0.61550  0.68840  0.74069  Biso   1.000  C
  C51      1.0000 0.80540  0.82120  0.71156  Biso   1.000  C
  C52      1.0000 0.82220  0.71050  0.74221  Biso   1.000  C
  N49      1.0000 0.69550  0.67190  0.65450  Biso   1.000  N
  N50      1.0000 0.55460  0.66740  0.73454  Biso   1.000  N
  N51      1.0000 0.84050  0.87190  0.69166  Biso   1.000  N
  N52      1.0000 0.87250  0.70250  0.73982  Biso   1.000  N
  C53      1.0000 0.37617  0.02703  0.02087  Biso   1.000  C
  C54      1.0000 0.28217  0.02173  0.07402  Biso   1.000  C
  C55      1.0000 0.47207  0.15453  0.04489  Biso   1.000  C
  C56      1.0000 0.48887  0.04383  0.07554  Biso   1.000  C
  N53      1.0000 0.36217  0.00523  0.98783  Biso   1.000  N
  N54      1.0000 0.22127  0.00073  0.06787  Biso   1.000  N
  N55      1.0000 0.50717  0.20523  0.02499  Biso   1.000  N
  N56      1.0000 0.53917  0.03583  0.07315  Biso   1.000  N
  C57      1.0000 0.04283  0.36037  0.35421  Biso   1.000  C
  C58      1.0000 0.94883  0.35507  0.40736  Biso   1.000  C
  C59      1.0000 0.13873  0.48787  0.37823  Biso   1.000  C
  C60      1.0000 0.15553  0.37717  0.40888  Biso   1.000  C
  N57      1.0000 0.02883  0.33857  0.32117  Biso   1.000  N
  N58      1.0000 0.88793  0.33407  0.40121  Biso   1.000  N
  N59      1.0000 0.17383  0.53857  0.35833  Biso   1.000  N
  N60      1.0000 0.20583  0.36917  0.40649  Biso   1.000  N
  C61      1.0000 0.98420  0.29050  0.68754  Biso   1.000  C
  C62      1.0000 0.07290  0.38450  0.74069  Biso   1.000  C
  C63      1.0000 0.01580  0.19460  0.71156  Biso   1.000  C
  C64      1.0000 0.88830  0.17780  0.74221  Biso   1.000  C
  N61      1.0000 0.97640  0.30450  0.65450  Biso   1.000  N
  N62      1.0000 0.11280  0.44540  0.73454  Biso   1.000  N
  N63      1.0000 0.03140  0.15950  0.69166  Biso   1.000  N
  N64      1.0000 0.83000  0.12750  0.73982  Biso   1.000  N
  C65      1.0000 0.65087  0.62383  0.02087  Biso   1.000  C
  C66      1.0000 0.73957  0.71783  0.07402  Biso   1.000  C
  C67      1.0000 0.68247  0.52793  0.04489  Biso   1.000  C
  C68      1.0000 0.55497  0.51113  0.07554  Biso   1.000  C
  N65      1.0000 0.64307  0.63783  0.98783  Biso   1.000  N
  N66      1.0000 0.77947  0.77873  0.06787  Biso   1.000  N
  N67      1.0000 0.69807  0.49283  0.02499  Biso   1.000  N
  N68      1.0000 0.49667  0.46083  0.07315  Biso   1.000  N
  C69      1.0000 0.31753  0.95717  0.35421  Biso   1.000  C
  C70      1.0000 0.40623  0.05117  0.40736  Biso   1.000  C
  C71      1.0000 0.34913  0.86127  0.37823  Biso   1.000  C
  C72      1.0000 0.22163  0.84447  0.40888  Biso   1.000  C
  N69      1.0000 0.30973  0.97117  0.32117  Biso   1.000  N
  N70      1.0000 0.44613  0.11207  0.40121  Biso   1.000  N
  N71      1.0000 0.36473  0.82617  0.35833  Biso   1.000  N
  N72      1.0000 0.16333  0.79417  0.40649  Biso   1.000  N
  C73      1.0000 0.98420  0.69370  0.18754  Biso   1.000  C
  C74      1.0000 0.07290  0.68840  0.24069  Biso   1.000  C
  C75      1.0000 0.01580  0.82120  0.21156  Biso   1.000  C
  C76      1.0000 0.88830  0.71050  0.24221  Biso   1.000  C
  N73      1.0000 0.97640  0.67190  0.15450  Biso   1.000  N
  N74      1.0000 0.11280  0.66740  0.23454  Biso   1.000  N
  N75      1.0000 0.03140  0.87190  0.19166  Biso   1.000  N
  N76      1.0000 0.83000  0.70250  0.23982  Biso   1.000  N
  C77      1.0000 0.65087  0.02703  0.52087  Biso   1.000  C
  C78      1.0000 0.73957  0.02173  0.57402  Biso   1.000  C
  C79      1.0000 0.68247  0.15453  0.54489  Biso   1.000  C
  C80      1.0000 0.55497  0.04383  0.57554  Biso   1.000  C
  N77      1.0000 0.64307  0.00523  0.48783  Biso   1.000  N
  N78      1.0000 0.77947  0.00073  0.56787  Biso   1.000  N
  N79      1.0000 0.69807  0.20523  0.52499  Biso   1.000  N
  N80      1.0000 0.49667  0.03583  0.57315  Biso   1.000  N
  C81      1.0000 0.31753  0.36037  0.85421  Biso   1.000  C
  C82      1.0000 0.40623  0.35507  0.90736  Biso   1.000  C
  C83      1.0000 0.34913  0.48787  0.87823  Biso   1.000  C
  C84      1.0000 0.22163  0.37717  0.90888  Biso   1.000  C
  N81      1.0000 0.30973  0.33857  0.82117  Biso   1.000  N
  N82      1.0000 0.44613  0.33407  0.90121  Biso   1.000  N
  N83      1.0000 0.36473  0.53857  0.85833  Biso   1.000  N
  N84      1.0000 0.16333  0.36917  0.90649  Biso   1.000  N
  C85      1.0000 0.30630  0.29050  0.18754  Biso   1.000  C
  C86      1.0000 0.31160  0.38450  0.24069  Biso   1.000  C
  C87      1.0000 0.17880  0.19460  0.21156  Biso   1.000  C
  C88      1.0000 0.28950  0.17780  0.24221  Biso   1.000  C
  N85      1.0000 0.32810  0.30450  0.15450  Biso   1.000  N
  N86      1.0000 0.33260  0.44540  0.23454  Biso   1.000  N
  N87      1.0000 0.12810  0.15950  0.19166  Biso   1.000  N
  N88      1.0000 0.29750  0.12750  0.23982  Biso   1.000  N
  C89      1.0000 0.97297  0.62383  0.52087  Biso   1.000  C
  C90      1.0000 0.97827  0.71783  0.57402  Biso   1.000  C
  C91      1.0000 0.84547  0.52793  0.54489  Biso   1.000  C
  C92      1.0000 0.95617  0.51113  0.57554  Biso   1.000  C
  N89      1.0000 0.99477  0.63783  0.48783  Biso   1.000  N
  N90      1.0000 0.99927  0.77873  0.56787  Biso   1.000  N
  N91      1.0000 0.79477  0.49283  0.52499  Biso   1.000  N
  N92      1.0000 0.96417  0.46083  0.57315  Biso   1.000  N
  C93      1.0000 0.63963  0.95717  0.85421  Biso   1.000  C
  C94      1.0000 0.64493  0.05117  0.90736  Biso   1.000  C
  C95      1.0000 0.51213  0.86127  0.87823  Biso   1.000  C
  C96      1.0000 0.62283  0.84447  0.90888  Biso   1.000  C
  N93      1.0000 0.66143  0.97117  0.82117  Biso   1.000  N
  N94      1.0000 0.66593  0.11207  0.90121  Biso   1.000  N
  N95      1.0000 0.46143  0.82617  0.85833  Biso   1.000  N
  N96      1.0000 0.63083  0.79417  0.90649  Biso   1.000  N
  C97      1.0000 0.70950  0.01580  0.18754  Biso   1.000  C
  C98      1.0000 0.61550  0.92710  0.24069  Biso   1.000  C
  C99      1.0000 0.80540  0.98420  0.21156  Biso   1.000  C
  C100     1.0000 0.82220  0.11170  0.24221  Biso   1.000  C
  N97      1.0000 0.69550  0.02360  0.15450  Biso   1.000  N
  N98      1.0000 0.55460  0.88720  0.23454  Biso   1.000  N
  N99      1.0000 0.84050  0.96860  0.19166  Biso   1.000  N
  N100     1.0000 0.87250  0.17000  0.23982  Biso   1.000  N
  C101     1.0000 0.37617  0.34913  0.52087  Biso   1.000  C
  C102     1.0000 0.28217  0.26043  0.57402  Biso   1.000  C
  C103     1.0000 0.47207  0.31753  0.54489  Biso   1.000  C
  C104     1.0000 0.48887  0.44503  0.57554  Biso   1.000  C
  N101     1.0000 0.36217  0.35693  0.48783  Biso   1.000  N
  N102     1.0000 0.22127  0.22053  0.56787  Biso   1.000  N
  N103     1.0000 0.50717  0.30193  0.52499  Biso   1.000  N
  N104     1.0000 0.53917  0.50333  0.57315  Biso   1.000  N
  C105     1.0000 0.04283  0.68247  0.85421  Biso   1.000  C
  C106     1.0000 0.94883  0.59377  0.90736  Biso   1.000  C
  C107     1.0000 0.13873  0.65087  0.87823  Biso   1.000  C
  C108     1.0000 0.15553  0.77837  0.90888  Biso   1.000  C
  N105     1.0000 0.02883  0.69027  0.82117  Biso   1.000  N
  N106     1.0000 0.88793  0.55387  0.90121  Biso   1.000  N
  N107     1.0000 0.17383  0.63527  0.85833  Biso   1.000  N
  N108     1.0000 0.20583  0.83667  0.90649  Biso   1.000  N
  C109     1.0000 0.69370  0.98420  0.31246  Biso   1.000  C
  C110     1.0000 0.68840  0.07290  0.25931  Biso   1.000  C
  C111     1.0000 0.82120  0.01580  0.28844  Biso   1.000  C
  C112     1.0000 0.71050  0.88830  0.25779  Biso   1.000  C
  N109     1.0000 0.67190  0.97640  0.34550  Biso   1.000  N
  N110     1.0000 0.66740  0.11280  0.26546  Biso   1.000  N
  N111     1.0000 0.87190  0.03140  0.30834  Biso   1.000  N
  N112     1.0000 0.70250  0.83000  0.26018  Biso   1.000  N
  C113     1.0000 0.36037  0.31753  0.64579  Biso   1.000  C
  C114     1.0000 0.35507  0.40623  0.59264  Biso   1.000  C
  C115     1.0000 0.48787  0.34913  0.62177  Biso   1.000  C
  C116     1.0000 0.37717  0.22163  0.59112  Biso   1.000  C
  N113     1.0000 0.33857  0.30973  0.67883  Biso   1.000  N
  N114     1.0000 0.33407  0.44613  0.59879  Biso   1.000  N
  N115     1.0000 0.53857  0.36473  0.64167  Biso   1.000  N
  N116     1.0000 0.36917  0.16333  0.59351  Biso   1.000  N
  C117     1.0000 0.02703  0.65087  0.97913  Biso   1.000  C
  C118     1.0000 0.02173  0.73957  0.92598  Biso   1.000  C
  C119     1.0000 0.15453  0.68247  0.95511  Biso   1.000  C
  C120     1.0000 0.04383  0.55497  0.92446  Biso   1.000  C
  N117     1.0000 0.00523  0.64307  0.01217  Biso   1.000  N
  N118     1.0000 0.00073  0.77947  0.93213  Biso   1.000  N
  N119     1.0000 0.20523  0.69807  0.97501  Biso   1.000  N
  N120     1.0000 0.03583  0.49667  0.92685  Biso   1.000  N
  C121     1.0000 0.29050  0.30630  0.31246  Biso   1.000  C
  C122     1.0000 0.38450  0.31160  0.25931  Biso   1.000  C
  C123     1.0000 0.19460  0.17880  0.28844  Biso   1.000  C
  C124     1.0000 0.17780  0.28950  0.25779  Biso   1.000  C
  N121     1.0000 0.30450  0.32810  0.34550  Biso   1.000  N
  N122     1.0000 0.44540  0.33260  0.26546  Biso   1.000  N
  N123     1.0000 0.15950  0.12810  0.30834  Biso   1.000  N
  N124     1.0000 0.12750  0.29750  0.26018  Biso   1.000  N
  C125     1.0000 0.95717  0.63963  0.64579  Biso   1.000  C
  C126     1.0000 0.05117  0.64493  0.59264  Biso   1.000  C
  C127     1.0000 0.86127  0.51213  0.62177  Biso   1.000  C
  C128     1.0000 0.84447  0.62283  0.59112  Biso   1.000  C
  N125     1.0000 0.97117  0.66143  0.67883  Biso   1.000  N
  N126     1.0000 0.11207  0.66593  0.59879  Biso   1.000  N
  N127     1.0000 0.82617  0.46143  0.64167  Biso   1.000  N
  N128     1.0000 0.79417  0.63083  0.59351  Biso   1.000  N
  C129     1.0000 0.62383  0.97297  0.97913  Biso   1.000  C
  C130     1.0000 0.71783  0.97827  0.92598  Biso   1.000  C
  C131     1.0000 0.52793  0.84547  0.95511  Biso   1.000  C
  C132     1.0000 0.51113  0.95617  0.92446  Biso   1.000  C
  N129     1.0000 0.63783  0.99477  0.01217  Biso   1.000  N
  N130     1.0000 0.77873  0.99927  0.93213  Biso   1.000  N
  N131     1.0000 0.49283  0.79477  0.97501  Biso   1.000  N
  N132     1.0000 0.46083  0.96417  0.92685  Biso   1.000  N
  C133     1.0000 0.01580  0.70950  0.31246  Biso   1.000  C
  C134     1.0000 0.92710  0.61550  0.25931  Biso   1.000  C
  C135     1.0000 0.98420  0.80540  0.28844  Biso   1.000  C
  C136     1.0000 0.11170  0.82220  0.25779  Biso   1.000  C
  N133     1.0000 0.02360  0.69550  0.34550  Biso   1.000  N
  N134     1.0000 0.88720  0.55460  0.26546  Biso   1.000  N
  N135     1.0000 0.96860  0.84050  0.30834  Biso   1.000  N
  N136     1.0000 0.17000  0.87250  0.26018  Biso   1.000  N
  C137     1.0000 0.68247  0.04283  0.64579  Biso   1.000  C
  C138     1.0000 0.59377  0.94883  0.59264  Biso   1.000  C
  C139     1.0000 0.65087  0.13873  0.62177  Biso   1.000  C
  C140     1.0000 0.77837  0.15553  0.59112  Biso   1.000  C
  N137     1.0000 0.69027  0.02883  0.67883  Biso   1.000  N
  N138     1.0000 0.55387  0.88793  0.59879  Biso   1.000  N
  N139     1.0000 0.63527  0.17383  0.64167  Biso   1.000  N
  N140     1.0000 0.83667  0.20583  0.59351  Biso   1.000  N
  C141     1.0000 0.34913  0.37617  0.97913  Biso   1.000  C
  C142     1.0000 0.26043  0.28217  0.92598  Biso   1.000  C
  C143     1.0000 0.31753  0.47207  0.95511  Biso   1.000  C
  C144     1.0000 0.44503  0.48887  0.92446  Biso   1.000  C
  N141     1.0000 0.35693  0.36217  0.01217  Biso   1.000  N
  N142     1.0000 0.22053  0.22127  0.93213  Biso   1.000  N
  N143     1.0000 0.30193  0.50717  0.97501  Biso   1.000  N
  N144     1.0000 0.50333  0.53917  0.92685  Biso   1.000  N
  Mo1      1.0000 0.00000  0.26742  0.75000  Biso   1.000  Mo
  Mo2      1.0000 0.66667  0.60075  0.08333  Biso   1.000  Mo
  Mo3      1.0000 0.33333  0.93409  0.41667  Biso   1.000  Mo
  Mo4      1.0000 0.73258  0.73258  0.75000  Biso   1.000  Mo
  Mo5      1.0000 0.39925  0.06591  0.08333  Biso   1.000  Mo
  Mo6      1.0000 0.06591  0.39925  0.41667  Biso   1.000  Mo
  Mo7      1.0000 0.26742  0.00000  0.75000  Biso   1.000  Mo
  Mo8      1.0000 0.93409  0.33333  0.08333  Biso   1.000  Mo
  Mo9      1.0000 0.60075  0.66667  0.41667  Biso   1.000  Mo
  Mo10     1.0000 0.00000  0.73258  0.25000  Biso   1.000  Mo
  Mo11     1.0000 0.66667  0.06591  0.58333  Biso   1.000  Mo
  Mo12     1.0000 0.33333  0.39925  0.91667  Biso   1.000  Mo
  Mo13     1.0000 0.26742  0.26742  0.25000  Biso   1.000  Mo
  Mo14     1.0000 0.93409  0.60075  0.58333  Biso   1.000  Mo
  Mo15     1.0000 0.60075  0.93409  0.91667  Biso   1.000  Mo
  Mo16     1.0000 0.73258  0.00000  0.25000  Biso   1.000  Mo
  Mo17     1.0000 0.39925  0.33333  0.58333  Biso   1.000  Mo
  Mo18     1.0000 0.06591  0.66667  0.91667  Biso   1.000  Mo
  Nd1      1.0000 0.05181  0.38514  0.91667  Biso   1.000  Nd
  Nd2      1.0000 0.71847  0.71847  0.25000  Biso   1.000  Nd
  Nd3      1.0000 0.61486  0.66667  0.91667  Biso   1.000  Nd
  Nd4      1.0000 0.28153  0.00000  0.25000  Biso   1.000  Nd
  Nd5      1.0000 0.33333  0.94819  0.91667  Biso   1.000  Nd
  Nd6      1.0000 0.00000  0.28153  0.25000  Biso   1.000  Nd
  Nd7      1.0000 0.38514  0.05181  0.58333  Biso   1.000  Nd
  Nd8      1.0000 0.66667  0.61486  0.58333  Biso   1.000  Nd
  Nd9      1.0000 0.94819  0.33333  0.58333  Biso   1.000  Nd
  Nd10     1.0000 0.94819  0.61486  0.08333  Biso   1.000  Nd
  Nd11     1.0000 0.38514  0.33333  0.08333  Biso   1.000  Nd
  Nd12     1.0000 0.66667  0.05181  0.08333  Biso   1.000  Nd
  Nd13     1.0000 0.61486  0.94819  0.41667  Biso   1.000  Nd
  Nd14     1.0000 0.28153  0.28153  0.75000  Biso   1.000  Nd
  Nd15     1.0000 0.33333  0.38514  0.41667  Biso   1.000  Nd
  Nd16     1.0000 0.00000  0.71847  0.75000  Biso   1.000  Nd
  Nd17     1.0000 0.05181  0.66667  0.41667  Biso   1.000  Nd
  Nd18     1.0000 0.71847  0.00000  0.75000  Biso   1.000  Nd
