data_YEGRAD_clean_h
_audit_creation_date              2014-07-02
_audit_creation_method            'Materials Studio'
_symmetry_space_group_name_H-M    'P1'
_symmetry_Int_Tables_number       1
_symmetry_cell_setting            triclinic
loop_
_symmetry_equiv_pos_as_xyz
  x,y,z
_cell_length_a                    14.0010
_cell_length_b                    19.9846
_cell_length_c                    19.9846
_cell_angle_alpha                 81.1209
_cell_angle_beta                  69.4947
_cell_angle_gamma                 69.4947
loop_
_atom_site_label
_atom_site_type_symbol
_atom_site_fract_x
_atom_site_fract_y
_atom_site_fract_z
_atom_site_U_iso_or_equiv
_atom_site_adp_type
_atom_site_occupancy
Cd1    Cd    0.99194   0.75615   0.01975   0.01267  Uiso   1.00
Cd2    Cd    0.26784   0.74385   0.48025   0.01267  Uiso   1.00
Cd3    Cd    0.76784   0.48025   0.74385   0.01267  Uiso   1.00
Cd4    Cd    0.49194   0.01975   0.75615   0.01267  Uiso   1.00
Ag1    Ag    0.38104   0.68892   0.80742   0.01267  Uiso   1.00
Ag2    Ag    0.63981   0.72663   0.24921   0.01267  Uiso   1.00
Ag3    Ag    0.37738   0.81108   0.69258   0.01267  Uiso   1.00
Ag4    Ag    0.11565   0.77337   0.25079   0.01267  Uiso   1.00
Ag5    Ag    0.87738   0.69258   0.81108   0.01267  Uiso   1.00
Ag6    Ag    0.61565   0.25079   0.77337   0.01267  Uiso   1.00
Ag7    Ag    0.88104   0.80742   0.68892   0.01267  Uiso   1.00
Ag8    Ag    0.13981   0.24921   0.72663   0.01267  Uiso   1.00
C1     C     0.53070   0.61950   0.75390   0.01267  Uiso   1.00
C2     C     0.76430   0.73210   0.15590   0.01267  Uiso   1.00
C3     C     0.51160   0.73120   0.34440   0.01267  Uiso   1.00
C4     C     0.22970   0.73770   0.87830   0.01267  Uiso   1.00
C5     C     0.09860   0.60270   0.95250   0.01267  Uiso   1.00
C6     C     0.13750   0.52750   0.94570   0.01267  Uiso   1.00
C7     C     0.13450   0.48420   0.00660   0.01267  Uiso   1.00
C8     C     0.08710   0.51690   0.07350   0.01267  Uiso   1.00
C9     C     0.05040   0.58990   0.07530   0.01267  Uiso   1.00
C10    C     0.17740   0.40280   0.99960   0.01267  Uiso   1.00
C11    C     0.86910   0.91220   0.08100   0.01267  Uiso   1.00
C12    C     0.82450   0.98480   0.08680   0.01267  Uiso   1.00
C13    C     0.84070   0.02820   0.02300   0.01267  Uiso   1.00
C14    C     0.90660   0.99080   0.95920   0.01267  Uiso   1.00
C15    C     0.94880   0.91820   0.95840   0.01267  Uiso   1.00
C16    C     0.79120   0.11000   0.02040   0.01267  Uiso   1.00
C17    C     0.40410   0.88050   0.74610   0.01267  Uiso   1.00
C18    C     0.15230   0.76790   0.34410   0.01267  Uiso   1.00
C19    C     0.08720   0.76880   0.15560   0.01267  Uiso   1.00
C20    C     0.34570   0.76230   0.62170   0.01267  Uiso   1.00
C21    C     0.15380   0.89730   0.54750   0.01267  Uiso   1.00
C22    C     0.11070   0.97250   0.55430   0.01267  Uiso   1.00
C23    C     0.12530   0.01580   0.49340   0.01267  Uiso   1.00
C24    C     0.17750   0.98310   0.42650   0.01267  Uiso   1.00
C25    C     0.21560   0.91010   0.42470   0.01267  Uiso   1.00
C26    C     0.07980   0.09720   0.50040   0.01267  Uiso   1.00
C27    C     0.36230   0.58780   0.41900   0.01267  Uiso   1.00
C28    C     0.39610   0.51520   0.41320   0.01267  Uiso   1.00
C29    C     0.39190   0.47180   0.47700   0.01267  Uiso   1.00
C30    C     0.35660   0.50920   0.54080   0.01267  Uiso   1.00
C31    C     0.32540   0.58180   0.54160   0.01267  Uiso   1.00
C32    C     0.42160   0.39000   0.47960   0.01267  Uiso   1.00
C33    C     0.90410   0.74610   0.88050   0.01267  Uiso   1.00
C34    C     0.65230   0.34410   0.76790   0.01267  Uiso   1.00
C35    C     0.58720   0.15560   0.76880   0.01267  Uiso   1.00
C36    C     0.84570   0.62170   0.76230   0.01267  Uiso   1.00
C37    C     0.65380   0.54750   0.89730   0.01267  Uiso   1.00
C38    C     0.61070   0.55430   0.97250   0.01267  Uiso   1.00
C39    C     0.62530   0.49340   0.01580   0.01267  Uiso   1.00
C40    C     0.67750   0.42650   0.98310   0.01267  Uiso   1.00
C41    C     0.71560   0.42470   0.91010   0.01267  Uiso   1.00
C42    C     0.57980   0.50040   0.09720   0.01267  Uiso   1.00
C43    C     0.86230   0.41900   0.58780   0.01267  Uiso   1.00
C44    C     0.89610   0.41320   0.51520   0.01267  Uiso   1.00
C45    C     0.89190   0.47700   0.47180   0.01267  Uiso   1.00
C46    C     0.85660   0.54080   0.50920   0.01267  Uiso   1.00
C47    C     0.82540   0.54160   0.58180   0.01267  Uiso   1.00
C48    C     0.92160   0.47960   0.39000   0.01267  Uiso   1.00
C49    C     0.03070   0.75390   0.61950   0.01267  Uiso   1.00
C50    C     0.26430   0.15590   0.73210   0.01267  Uiso   1.00
C51    C     0.01160   0.34440   0.73120   0.01267  Uiso   1.00
C52    C     0.72970   0.87830   0.73770   0.01267  Uiso   1.00
C53    C     0.59860   0.95250   0.60270   0.01267  Uiso   1.00
C54    C     0.63750   0.94570   0.52750   0.01267  Uiso   1.00
C55    C     0.63450   0.00660   0.48420   0.01267  Uiso   1.00
C56    C     0.58710   0.07350   0.51690   0.01267  Uiso   1.00
C57    C     0.55040   0.07530   0.58990   0.01267  Uiso   1.00
C58    C     0.67740   0.99960   0.40280   0.01267  Uiso   1.00
C59    C     0.36910   0.08100   0.91220   0.01267  Uiso   1.00
C60    C     0.32450   0.08680   0.98480   0.01267  Uiso   1.00
C61    C     0.34070   0.02300   0.02820   0.01267  Uiso   1.00
C62    C     0.40660   0.95920   0.99080   0.01267  Uiso   1.00
C63    C     0.44880   0.95840   0.91820   0.01267  Uiso   1.00
C64    C     0.29120   0.02040   0.11000   0.01267  Uiso   1.00
N1     N     0.60820   0.57580   0.73620   0.01267  Uiso   1.00
N2     N     0.83170   0.73980   0.10640   0.01267  Uiso   1.00
N3     N     0.43510   0.73920   0.39340   0.01267  Uiso   1.00
N4     N     0.15270   0.75540   0.92220   0.01267  Uiso   1.00
N5     N     0.05670   0.63240   0.01420   0.01267  Uiso   1.00
N6     N     0.92910   0.87850   0.01990   0.01267  Uiso   1.00
N7     N     0.42020   0.92420   0.76380   0.01267  Uiso   1.00
N8     N     0.17790   0.76020   0.39360   0.01267  Uiso   1.00
N9     N     0.06770   0.76080   0.10660   0.01267  Uiso   1.00
N10    N     0.33030   0.74460   0.57780   0.01267  Uiso   1.00
N11    N     0.20330   0.86760   0.48580   0.01267  Uiso   1.00
N12    N     0.32750   0.62150   0.48010   0.01267  Uiso   1.00
N13    N     0.92020   0.76380   0.92420   0.01267  Uiso   1.00
N14    N     0.67790   0.39360   0.76020   0.01267  Uiso   1.00
N15    N     0.56770   0.10660   0.76080   0.01267  Uiso   1.00
N16    N     0.83030   0.57780   0.74460   0.01267  Uiso   1.00
N17    N     0.70330   0.48580   0.86760   0.01267  Uiso   1.00
N18    N     0.82750   0.48010   0.62150   0.01267  Uiso   1.00
N19    N     0.10820   0.73620   0.57580   0.01267  Uiso   1.00
N20    N     0.33170   0.10640   0.73980   0.01267  Uiso   1.00
N21    N     0.93510   0.39340   0.73920   0.01267  Uiso   1.00
N22    N     0.65270   0.92220   0.75540   0.01267  Uiso   1.00
N23    N     0.55670   0.01420   0.63240   0.01267  Uiso   1.00
N24    N     0.42910   0.01990   0.87850   0.01267  Uiso   1.00
Cd5    Cd    0.23216   0.51975   0.25615   0.01267  Uiso   1.00
Cd6    Cd    0.50806   0.98025   0.24385   0.01267  Uiso   1.00
Cd7    Cd    0.00806   0.24385   0.98025   0.01267  Uiso   1.00
Cd8    Cd    0.73216   0.25615   0.51975   0.01267  Uiso   1.00
Ag9    Ag    0.12262   0.30742   0.18892   0.01267  Uiso   1.00
Ag10   Ag    0.38435   0.74921   0.22663   0.01267  Uiso   1.00
Ag11   Ag    0.11896   0.19258   0.31108   0.01267  Uiso   1.00
Ag12   Ag    0.86019   0.75079   0.27337   0.01267  Uiso   1.00
Ag13   Ag    0.61896   0.31108   0.19258   0.01267  Uiso   1.00
Ag14   Ag    0.36019   0.27337   0.75079   0.01267  Uiso   1.00
Ag15   Ag    0.62262   0.18892   0.30742   0.01267  Uiso   1.00
Ag16   Ag    0.88435   0.22663   0.74921   0.01267  Uiso   1.00
C65    C     0.09590   0.25390   0.11950   0.01267  Uiso   1.00
C66    C     0.34770   0.65590   0.23210   0.01267  Uiso   1.00
C67    C     0.41280   0.84440   0.23120   0.01267  Uiso   1.00
C68    C     0.15430   0.37830   0.23770   0.01267  Uiso   1.00
C69    C     0.34620   0.45250   0.10270   0.01267  Uiso   1.00
C70    C     0.38930   0.44570   0.02750   0.01267  Uiso   1.00
C71    C     0.37470   0.50660   0.98420   0.01267  Uiso   1.00
C72    C     0.32250   0.57350   0.01690   0.01267  Uiso   1.00
C73    C     0.28440   0.57530   0.08990   0.01267  Uiso   1.00
C74    C     0.42020   0.49960   0.90280   0.01267  Uiso   1.00
C75    C     0.13770   0.58100   0.41220   0.01267  Uiso   1.00
C76    C     0.10390   0.58680   0.48480   0.01267  Uiso   1.00
C77    C     0.10810   0.52300   0.52820   0.01267  Uiso   1.00
C78    C     0.14340   0.45920   0.49080   0.01267  Uiso   1.00
C79    C     0.17460   0.45840   0.41820   0.01267  Uiso   1.00
C80    C     0.07840   0.52040   0.61000   0.01267  Uiso   1.00
C81    C     0.96930   0.24610   0.38050   0.01267  Uiso   1.00
C82    C     0.73570   0.84410   0.26790   0.01267  Uiso   1.00
C83    C     0.98840   0.65560   0.26880   0.01267  Uiso   1.00
C84    C     0.27030   0.12170   0.26230   0.01267  Uiso   1.00
C85    C     0.40140   0.04750   0.39730   0.01267  Uiso   1.00
C86    C     0.36250   0.05430   0.47250   0.01267  Uiso   1.00
C87    C     0.36550   0.99340   0.51580   0.01267  Uiso   1.00
C88    C     0.41290   0.92650   0.48310   0.01267  Uiso   1.00
C89    C     0.44960   0.92470   0.41010   0.01267  Uiso   1.00
C90    C     0.32260   0.00040   0.59720   0.01267  Uiso   1.00
C91    C     0.63090   0.91900   0.08780   0.01267  Uiso   1.00
C92    C     0.67550   0.91320   0.01520   0.01267  Uiso   1.00
C93    C     0.65930   0.97700   0.97180   0.01267  Uiso   1.00
C94    C     0.59340   0.04080   0.00920   0.01267  Uiso   1.00
C95    C     0.55120   0.04160   0.08180   0.01267  Uiso   1.00
C96    C     0.70880   0.97960   0.89000   0.01267  Uiso   1.00
C97    C     0.46930   0.38050   0.24610   0.01267  Uiso   1.00
C98    C     0.23570   0.26790   0.84410   0.01267  Uiso   1.00
C99    C     0.48840   0.26880   0.65560   0.01267  Uiso   1.00
C100   C     0.77030   0.26230   0.12170   0.01267  Uiso   1.00
C101   C     0.90140   0.39730   0.04750   0.01267  Uiso   1.00
C102   C     0.86250   0.47250   0.05430   0.01267  Uiso   1.00
C103   C     0.86550   0.51580   0.99340   0.01267  Uiso   1.00
C104   C     0.91290   0.48310   0.92650   0.01267  Uiso   1.00
C105   C     0.94960   0.41010   0.92470   0.01267  Uiso   1.00
C106   C     0.82260   0.59720   0.00040   0.01267  Uiso   1.00
C107   C     0.13090   0.08780   0.91900   0.01267  Uiso   1.00
C108   C     0.17550   0.01520   0.91320   0.01267  Uiso   1.00
C109   C     0.15930   0.97180   0.97700   0.01267  Uiso   1.00
C110   C     0.09340   0.00920   0.04080   0.01267  Uiso   1.00
C111   C     0.05120   0.08180   0.04160   0.01267  Uiso   1.00
C112   C     0.20880   0.89000   0.97960   0.01267  Uiso   1.00
C113   C     0.59590   0.11950   0.25390   0.01267  Uiso   1.00
C114   C     0.84770   0.23210   0.65590   0.01267  Uiso   1.00
C115   C     0.91280   0.23120   0.84440   0.01267  Uiso   1.00
C116   C     0.65430   0.23770   0.37830   0.01267  Uiso   1.00
C117   C     0.84620   0.10270   0.45250   0.01267  Uiso   1.00
C118   C     0.88930   0.02750   0.44570   0.01267  Uiso   1.00
C119   C     0.87470   0.98420   0.50660   0.01267  Uiso   1.00
C120   C     0.82250   0.01690   0.57350   0.01267  Uiso   1.00
C121   C     0.78440   0.08990   0.57530   0.01267  Uiso   1.00
C122   C     0.92020   0.90280   0.49960   0.01267  Uiso   1.00
C123   C     0.63770   0.41220   0.58100   0.01267  Uiso   1.00
C124   C     0.60390   0.48480   0.58680   0.01267  Uiso   1.00
C125   C     0.60810   0.52820   0.52300   0.01267  Uiso   1.00
C126   C     0.64340   0.49080   0.45920   0.01267  Uiso   1.00
C127   C     0.67460   0.41820   0.45840   0.01267  Uiso   1.00
C128   C     0.57840   0.61000   0.52040   0.01267  Uiso   1.00
N25    N     0.07980   0.23620   0.07580   0.01267  Uiso   1.00
N26    N     0.32210   0.60640   0.23980   0.01267  Uiso   1.00
N27    N     0.43230   0.89340   0.23920   0.01267  Uiso   1.00
N28    N     0.16970   0.42220   0.25540   0.01267  Uiso   1.00
N29    N     0.29670   0.51420   0.13240   0.01267  Uiso   1.00
N30    N     0.17250   0.51990   0.37850   0.01267  Uiso   1.00
N31    N     0.89180   0.26380   0.42420   0.01267  Uiso   1.00
N32    N     0.66830   0.89360   0.26020   0.01267  Uiso   1.00
N33    N     0.06490   0.60660   0.26080   0.01267  Uiso   1.00
N34    N     0.34730   0.07780   0.24460   0.01267  Uiso   1.00
N35    N     0.44330   0.98580   0.36760   0.01267  Uiso   1.00
N36    N     0.57090   0.98010   0.12150   0.01267  Uiso   1.00
N37    N     0.39180   0.42420   0.26380   0.01267  Uiso   1.00
N38    N     0.16830   0.26020   0.89360   0.01267  Uiso   1.00
N39    N     0.56490   0.26080   0.60660   0.01267  Uiso   1.00
N40    N     0.84730   0.24460   0.07780   0.01267  Uiso   1.00
N41    N     0.94330   0.36760   0.98580   0.01267  Uiso   1.00
N42    N     0.07090   0.12150   0.98010   0.01267  Uiso   1.00
N43    N     0.57980   0.07580   0.23620   0.01267  Uiso   1.00
N44    N     0.82210   0.23980   0.60640   0.01267  Uiso   1.00
N45    N     0.93230   0.23920   0.89340   0.01267  Uiso   1.00
N46    N     0.66970   0.25540   0.42220   0.01267  Uiso   1.00
N47    N     0.79670   0.13240   0.51420   0.01267  Uiso   1.00
N48    N     0.67250   0.37850   0.51990   0.01267  Uiso   1.00
H1     H     0.10341   0.63959   0.90270   0.01267  Uiso   1.00
H2     H     0.17044   0.50397   0.89057   0.01267  Uiso   1.00
H3     H     0.07987   0.48250   0.12500   0.01267  Uiso   1.00
H4     H     0.01322   0.61710   0.12877   0.01267  Uiso   1.00
H5     H     0.16713   0.38885   0.94987   0.01267  Uiso   1.00
H6     H     0.13059   0.37674   0.04889   0.01267  Uiso   1.00
H7     H     0.26636   0.38232   0.99483   0.01267  Uiso   1.00
H8     H     0.85614   0.87559   0.13077   0.01267  Uiso   1.00
H9     H     0.77615   0.00869   0.14156   0.01267  Uiso   1.00
H10    H     0.92599   0.02169   0.90594   0.01267  Uiso   1.00
H11    H     0.00091   0.89068   0.90580   0.01267  Uiso   1.00
H12    H     0.71562   0.12728   0.06860   0.01267  Uiso   1.00
H13    H     0.76934   0.12801   0.96918   0.01267  Uiso   1.00
H14    H     0.85192   0.13540   0.02149   0.01267  Uiso   1.00
H15    H     0.14570   0.86041   0.59730   0.01267  Uiso   1.00
H16    H     0.06498   0.99603   0.60943   0.01267  Uiso   1.00
H17    H     0.18737   0.01750   0.37500   0.01267  Uiso   1.00
H18    H     0.25909   0.88290   0.37123   0.01267  Uiso   1.00
H19    H     0.01049   0.11089   0.55266   0.01267  Uiso   1.00
H20    H     0.04934   0.12291   0.45357   0.01267  Uiso   1.00
H21    H     0.14576   0.11828   0.50017   0.01267  Uiso   1.00
H22    H     0.36250   0.62441   0.36923   0.01267  Uiso   1.00
H23    H     0.42640   0.49131   0.35844   0.01267  Uiso   1.00
H24    H     0.35362   0.47831   0.59406   0.01267  Uiso   1.00
H25    H     0.29740   0.60932   0.59420   0.01267  Uiso   1.00
H26    H     0.40380   0.37311   0.43448   0.01267  Uiso   1.00
H27    H     0.37212   0.37154   0.53317   0.01267  Uiso   1.00
H28    H     0.51091   0.36466   0.47308   0.01267  Uiso   1.00
H29    H     0.64570   0.59730   0.86041   0.01267  Uiso   1.00
H30    H     0.56498   0.60943   0.99603   0.01267  Uiso   1.00
H31    H     0.68737   0.37500   0.01750   0.01267  Uiso   1.00
H32    H     0.75909   0.37123   0.88290   0.01267  Uiso   1.00
H33    H     0.55684   0.45091   0.12329   0.01267  Uiso   1.00
H34    H     0.50546   0.54988   0.11118   0.01267  Uiso   1.00
H35    H     0.64328   0.50562   0.11762   0.01267  Uiso   1.00
H36    H     0.86250   0.36923   0.62441   0.01267  Uiso   1.00
H37    H     0.92640   0.35844   0.49131   0.01267  Uiso   1.00
H38    H     0.85362   0.59406   0.47831   0.01267  Uiso   1.00
H39    H     0.79740   0.59420   0.60932   0.01267  Uiso   1.00
H40    H     0.86757   0.53131   0.37191   0.01267  Uiso   1.00
H41    H     0.90999   0.43196   0.37279   0.01267  Uiso   1.00
H42    H     0.00927   0.47746   0.36461   0.01267  Uiso   1.00
H43    H     0.60341   0.90270   0.63959   0.01267  Uiso   1.00
H44    H     0.67044   0.89057   0.50397   0.01267  Uiso   1.00
H45    H     0.57987   0.12500   0.48250   0.01267  Uiso   1.00
H46    H     0.51322   0.12877   0.61710   0.01267  Uiso   1.00
H47    H     0.62341   0.99507   0.37342   0.01267  Uiso   1.00
H48    H     0.76326   0.99893   0.37169   0.01267  Uiso   1.00
H49    H     0.35614   0.13077   0.87559   0.01267  Uiso   1.00
H50    H     0.27615   0.14156   0.00869   0.01267  Uiso   1.00
H51    H     0.42599   0.90594   0.02169   0.01267  Uiso   1.00
H52    H     0.50091   0.90580   0.89068   0.01267  Uiso   1.00
H53    H     0.27939   0.96614   0.12862   0.01267  Uiso   1.00
H54    H     0.21008   0.06438   0.12677   0.01267  Uiso   1.00
H55    H     0.34740   0.02875   0.13531   0.01267  Uiso   1.00
H56    H     0.35430   0.40270   0.13959   0.01267  Uiso   1.00
H57    H     0.43502   0.39057   0.00397   0.01267  Uiso   1.00
H58    H     0.31263   0.62500   0.98250   0.01267  Uiso   1.00
H59    H     0.24091   0.62877   0.11710   0.01267  Uiso   1.00
H60    H     0.36840   0.54561   0.87645   0.01267  Uiso   1.00
H61    H     0.41978   0.44664   0.88856   0.01267  Uiso   1.00
H62    H     0.50622   0.50135   0.88290   0.01267  Uiso   1.00
H63    H     0.13750   0.63077   0.37559   0.01267  Uiso   1.00
H64    H     0.07360   0.64156   0.50869   0.01267  Uiso   1.00
H65    H     0.14638   0.40594   0.52169   0.01267  Uiso   1.00
H66    H     0.20260   0.40580   0.39068   0.01267  Uiso   1.00
H67    H     0.05210   0.47147   0.63326   0.01267  Uiso   1.00
H68    H     0.00968   0.57083   0.63237   0.01267  Uiso   1.00
H69    H     0.15138   0.51697   0.62507   0.01267  Uiso   1.00
H70    H     0.39659   0.09730   0.36041   0.01267  Uiso   1.00
H71    H     0.32956   0.10943   0.49603   0.01267  Uiso   1.00
H72    H     0.42013   0.87500   0.51750   0.01267  Uiso   1.00
H73    H     0.48678   0.87123   0.38290   0.01267  Uiso   1.00
H74    H     0.23674   0.00107   0.62831   0.01267  Uiso   1.00
H75    H     0.37659   0.00493   0.62658   0.01267  Uiso   1.00
H76    H     0.64386   0.86923   0.12441   0.01267  Uiso   1.00
H77    H     0.72385   0.85844   0.99131   0.01267  Uiso   1.00
H78    H     0.57401   0.09406   0.97831   0.01267  Uiso   1.00
H79    H     0.49909   0.09420   0.10932   0.01267  Uiso   1.00
H80    H     0.65217   0.02487   0.86630   0.01267  Uiso   1.00
H81    H     0.72148   0.92663   0.86816   0.01267  Uiso   1.00
H82    H     0.78948   0.98924   0.87485   0.01267  Uiso   1.00
H83    H     0.89659   0.36041   0.09730   0.01267  Uiso   1.00
H84    H     0.82956   0.49603   0.10943   0.01267  Uiso   1.00
H85    H     0.75454   0.61146   0.05316   0.01267  Uiso   1.00
H86    H     0.79108   0.62358   0.95414   0.01267  Uiso   1.00
H87    H     0.14386   0.12441   0.86923   0.01267  Uiso   1.00
H88    H     0.22385   0.99131   0.85844   0.01267  Uiso   1.00
H89    H     0.07401   0.97831   0.09406   0.01267  Uiso   1.00
H90    H     0.99909   0.10932   0.09420   0.01267  Uiso   1.00
H91    H     0.21142   0.86754   0.92967   0.01267  Uiso   1.00
H92    H     0.15770   0.86682   0.02909   0.01267  Uiso   1.00
H93    H     0.29400   0.87494   0.98198   0.01267  Uiso   1.00
H94    H     0.85430   0.13959   0.40270   0.01267  Uiso   1.00
H95    H     0.93502   0.00397   0.39057   0.01267  Uiso   1.00
H96    H     0.81263   0.98250   0.62500   0.01267  Uiso   1.00
H97    H     0.74091   0.11710   0.62877   0.01267  Uiso   1.00
H98    H     0.91228   0.88818   0.44930   0.01267  Uiso   1.00
H99    H     0.87343   0.87617   0.54840   0.01267  Uiso   1.00
H100   H     0.00870   0.88356   0.49590   0.01267  Uiso   1.00
H101   H     0.63750   0.37559   0.63077   0.01267  Uiso   1.00
H102   H     0.57360   0.50869   0.64156   0.01267  Uiso   1.00
H103   H     0.64638   0.52169   0.40594   0.01267  Uiso   1.00
H104   H     0.70260   0.39068   0.40580   0.01267  Uiso   1.00
H105   H     0.51423   0.63200   0.57268   0.01267  Uiso   1.00
H106   H     0.54591   0.63357   0.47399   0.01267  Uiso   1.00
H107   H     0.65302   0.62512   0.51260   0.01267  Uiso   1.00
H108   H     0.92013   0.51750   0.87500   0.01267  Uiso   1.00
H109   H     0.98678   0.38290   0.87123   0.01267  Uiso   1.00
H110   H     0.89030   0.61705   0.99910   0.01267  Uiso   1.00
