data_YEGTAG_clean
_audit_creation_date              2014-07-02
_audit_creation_method            'Materials Studio'
_symmetry_space_group_name_H-M    'P1'
_symmetry_Int_Tables_number       1
_symmetry_cell_setting            triclinic
loop_
_symmetry_equiv_pos_as_xyz
  x,y,z
_cell_length_a                    4.7143
_cell_length_b                    11.7344
_cell_length_c                    13.6823
_cell_angle_alpha                 67.6660
_cell_angle_beta                  89.2690
_cell_angle_gamma                 82.0960
loop_
_atom_site_label
_atom_site_type_symbol
_atom_site_fract_x
_atom_site_fract_y
_atom_site_fract_z
_atom_site_U_iso_or_equiv
_atom_site_adp_type
_atom_site_occupancy
Ag1    Ag    0.73020   0.95096   0.93577   0.01267  Uiso   1.00
Ag2    Ag    0.32599   0.12973   0.78231   0.01267  Uiso   1.00
Ag3    Ag    0.26980   0.04904   0.06423   0.01267  Uiso   1.00
Ag4    Ag    0.67401   0.87027   0.21769   0.01267  Uiso   1.00
H1     H     0.43860   0.52110   0.90690   0.01267  Uiso   1.00
H2     H     0.54990   0.79050   0.62520   0.01267  Uiso   1.00
H3     H     0.07190   0.46060   0.72160   0.01267  Uiso   1.00
H4     H     0.07220   0.32330   0.91300   0.01267  Uiso   1.00
H5     H     0.79810   0.33860   0.97910   0.01267  Uiso   1.00
H6     H     0.10420   0.80320   0.72040   0.01267  Uiso   1.00
H7     H     0.09220   0.70880   0.84030   0.01267  Uiso   1.00
H8     H     0.00710   0.77030   0.53850   0.01267  Uiso   1.00
H9     H     0.19160   0.63580   0.56960   0.01267  Uiso   1.00
H10    H     0.56140   0.47890   0.09310   0.01267  Uiso   1.00
H11    H     0.45010   0.20950   0.37480   0.01267  Uiso   1.00
H12    H     0.92810   0.53940   0.27840   0.01267  Uiso   1.00
H13    H     0.92780   0.67670   0.08700   0.01267  Uiso   1.00
H14    H     0.20190   0.66140   0.02090   0.01267  Uiso   1.00
H15    H     0.89580   0.19680   0.27960   0.01267  Uiso   1.00
H16    H     0.90780   0.29120   0.15970   0.01267  Uiso   1.00
H17    H     0.99290   0.22970   0.46150   0.01267  Uiso   1.00
H18    H     0.80840   0.36420   0.43040   0.01267  Uiso   1.00
C1     C     0.76970   0.47100   0.82780   0.01267  Uiso   1.00
C2     C     0.54100   0.54980   0.84390   0.01267  Uiso   1.00
C3     C     0.46000   0.66960   0.76960   0.01267  Uiso   1.00
C4     C     0.60690   0.70920   0.67670   0.01267  Uiso   1.00
C5     C     0.83410   0.63390   0.65690   0.01267  Uiso   1.00
C6     C     0.91610   0.51350   0.73360   0.01267  Uiso   1.00
C7     C     0.86030   0.34100   0.90900   0.01267  Uiso   1.00
C8     C     0.74160   0.23820   0.88720   0.01267  Uiso   1.00
C9     C     0.21910   0.75790   0.78740   0.01267  Uiso   1.00
C10    C     0.32110   0.85250   0.82560   0.01267  Uiso   1.00
C11    C     0.99380   0.68120   0.55620   0.01267  Uiso   1.00
C12    C     0.86260   0.66830   0.46090   0.01267  Uiso   1.00
C13    C     0.23030   0.52900   0.17220   0.01267  Uiso   1.00
C14    C     0.45900   0.45020   0.15610   0.01267  Uiso   1.00
C15    C     0.54000   0.33040   0.23040   0.01267  Uiso   1.00
C16    C     0.39310   0.29080   0.32330   0.01267  Uiso   1.00
C17    C     0.16590   0.36610   0.34310   0.01267  Uiso   1.00
C18    C     0.08390   0.48650   0.26640   0.01267  Uiso   1.00
C19    C     0.13970   0.65900   0.09100   0.01267  Uiso   1.00
C20    C     0.25840   0.76180   0.11280   0.01267  Uiso   1.00
C21    C     0.78090   0.24210   0.21260   0.01267  Uiso   1.00
C22    C     0.67890   0.14750   0.17440   0.01267  Uiso   1.00
C23    C     0.00620   0.31880   0.44380   0.01267  Uiso   1.00
C24    C     0.13740   0.33170   0.53910   0.01267  Uiso   1.00
O1     O     0.86460   0.12820   0.93680   0.01267  Uiso   1.00
O2     O     0.52970   0.26690   0.82430   0.01267  Uiso   1.00
O3     O     0.55190   0.82160   0.87990   0.01267  Uiso   1.00
O4     O     0.15720   0.95490   0.80100   0.01267  Uiso   1.00
O5     O     0.96630   0.72520   0.37230   0.01267  Uiso   1.00
O6     O     0.66840   0.60150   0.47420   0.01267  Uiso   1.00
O7     O     0.13540   0.87180   0.06320   0.01267  Uiso   1.00
O8     O     0.47030   0.73310   0.17570   0.01267  Uiso   1.00
O9     O     0.44810   0.17840   0.12010   0.01267  Uiso   1.00
O10    O     0.84280   0.04510   0.19900   0.01267  Uiso   1.00
O11    O     0.03370   0.27480   0.62770   0.01267  Uiso   1.00
O12    O     0.33160   0.39850   0.52580   0.01267  Uiso   1.00
