data_YEKXOD_clean
_audit_creation_date              2014-07-02
_audit_creation_method            'Materials Studio'
_symmetry_space_group_name_H-M    'P1'
_symmetry_Int_Tables_number       1
_symmetry_cell_setting            triclinic
loop_
_symmetry_equiv_pos_as_xyz
  x,y,z
_cell_length_a                    16.6727
_cell_length_b                    17.5916
_cell_length_c                    18.7340
_cell_angle_alpha                 77.8267
_cell_angle_beta                  63.5777
_cell_angle_gamma                 61.7135
loop_
_atom_site_label
_atom_site_type_symbol
_atom_site_fract_x
_atom_site_fract_y
_atom_site_fract_z
_atom_site_U_iso_or_equiv
_atom_site_adp_type
_atom_site_occupancy
Cu1    Cu    0.00080   0.93688   0.05220   0.01267  Uiso   1.00
Cu2    Cu    0.94700   0.56312   0.05220   0.01267  Uiso   1.00
Cu3    Cu    0.56232   0.93688   0.44780   0.01267  Uiso   1.00
Cu4    Cu    0.98988   0.56312   0.44780   0.01267  Uiso   1.00
Cu5    Cu    0.99920   0.06312   0.94780   0.01267  Uiso   1.00
Cu6    Cu    0.05300   0.43688   0.94780   0.01267  Uiso   1.00
Cu7    Cu    0.43768   0.06312   0.55220   0.01267  Uiso   1.00
Cu8    Cu    0.01012   0.43688   0.55220   0.01267  Uiso   1.00
H1     H     0.09110   0.00340   0.20540   0.01267  Uiso   1.00
H2     H     0.14080   0.05800   0.27020   0.01267  Uiso   1.00
H3     H     0.10310   0.26600   0.12800   0.01267  Uiso   1.00
H4     H     0.05710   0.21000   0.06100   0.01267  Uiso   1.00
H5     H     0.32020   0.95400   0.78640   0.01267  Uiso   1.00
H6     H     0.49070   0.88200   0.73140   0.01267  Uiso   1.00
H7     H     0.48250   0.72580   0.92180   0.01267  Uiso   1.00
H8     H     0.31220   0.79460   0.97480   0.01267  Uiso   1.00
H9     H     0.70350   0.49660   0.20540   0.01267  Uiso   1.00
H10    H     0.58900   0.44200   0.27020   0.01267  Uiso   1.00
H11    H     0.76890   0.23400   0.12800   0.01267  Uiso   1.00
H12    H     0.88190   0.29000   0.06100   0.01267  Uiso   1.00
H13    H     0.89340   0.54600   0.78640   0.01267  Uiso   1.00
H14    H     0.77790   0.61800   0.73140   0.01267  Uiso   1.00
H15    H     0.59570   0.77420   0.92180   0.01267  Uiso   1.00
H16    H     0.71300   0.70540   0.97480   0.01267  Uiso   1.00
H17    H     0.40550   0.00340   0.29460   0.01267  Uiso   1.00
H18    H     0.30120   0.05800   0.22980   0.01267  Uiso   1.00
H19    H     0.13090   0.26600   0.37200   0.01267  Uiso   1.00
H20    H     0.23290   0.21000   0.43900   0.01267  Uiso   1.00
H21    H     0.22580   0.95400   0.71360   0.01267  Uiso   1.00
H22    H     0.12730   0.88200   0.76860   0.01267  Uiso   1.00
H23    H     0.29170   0.72580   0.57820   0.01267  Uiso   1.00
H24    H     0.39320   0.79460   0.52520   0.01267  Uiso   1.00
H25    H     0.29990   0.49660   0.29460   0.01267  Uiso   1.00
H26    H     0.46900   0.44200   0.22980   0.01267  Uiso   1.00
H27    H     0.49710   0.23400   0.37200   0.01267  Uiso   1.00
H28    H     0.32810   0.29000   0.43900   0.01267  Uiso   1.00
H29    H     0.06060   0.54600   0.71360   0.01267  Uiso   1.00
H30    H     0.10410   0.61800   0.76860   0.01267  Uiso   1.00
H31    H     0.13010   0.77420   0.57820   0.01267  Uiso   1.00
H32    H     0.08160   0.70540   0.52520   0.01267  Uiso   1.00
H33    H     0.90890   0.99660   0.79460   0.01267  Uiso   1.00
H34    H     0.85920   0.94200   0.72980   0.01267  Uiso   1.00
H35    H     0.89690   0.73400   0.87200   0.01267  Uiso   1.00
H36    H     0.94290   0.79000   0.93900   0.01267  Uiso   1.00
H37    H     0.67980   0.04600   0.21360   0.01267  Uiso   1.00
H38    H     0.50930   0.11800   0.26860   0.01267  Uiso   1.00
H39    H     0.51750   0.27420   0.07820   0.01267  Uiso   1.00
H40    H     0.68780   0.20540   0.02520   0.01267  Uiso   1.00
H41    H     0.29650   0.50340   0.79460   0.01267  Uiso   1.00
H42    H     0.41100   0.55800   0.72980   0.01267  Uiso   1.00
H43    H     0.23110   0.76600   0.87200   0.01267  Uiso   1.00
H44    H     0.11810   0.71000   0.93900   0.01267  Uiso   1.00
H45    H     0.10660   0.45400   0.21360   0.01267  Uiso   1.00
H46    H     0.22210   0.38200   0.26860   0.01267  Uiso   1.00
H47    H     0.40430   0.22580   0.07820   0.01267  Uiso   1.00
H48    H     0.28700   0.29460   0.02520   0.01267  Uiso   1.00
H49    H     0.59450   0.99660   0.70540   0.01267  Uiso   1.00
H50    H     0.69880   0.94200   0.77020   0.01267  Uiso   1.00
H51    H     0.86910   0.73400   0.62800   0.01267  Uiso   1.00
H52    H     0.76710   0.79000   0.56100   0.01267  Uiso   1.00
H53    H     0.77420   0.04600   0.28640   0.01267  Uiso   1.00
H54    H     0.87270   0.11800   0.23140   0.01267  Uiso   1.00
H55    H     0.70830   0.27420   0.42180   0.01267  Uiso   1.00
H56    H     0.60680   0.20540   0.47480   0.01267  Uiso   1.00
H57    H     0.70010   0.50340   0.70540   0.01267  Uiso   1.00
H58    H     0.53100   0.55800   0.77020   0.01267  Uiso   1.00
H59    H     0.50290   0.76600   0.62800   0.01267  Uiso   1.00
H60    H     0.67190   0.71000   0.56100   0.01267  Uiso   1.00
H61    H     0.93940   0.45400   0.28640   0.01267  Uiso   1.00
H62    H     0.89590   0.38200   0.23140   0.01267  Uiso   1.00
H63    H     0.86990   0.22580   0.42180   0.01267  Uiso   1.00
H64    H     0.91840   0.29460   0.47480   0.01267  Uiso   1.00
H65    H     0.11810   0.26380   0.25000   0.01267  Uiso   1.00
H66    H     0.63190   0.23620   0.25000   0.01267  Uiso   1.00
H67    H     0.88190   0.73620   0.75000   0.01267  Uiso   1.00
H68    H     0.36810   0.76380   0.75000   0.01267  Uiso   1.00
H69    H     0.63430   0.75000   0.73140   0.01267  Uiso   1.00
H70    H     0.11570   0.75000   0.76860   0.01267  Uiso   1.00
H71    H     0.36570   0.25000   0.26860   0.01267  Uiso   1.00
H72    H     0.88430   0.25000   0.23140   0.01267  Uiso   1.00
C1     C     0.06996   0.09984   0.12504   0.01267  Uiso   1.00
C2     C     0.09436   0.05604   0.18924   0.01267  Uiso   1.00
C3     C     0.12277   0.08912   0.22874   0.01267  Uiso   1.00
C4     C     0.12519   0.16914   0.20728   0.01267  Uiso   1.00
C5     C     0.10080   0.21306   0.14354   0.01267  Uiso   1.00
C6     C     0.07346   0.17946   0.10322   0.01267  Uiso   1.00
C7     C     0.03909   0.06362   0.08240   0.01267  Uiso   1.00
C8     C     0.18658   0.92604   0.92280   0.01267  Uiso   1.00
C9     C     0.29796   0.88166   0.88662   0.01267  Uiso   1.00
C10    C     0.35276   0.90756   0.81332   0.01267  Uiso   1.00
C11    C     0.45504   0.86442   0.78050   0.01267  Uiso   1.00
C12    C     0.50621   0.79492   0.81946   0.01267  Uiso   1.00
C13    C     0.45021   0.77076   0.89382   0.01267  Uiso   1.00
C14    C     0.34810   0.81274   0.92596   0.01267  Uiso   1.00
C15    C     0.80500   0.40016   0.12504   0.01267  Uiso   1.00
C16    C     0.71640   0.44396   0.18924   0.01267  Uiso   1.00
C17    C     0.64849   0.41088   0.22874   0.01267  Uiso   1.00
C18    C     0.66753   0.33086   0.20728   0.01267  Uiso   1.00
C19    C     0.75566   0.28694   0.14354   0.01267  Uiso   1.00
C20    C     0.82332   0.32054   0.10322   0.01267  Uiso   1.00
C21    C     0.87851   0.43638   0.08240   0.01267  Uiso   1.00
C22    C     0.89062   0.57396   0.92280   0.01267  Uiso   1.00
C23    C     0.81542   0.61834   0.88662   0.01267  Uiso   1.00
C24    C     0.83392   0.59244   0.81332   0.01267  Uiso   1.00
C25    C     0.76446   0.63558   0.78050   0.01267  Uiso   1.00
C26    C     0.67433   0.70508   0.81946   0.01267  Uiso   1.00
C27    C     0.65597   0.72924   0.89382   0.01267  Uiso   1.00
C28    C     0.72594   0.68726   0.92596   0.01267  Uiso   1.00
C29    C     0.33020   0.09984   0.37496   0.01267  Uiso   1.00
C30    C     0.34960   0.05604   0.31076   0.01267  Uiso   1.00
C31    C     0.28811   0.08912   0.27126   0.01267  Uiso   1.00
C32    C     0.20567   0.16914   0.29272   0.01267  Uiso   1.00
C33    C     0.18614   0.21306   0.35646   0.01267  Uiso   1.00
C34    C     0.24708   0.17946   0.39678   0.01267  Uiso   1.00
C35    C     0.39729   0.06362   0.41760   0.01267  Uiso   1.00
C36    C     0.38738   0.92604   0.57720   0.01267  Uiso   1.00
C37    C     0.32038   0.88166   0.61338   0.01267  Uiso   1.00
C38    C     0.23968   0.90756   0.68668   0.01267  Uiso   1.00
C39    C     0.18054   0.86442   0.71950   0.01267  Uiso   1.00
C40    C     0.19887   0.79492   0.68054   0.01267  Uiso   1.00
C41    C     0.27903   0.77076   0.60618   0.01267  Uiso   1.00
C42    C     0.33916   0.81274   0.57404   0.01267  Uiso   1.00
C43    C     0.29484   0.40016   0.37496   0.01267  Uiso   1.00
C44    C     0.33964   0.44396   0.31076   0.01267  Uiso   1.00
C45    C     0.44063   0.41088   0.27126   0.01267  Uiso   1.00
C46    C     0.50161   0.33086   0.29272   0.01267  Uiso   1.00
C47    C     0.45740   0.28694   0.35646   0.01267  Uiso   1.00
C48    C     0.35614   0.32054   0.39678   0.01267  Uiso   1.00
C49    C     0.18511   0.43638   0.41760   0.01267  Uiso   1.00
C50    C     0.03542   0.57396   0.57720   0.01267  Uiso   1.00
C51    C     0.06624   0.61834   0.61338   0.01267  Uiso   1.00
C52    C     0.07364   0.59244   0.68668   0.01267  Uiso   1.00
C53    C     0.09996   0.63558   0.71950   0.01267  Uiso   1.00
C54    C     0.12059   0.70508   0.68054   0.01267  Uiso   1.00
C55    C     0.11479   0.72924   0.60618   0.01267  Uiso   1.00
C56    C     0.08680   0.68726   0.57404   0.01267  Uiso   1.00
C57    C     0.93004   0.90016   0.87496   0.01267  Uiso   1.00
C58    C     0.90564   0.94396   0.81076   0.01267  Uiso   1.00
C59    C     0.87723   0.91088   0.77126   0.01267  Uiso   1.00
C60    C     0.87481   0.83086   0.79272   0.01267  Uiso   1.00
C61    C     0.89920   0.78694   0.85646   0.01267  Uiso   1.00
C62    C     0.92654   0.82054   0.89678   0.01267  Uiso   1.00
C63    C     0.96091   0.93638   0.91760   0.01267  Uiso   1.00
C64    C     0.81342   0.07396   0.07720   0.01267  Uiso   1.00
C65    C     0.70204   0.11834   0.11338   0.01267  Uiso   1.00
C66    C     0.64724   0.09244   0.18668   0.01267  Uiso   1.00
C67    C     0.54496   0.13558   0.21950   0.01267  Uiso   1.00
C68    C     0.49379   0.20508   0.18054   0.01267  Uiso   1.00
C69    C     0.54979   0.22924   0.10618   0.01267  Uiso   1.00
C70    C     0.65190   0.18726   0.07404   0.01267  Uiso   1.00
C71    C     0.19500   0.59984   0.87496   0.01267  Uiso   1.00
C72    C     0.28360   0.55604   0.81076   0.01267  Uiso   1.00
C73    C     0.35151   0.58912   0.77126   0.01267  Uiso   1.00
C74    C     0.33247   0.66914   0.79272   0.01267  Uiso   1.00
C75    C     0.24434   0.71306   0.85646   0.01267  Uiso   1.00
C76    C     0.17668   0.67946   0.89678   0.01267  Uiso   1.00
C77    C     0.12149   0.56362   0.91760   0.01267  Uiso   1.00
C78    C     0.10938   0.42604   0.07720   0.01267  Uiso   1.00
C79    C     0.18458   0.38166   0.11338   0.01267  Uiso   1.00
C80    C     0.16608   0.40756   0.18668   0.01267  Uiso   1.00
C81    C     0.23554   0.36442   0.21950   0.01267  Uiso   1.00
C82    C     0.32567   0.29492   0.18054   0.01267  Uiso   1.00
C83    C     0.34403   0.27076   0.10618   0.01267  Uiso   1.00
C84    C     0.27406   0.31274   0.07404   0.01267  Uiso   1.00
C85    C     0.66980   0.90016   0.62504   0.01267  Uiso   1.00
C86    C     0.65040   0.94396   0.68924   0.01267  Uiso   1.00
C87    C     0.71189   0.91088   0.72874   0.01267  Uiso   1.00
C88    C     0.79433   0.83086   0.70728   0.01267  Uiso   1.00
C89    C     0.81386   0.78694   0.64354   0.01267  Uiso   1.00
C90    C     0.75292   0.82054   0.60322   0.01267  Uiso   1.00
C91    C     0.60271   0.93638   0.58240   0.01267  Uiso   1.00
C92    C     0.61262   0.07396   0.42280   0.01267  Uiso   1.00
C93    C     0.67962   0.11834   0.38662   0.01267  Uiso   1.00
C94    C     0.76032   0.09244   0.31332   0.01267  Uiso   1.00
C95    C     0.81946   0.13558   0.28050   0.01267  Uiso   1.00
C96    C     0.80113   0.20508   0.31946   0.01267  Uiso   1.00
C97    C     0.72097   0.22924   0.39382   0.01267  Uiso   1.00
C98    C     0.66084   0.18726   0.42596   0.01267  Uiso   1.00
C99    C     0.70516   0.59984   0.62504   0.01267  Uiso   1.00
C100   C     0.66036   0.55604   0.68924   0.01267  Uiso   1.00
C101   C     0.55937   0.58912   0.72874   0.01267  Uiso   1.00
C102   C     0.49839   0.66914   0.70728   0.01267  Uiso   1.00
C103   C     0.54260   0.71306   0.64354   0.01267  Uiso   1.00
C104   C     0.64386   0.67946   0.60322   0.01267  Uiso   1.00
C105   C     0.81489   0.56362   0.58240   0.01267  Uiso   1.00
C106   C     0.96458   0.42604   0.42280   0.01267  Uiso   1.00
C107   C     0.93376   0.38166   0.38662   0.01267  Uiso   1.00
C108   C     0.92636   0.40756   0.31332   0.01267  Uiso   1.00
C109   C     0.90004   0.36442   0.28050   0.01267  Uiso   1.00
C110   C     0.87941   0.29492   0.31946   0.01267  Uiso   1.00
C111   C     0.88521   0.27076   0.39382   0.01267  Uiso   1.00
C112   C     0.91320   0.31274   0.42596   0.01267  Uiso   1.00
N1     N     0.14582   0.20836   0.25000   0.01267  Uiso   1.00
N2     N     0.60418   0.29164   0.25000   0.01267  Uiso   1.00
N3     N     0.85418   0.79164   0.75000   0.01267  Uiso   1.00
N4     N     0.39582   0.70836   0.75000   0.01267  Uiso   1.00
N5     N     0.60868   0.75000   0.78264   0.01267  Uiso   1.00
N6     N     0.14132   0.75000   0.71736   0.01267  Uiso   1.00
N7     N     0.39132   0.25000   0.21736   0.01267  Uiso   1.00
N8     N     0.85868   0.25000   0.28264   0.01267  Uiso   1.00
O1     O     0.14341   0.89026   0.98312   0.01267  Uiso   1.00
O2     O     0.02652   0.99644   0.11072   0.01267  Uiso   1.00
O3     O     0.02660   0.10282   0.02098   0.01267  Uiso   1.00
O4     O     0.14338   0.99558   0.89166   0.01267  Uiso   1.00
O5     O     0.87347   0.60974   0.98312   0.01267  Uiso   1.00
O6     O     0.86276   0.50356   0.11072   0.01267  Uiso   1.00
O7     O     0.95242   0.39718   0.02098   0.01267  Uiso   1.00
O8     O     0.96496   0.50442   0.89166   0.01267  Uiso   1.00
O9     O     0.46633   0.89026   0.51688   0.01267  Uiso   1.00
O10    O     0.47704   0.99644   0.38928   0.01267  Uiso   1.00
O11    O     0.37058   0.10282   0.47902   0.01267  Uiso   1.00
O12    O     0.36104   0.99558   0.60834   0.01267  Uiso   1.00
O13    O     0.01679   0.60974   0.51688   0.01267  Uiso   1.00
O14    O     0.13368   0.50356   0.38928   0.01267  Uiso   1.00
O15    O     0.15040   0.39718   0.47902   0.01267  Uiso   1.00
O16    O     0.03062   0.50442   0.60834   0.01267  Uiso   1.00
O17    O     0.85659   0.10974   0.01688   0.01267  Uiso   1.00
O18    O     0.97348   0.00356   0.88928   0.01267  Uiso   1.00
O19    O     0.97340   0.89718   0.97902   0.01267  Uiso   1.00
O20    O     0.85662   0.00442   0.10834   0.01267  Uiso   1.00
O21    O     0.12653   0.39026   0.01688   0.01267  Uiso   1.00
O22    O     0.13724   0.49644   0.88928   0.01267  Uiso   1.00
O23    O     0.04758   0.60282   0.97902   0.01267  Uiso   1.00
O24    O     0.03504   0.49558   0.10834   0.01267  Uiso   1.00
O25    O     0.53367   0.10974   0.48312   0.01267  Uiso   1.00
O26    O     0.52296   0.00356   0.61072   0.01267  Uiso   1.00
O27    O     0.62942   0.89718   0.52098   0.01267  Uiso   1.00
O28    O     0.63896   0.00442   0.39166   0.01267  Uiso   1.00
O29    O     0.98321   0.39026   0.48312   0.01267  Uiso   1.00
O30    O     0.86632   0.49644   0.61072   0.01267  Uiso   1.00
O31    O     0.84960   0.60282   0.52098   0.01267  Uiso   1.00
O32    O     0.96938   0.49558   0.39166   0.01267  Uiso   1.00
