data_image0
_cell_length_a       8.5832
_cell_length_b       8.5832
_cell_length_c       52.61
_cell_angle_alpha    90
_cell_angle_beta     90
_cell_angle_gamma    120

_symmetry_space_group_name_H-M    "P 1"
_symmetry_int_tables_number       1

loop_
  _symmetry_equiv_pos_as_xyz
  'x, y, z'

loop_
  _atom_site_label
  _atom_site_occupancy
  _atom_site_fract_x
  _atom_site_fract_y
  _atom_site_fract_z
  _atom_site_thermal_displace_type
  _atom_site_B_iso_or_equiv
  _atom_site_type_symbol
  Zn1      1.0000 0.96943  0.70358  0.00999  Biso   1.000  Zn
  P1       1.0000 0.98500  0.94560  0.96105  Biso   1.000  P
  P2       1.0000 0.63180  0.30450  0.00363  Biso   1.000  P
  O1       1.0000 0.96420  0.87980  0.93314  Biso   1.000  O
  O2       1.0000 0.81630  0.94040  0.96952  Biso   1.000  O
  O3       1.0000 0.76460  0.47470  0.01719  Biso   1.000  O
  O4       1.0000 0.50750  0.16710  0.02531  Biso   1.000  O
  H1       1.0000 0.39600  0.15500  0.02370  Biso   1.000  H
  O5       1.0000 0.51080  0.33470  0.98548  Biso   1.000  O
  O6       1.0000 0.72330  0.21730  0.98964  Biso   1.000  O
  O7       1.0000 0.14900  0.13620  0.96213  Biso   1.000  O
  O8       1.0000 0.01800  0.81400  0.97651  Biso   1.000  O
  Zn2      1.0000 0.29642  0.26585  0.67666  Biso   1.000  Zn
  P3       1.0000 0.05440  0.03940  0.62772  Biso   1.000  P
  P4       1.0000 0.69550  0.32730  0.67030  Biso   1.000  P
  O9       1.0000 0.12020  0.08440  0.59981  Biso   1.000  O
  O10      1.0000 0.05960  0.87590  0.63619  Biso   1.000  O
  O11      1.0000 0.52530  0.28990  0.68386  Biso   1.000  O
  O12      1.0000 0.83290  0.34040  0.69198  Biso   1.000  O
  H2       1.0000 0.84500  0.24100  0.69037  Biso   1.000  H
  O13      1.0000 0.66530  0.17610  0.65215  Biso   1.000  O
  O14      1.0000 0.78270  0.50600  0.65631  Biso   1.000  O
  O15      1.0000 0.86380  0.01280  0.62880  Biso   1.000  O
  O16      1.0000 0.18600  0.20400  0.64318  Biso   1.000  O
  Zn3      1.0000 0.73415  0.03057  0.34332  Biso   1.000  Zn
  P5       1.0000 0.96060  0.01500  0.29438  Biso   1.000  P
  P6       1.0000 0.67270  0.36820  0.33696  Biso   1.000  P
  O17      1.0000 0.91560  0.03580  0.26647  Biso   1.000  O
  O18      1.0000 0.12410  0.18370  0.30285  Biso   1.000  O
  O19      1.0000 0.71010  0.23540  0.35052  Biso   1.000  O
  O20      1.0000 0.65960  0.49250  0.35864  Biso   1.000  O
  H3       1.0000 0.75900  0.60400  0.35703  Biso   1.000  H
  O21      1.0000 0.82390  0.48920  0.31881  Biso   1.000  O
  O22      1.0000 0.49400  0.27670  0.32297  Biso   1.000  O
  O23      1.0000 0.98720  0.85100  0.29546  Biso   1.000  O
  O24      1.0000 0.79600  0.98200  0.30984  Biso   1.000  O
  Zn4      1.0000 0.03057  0.29642  0.50999  Biso   1.000  Zn
  P7       1.0000 0.01500  0.05440  0.46105  Biso   1.000  P
  P8       1.0000 0.36820  0.69550  0.50363  Biso   1.000  P
  O25      1.0000 0.03580  0.12020  0.43314  Biso   1.000  O
  O26      1.0000 0.18370  0.05960  0.46952  Biso   1.000  O
  O27      1.0000 0.23540  0.52530  0.51719  Biso   1.000  O
  O28      1.0000 0.49250  0.83290  0.52531  Biso   1.000  O
  H4       1.0000 0.60400  0.84500  0.52370  Biso   1.000  H
  O29      1.0000 0.48920  0.66530  0.48548  Biso   1.000  O
  O30      1.0000 0.27670  0.78270  0.48964  Biso   1.000  O
  O31      1.0000 0.85100  0.86380  0.46213  Biso   1.000  O
  O32      1.0000 0.98200  0.18600  0.47651  Biso   1.000  O
  Zn5      1.0000 0.70358  0.73415  0.17666  Biso   1.000  Zn
  P9       1.0000 0.94560  0.96060  0.12772  Biso   1.000  P
  P10      1.0000 0.30450  0.67270  0.17030  Biso   1.000  P
  O33      1.0000 0.87980  0.91560  0.09981  Biso   1.000  O
  O34      1.0000 0.94040  0.12410  0.13619  Biso   1.000  O
  O35      1.0000 0.47470  0.71010  0.18386  Biso   1.000  O
  O36      1.0000 0.16710  0.65960  0.19198  Biso   1.000  O
  H5       1.0000 0.15500  0.75900  0.19037  Biso   1.000  H
  O37      1.0000 0.33470  0.82390  0.15215  Biso   1.000  O
  O38      1.0000 0.21730  0.49400  0.15631  Biso   1.000  O
  O39      1.0000 0.13620  0.98720  0.12880  Biso   1.000  O
  O40      1.0000 0.81400  0.79600  0.14318  Biso   1.000  O
  Zn6      1.0000 0.26585  0.96943  0.84332  Biso   1.000  Zn
  P11      1.0000 0.03940  0.98500  0.79438  Biso   1.000  P
  P12      1.0000 0.32730  0.63180  0.83696  Biso   1.000  P
  O41      1.0000 0.08440  0.96420  0.76647  Biso   1.000  O
  O42      1.0000 0.87590  0.81630  0.80285  Biso   1.000  O
  O43      1.0000 0.28990  0.76460  0.85052  Biso   1.000  O
  O44      1.0000 0.34040  0.50750  0.85864  Biso   1.000  O
  H6       1.0000 0.24100  0.39600  0.85703  Biso   1.000  H
  O45      1.0000 0.17610  0.51080  0.81881  Biso   1.000  O
  O46      1.0000 0.50600  0.72330  0.82297  Biso   1.000  O
  O47      1.0000 0.01280  0.14900  0.79546  Biso   1.000  O
  O48      1.0000 0.20400  0.01800  0.80984  Biso   1.000  O
  Zn7      1.0000 0.70358  0.96943  0.65668  Biso   1.000  Zn
  P13      1.0000 0.94560  0.98500  0.70562  Biso   1.000  P
  P14      1.0000 0.30450  0.63180  0.66304  Biso   1.000  P
  O49      1.0000 0.87980  0.96420  0.73353  Biso   1.000  O
  O50      1.0000 0.94040  0.81630  0.69715  Biso   1.000  O
  O51      1.0000 0.47470  0.76460  0.64948  Biso   1.000  O
  O52      1.0000 0.16710  0.50750  0.64136  Biso   1.000  O
  H7       1.0000 0.15500  0.39600  0.64297  Biso   1.000  H
  O53      1.0000 0.33470  0.51080  0.68119  Biso   1.000  O
  O54      1.0000 0.21730  0.72330  0.67703  Biso   1.000  O
  O55      1.0000 0.13620  0.14900  0.70454  Biso   1.000  O
  O56      1.0000 0.81400  0.01800  0.69016  Biso   1.000  O
  Zn8      1.0000 0.26585  0.29642  0.99001  Biso   1.000  Zn
  P15      1.0000 0.03940  0.05440  0.03895  Biso   1.000  P
  P16      1.0000 0.32730  0.69550  0.99637  Biso   1.000  P
  O57      1.0000 0.08440  0.12020  0.06686  Biso   1.000  O
  O58      1.0000 0.87590  0.05960  0.03048  Biso   1.000  O
  O59      1.0000 0.28990  0.52530  0.98281  Biso   1.000  O
  O60      1.0000 0.34040  0.83290  0.97469  Biso   1.000  O
  H8       1.0000 0.24100  0.84500  0.97630  Biso   1.000  H
  O61      1.0000 0.17610  0.66530  0.01452  Biso   1.000  O
  O62      1.0000 0.50600  0.78270  0.01036  Biso   1.000  O
  O63      1.0000 0.01280  0.86380  0.03787  Biso   1.000  O
  O64      1.0000 0.20400  0.18600  0.02349  Biso   1.000  O
  Zn9      1.0000 0.03057  0.73415  0.32334  Biso   1.000  Zn
  P17      1.0000 0.01500  0.96060  0.37228  Biso   1.000  P
  P18      1.0000 0.36820  0.67270  0.32970  Biso   1.000  P
  O65      1.0000 0.03580  0.91560  0.40019  Biso   1.000  O
  O66      1.0000 0.18370  0.12410  0.36381  Biso   1.000  O
  O67      1.0000 0.23540  0.71010  0.31614  Biso   1.000  O
  O68      1.0000 0.49250  0.65960  0.30802  Biso   1.000  O
  H9       1.0000 0.60400  0.75900  0.30963  Biso   1.000  H
  O69      1.0000 0.48920  0.82390  0.34785  Biso   1.000  O
  O70      1.0000 0.27670  0.49400  0.34369  Biso   1.000  O
  O71      1.0000 0.85100  0.98720  0.37120  Biso   1.000  O
  O72      1.0000 0.98200  0.79600  0.35682  Biso   1.000  O
  Zn10     1.0000 0.29642  0.03057  0.15668  Biso   1.000  Zn
  P19      1.0000 0.05440  0.01500  0.20562  Biso   1.000  P
  P20      1.0000 0.69550  0.36820  0.16304  Biso   1.000  P
  O73      1.0000 0.12020  0.03580  0.23353  Biso   1.000  O
  O74      1.0000 0.05960  0.18370  0.19715  Biso   1.000  O
  O75      1.0000 0.52530  0.23540  0.14948  Biso   1.000  O
  O76      1.0000 0.83290  0.49250  0.14136  Biso   1.000  O
  H10      1.0000 0.84500  0.60400  0.14297  Biso   1.000  H
  O77      1.0000 0.66530  0.48920  0.18119  Biso   1.000  O
  O78      1.0000 0.78270  0.27670  0.17703  Biso   1.000  O
  O79      1.0000 0.86380  0.85100  0.20454  Biso   1.000  O
  O80      1.0000 0.18600  0.98200  0.19016  Biso   1.000  O
  Zn11     1.0000 0.73415  0.70358  0.49001  Biso   1.000  Zn
  P21      1.0000 0.96060  0.94560  0.53895  Biso   1.000  P
  P22      1.0000 0.67270  0.30450  0.49637  Biso   1.000  P
  O81      1.0000 0.91560  0.87980  0.56686  Biso   1.000  O
  O82      1.0000 0.12410  0.94040  0.53048  Biso   1.000  O
  O83      1.0000 0.71010  0.47470  0.48281  Biso   1.000  O
  O84      1.0000 0.65960  0.16710  0.47469  Biso   1.000  O
  H11      1.0000 0.75900  0.15500  0.47630  Biso   1.000  H
  O85      1.0000 0.82390  0.33470  0.51452  Biso   1.000  O
  O86      1.0000 0.49400  0.21730  0.51036  Biso   1.000  O
  O87      1.0000 0.98720  0.13620  0.53787  Biso   1.000  O
  O88      1.0000 0.79600  0.81400  0.52349  Biso   1.000  O
  Zn12     1.0000 0.96943  0.26585  0.82334  Biso   1.000  Zn
  P23      1.0000 0.98500  0.03940  0.87228  Biso   1.000  P
  P24      1.0000 0.63180  0.32730  0.82970  Biso   1.000  P
  O89      1.0000 0.96420  0.08440  0.90019  Biso   1.000  O
  O90      1.0000 0.81630  0.87590  0.86381  Biso   1.000  O
  O91      1.0000 0.76460  0.28990  0.81614  Biso   1.000  O
  O92      1.0000 0.50750  0.34040  0.80802  Biso   1.000  O
  H12      1.0000 0.39600  0.24100  0.80963  Biso   1.000  H
  O93      1.0000 0.51080  0.17610  0.84785  Biso   1.000  O
  O94      1.0000 0.72330  0.50600  0.84369  Biso   1.000  O
  O95      1.0000 0.14900  0.01280  0.87120  Biso   1.000  O
  O96      1.0000 0.01800  0.20400  0.85682  Biso   1.000  O
  Zn13     1.0000 0.72969  0.00000  0.00000  Biso   1.000  Zn
  Zn14     1.0000 0.00000  0.72969  0.66667  Biso   1.000  Zn
  Zn15     1.0000 0.27031  0.27031  0.33333  Biso   1.000  Zn
  Zn16     1.0000 0.27031  0.00000  0.50000  Biso   1.000  Zn
  Zn17     1.0000 0.00000  0.27031  0.16667  Biso   1.000  Zn
  Zn18     1.0000 0.72969  0.72969  0.83333  Biso   1.000  Zn
  H13      1.0000 0.96900  0.98450  0.91667  Biso   1.000  H
  H14      1.0000 0.01550  0.98450  0.58333  Biso   1.000  H
  H15      1.0000 0.01550  0.03100  0.25000  Biso   1.000  H
  H16      1.0000 0.03100  0.01550  0.41667  Biso   1.000  H
  H17      1.0000 0.98450  0.01550  0.08333  Biso   1.000  H
  H18      1.0000 0.98450  0.96900  0.75000  Biso   1.000  H
