data_YEMJAC_clean
_audit_creation_date              2014-07-02
_audit_creation_method            'Materials Studio'
_symmetry_space_group_name_H-M    'P1'
_symmetry_Int_Tables_number       1
_symmetry_cell_setting            triclinic
loop_
_symmetry_equiv_pos_as_xyz
  x,y,z
_cell_length_a                    10.3131
_cell_length_b                    10.3131
_cell_length_c                    14.4950
_cell_angle_alpha                 90.0000
_cell_angle_beta                  90.0000
_cell_angle_gamma                 90.0000
loop_
_atom_site_label
_atom_site_type_symbol
_atom_site_fract_x
_atom_site_fract_y
_atom_site_fract_z
_atom_site_U_iso_or_equiv
_atom_site_adp_type
_atom_site_occupancy
Dy1    Dy    0.64911   0.64911   0.87500   0.01267  Uiso   1.00
Dy2    Dy    0.35089   0.35089   0.37500   0.01267  Uiso   1.00
Dy3    Dy    0.35089   0.64911   0.12500   0.01267  Uiso   1.00
Dy4    Dy    0.64911   0.35089   0.62500   0.01267  Uiso   1.00
H1     H     0.58270   0.06050   0.87470   0.01267  Uiso   1.00
H2     H     0.41730   0.93950   0.37470   0.01267  Uiso   1.00
H3     H     0.93950   0.58270   0.12470   0.01267  Uiso   1.00
H4     H     0.06050   0.41730   0.62470   0.01267  Uiso   1.00
H5     H     0.41730   0.06050   0.12530   0.01267  Uiso   1.00
H6     H     0.58270   0.93950   0.62530   0.01267  Uiso   1.00
H7     H     0.06050   0.58270   0.87530   0.01267  Uiso   1.00
H8     H     0.93950   0.41730   0.37530   0.01267  Uiso   1.00
H9     H     0.50000   0.39810   0.00000   0.01267  Uiso   1.00
H10    H     0.50000   0.60190   0.50000   0.01267  Uiso   1.00
H11    H     0.60190   0.50000   0.25000   0.01267  Uiso   1.00
H12    H     0.39810   0.50000   0.75000   0.01267  Uiso   1.00
C1     C     0.54800   0.10560   0.92440   0.01267  Uiso   1.00
C2     C     0.54450   0.23900   0.92270   0.01267  Uiso   1.00
C3     C     0.58970   0.31620   0.84000   0.01267  Uiso   1.00
C4     C     0.45200   0.89440   0.42440   0.01267  Uiso   1.00
C5     C     0.45550   0.76100   0.42270   0.01267  Uiso   1.00
C6     C     0.41030   0.68380   0.34000   0.01267  Uiso   1.00
C7     C     0.89440   0.54800   0.17440   0.01267  Uiso   1.00
C8     C     0.76100   0.54450   0.17270   0.01267  Uiso   1.00
C9     C     0.68380   0.58970   0.09000   0.01267  Uiso   1.00
C10    C     0.10560   0.45200   0.67440   0.01267  Uiso   1.00
C11    C     0.23900   0.45550   0.67270   0.01267  Uiso   1.00
C12    C     0.31620   0.41030   0.59000   0.01267  Uiso   1.00
C13    C     0.45200   0.10560   0.07560   0.01267  Uiso   1.00
C14    C     0.45550   0.23900   0.07730   0.01267  Uiso   1.00
C15    C     0.41030   0.31620   0.16000   0.01267  Uiso   1.00
C16    C     0.54800   0.89440   0.57560   0.01267  Uiso   1.00
C17    C     0.54450   0.76100   0.57730   0.01267  Uiso   1.00
C18    C     0.58970   0.68380   0.66000   0.01267  Uiso   1.00
C19    C     0.10560   0.54800   0.82560   0.01267  Uiso   1.00
C20    C     0.23900   0.54450   0.82730   0.01267  Uiso   1.00
C21    C     0.31620   0.58970   0.91000   0.01267  Uiso   1.00
C22    C     0.89440   0.45200   0.32560   0.01267  Uiso   1.00
C23    C     0.76100   0.45550   0.32730   0.01267  Uiso   1.00
C24    C     0.68380   0.41030   0.41000   0.01267  Uiso   1.00
C25    C     0.50000   0.89250   0.00000   0.01267  Uiso   1.00
C26    C     0.50000   0.03770   0.00000   0.01267  Uiso   1.00
C27    C     0.50000   0.30790   0.00000   0.01267  Uiso   1.00
C28    C     0.50000   0.10750   0.50000   0.01267  Uiso   1.00
C29    C     0.50000   0.96230   0.50000   0.01267  Uiso   1.00
C30    C     0.50000   0.69210   0.50000   0.01267  Uiso   1.00
C31    C     0.10750   0.50000   0.25000   0.01267  Uiso   1.00
C32    C     0.96230   0.50000   0.25000   0.01267  Uiso   1.00
C33    C     0.69210   0.50000   0.25000   0.01267  Uiso   1.00
C34    C     0.89250   0.50000   0.75000   0.01267  Uiso   1.00
C35    C     0.03770   0.50000   0.75000   0.01267  Uiso   1.00
C36    C     0.30790   0.50000   0.75000   0.01267  Uiso   1.00
O1     O     0.57130   0.83530   0.94110   0.01267  Uiso   1.00
O2     O     0.59720   0.25720   0.76520   0.01267  Uiso   1.00
O3     O     0.61240   0.43100   0.85030   0.01267  Uiso   1.00
O4     O     0.42870   0.16470   0.44110   0.01267  Uiso   1.00
O5     O     0.40280   0.74280   0.26520   0.01267  Uiso   1.00
O6     O     0.38760   0.56900   0.35030   0.01267  Uiso   1.00
O7     O     0.16470   0.57130   0.19110   0.01267  Uiso   1.00
O8     O     0.74280   0.59720   0.01520   0.01267  Uiso   1.00
O9     O     0.56900   0.61240   0.10030   0.01267  Uiso   1.00
O10    O     0.83530   0.42870   0.69110   0.01267  Uiso   1.00
O11    O     0.25720   0.40280   0.51520   0.01267  Uiso   1.00
O12    O     0.43100   0.38760   0.60030   0.01267  Uiso   1.00
O13    O     0.42870   0.83530   0.05890   0.01267  Uiso   1.00
O14    O     0.40280   0.25720   0.23480   0.01267  Uiso   1.00
O15    O     0.38760   0.43100   0.14970   0.01267  Uiso   1.00
O16    O     0.57130   0.16470   0.55890   0.01267  Uiso   1.00
O17    O     0.59720   0.74280   0.73480   0.01267  Uiso   1.00
O18    O     0.61240   0.56900   0.64970   0.01267  Uiso   1.00
O19    O     0.83530   0.57130   0.80890   0.01267  Uiso   1.00
O20    O     0.25720   0.59720   0.98480   0.01267  Uiso   1.00
O21    O     0.43100   0.61240   0.89970   0.01267  Uiso   1.00
O22    O     0.16470   0.42870   0.30890   0.01267  Uiso   1.00
O23    O     0.74280   0.40280   0.48480   0.01267  Uiso   1.00
O24    O     0.56900   0.38760   0.39970   0.01267  Uiso   1.00
