data_YEMLOS_clean
_audit_creation_date              2014-07-02
_audit_creation_method            'Materials Studio'
_symmetry_space_group_name_H-M    'P1'
_symmetry_Int_Tables_number       1
_symmetry_cell_setting            triclinic
loop_
_symmetry_equiv_pos_as_xyz
  x,y,z
_cell_length_a                    8.3081
_cell_length_b                    9.1647
_cell_length_c                    9.1839
_cell_angle_alpha                 62.7810
_cell_angle_beta                  79.0290
_cell_angle_gamma                 87.0880
loop_
_atom_site_label
_atom_site_type_symbol
_atom_site_fract_x
_atom_site_fract_y
_atom_site_fract_z
_atom_site_U_iso_or_equiv
_atom_site_adp_type
_atom_site_occupancy
Fe1    Fe    0.24056   0.57637   0.42962   0.01267  Uiso   1.00
Fe2    Fe    0.75944   0.42363   0.57038   0.01267  Uiso   1.00
P1     P     0.57926   0.53316   0.24194   0.01267  Uiso   1.00
P2     P     0.05694   0.25198   0.46540   0.01267  Uiso   1.00
P3     P     0.42074   0.46684   0.75806   0.01267  Uiso   1.00
P4     P     0.94306   0.74802   0.53460   0.01267  Uiso   1.00
H1     H     0.69480   0.75970   0.99780   0.01267  Uiso   1.00
H2     H     0.61340   0.63820   0.95470   0.01267  Uiso   1.00
H3     H     0.14330   0.01520   0.67100   0.01267  Uiso   1.00
H4     H     0.21070   0.16950   0.67460   0.01267  Uiso   1.00
H5     H     0.98130   0.74640   0.01800   0.01267  Uiso   1.00
H6     H     0.95510   0.56890   0.16830   0.01267  Uiso   1.00
H7     H     0.82360   0.34730   0.13630   0.01267  Uiso   1.00
H8     H     0.77020   0.38970   0.96670   0.01267  Uiso   1.00
H9     H     0.48720   0.11370   0.68290   0.01267  Uiso   1.00
H10    H     0.43300   0.93360   0.72990   0.01267  Uiso   1.00
H11    H     0.30640   0.88130   0.53280   0.01267  Uiso   1.00
H12    H     0.28200   0.02860   0.36290   0.01267  Uiso   1.00
H13    H     0.30520   0.24030   0.00220   0.01267  Uiso   1.00
H14    H     0.38660   0.36180   0.04530   0.01267  Uiso   1.00
H15    H     0.85670   0.98480   0.32900   0.01267  Uiso   1.00
H16    H     0.78930   0.83050   0.32540   0.01267  Uiso   1.00
H17    H     0.01870   0.25360   0.98200   0.01267  Uiso   1.00
H18    H     0.04490   0.43110   0.83170   0.01267  Uiso   1.00
H19    H     0.17640   0.65270   0.86370   0.01267  Uiso   1.00
H20    H     0.22980   0.61030   0.03330   0.01267  Uiso   1.00
H21    H     0.51280   0.88630   0.31710   0.01267  Uiso   1.00
H22    H     0.56700   0.06640   0.27010   0.01267  Uiso   1.00
H23    H     0.69360   0.11870   0.46720   0.01267  Uiso   1.00
H24    H     0.71800   0.97140   0.63710   0.01267  Uiso   1.00
C1     C     0.68420   0.64490   0.02430   0.01267  Uiso   1.00
C2     C     0.19590   0.12340   0.60140   0.01267  Uiso   1.00
C3     C     0.98060   0.63040   0.04770   0.01267  Uiso   1.00
C4     C     0.85190   0.41340   0.01640   0.01267  Uiso   1.00
C5     C     0.47770   0.03770   0.63800   0.01267  Uiso   1.00
C6     C     0.35330   0.98630   0.44440   0.01267  Uiso   1.00
C7     C     0.31580   0.35510   0.97570   0.01267  Uiso   1.00
C8     C     0.80410   0.87660   0.39860   0.01267  Uiso   1.00
C9     C     0.01940   0.36960   0.95230   0.01267  Uiso   1.00
C10    C     0.14810   0.58660   0.98360   0.01267  Uiso   1.00
C11    C     0.52230   0.96230   0.36200   0.01267  Uiso   1.00
C12    C     0.64670   0.01370   0.55560   0.01267  Uiso   1.00
N1     N     0.85160   0.59140   0.97450   0.01267  Uiso   1.00
N2     N     0.36270   0.10370   0.51550   0.01267  Uiso   1.00
N3     N     0.14840   0.40860   0.02550   0.01267  Uiso   1.00
N4     N     0.63730   0.89630   0.48450   0.01267  Uiso   1.00
O1     O     0.44200   0.64770   0.25140   0.01267  Uiso   1.00
O2     O     0.70270   0.52310   0.34790   0.01267  Uiso   1.00
O3     O     0.12740   0.42830   0.37860   0.01267  Uiso   1.00
O4     O     0.89910   0.23270   0.59150   0.01267  Uiso   1.00
O5     O     0.51860   0.36800   0.27090   0.01267  Uiso   1.00
O6     O     0.04200   0.19410   0.33900   0.01267  Uiso   1.00
O7     O     0.55800   0.35230   0.74860   0.01267  Uiso   1.00
O8     O     0.29730   0.47690   0.65210   0.01267  Uiso   1.00
O9     O     0.87260   0.57170   0.62140   0.01267  Uiso   1.00
O10    O     0.10090   0.76730   0.40850   0.01267  Uiso   1.00
O11    O     0.48140   0.63200   0.72910   0.01267  Uiso   1.00
O12    O     0.95800   0.80590   0.66100   0.01267  Uiso   1.00
