data_image0
_cell_length_a       27.9486
_cell_length_b       27.9486
_cell_length_c       6.2302
_cell_angle_alpha    90
_cell_angle_beta     90
_cell_angle_gamma    120

_symmetry_space_group_name_H-M    "P 1"
_symmetry_int_tables_number       1

loop_
  _symmetry_equiv_pos_as_xyz
  'x, y, z'

loop_
  _atom_site_label
  _atom_site_occupancy
  _atom_site_fract_x
  _atom_site_fract_y
  _atom_site_fract_z
  _atom_site_thermal_displace_type
  _atom_site_B_iso_or_equiv
  _atom_site_type_symbol
  Ni1      1.0000 0.63786  0.02840  0.05170  Biso   1.000  Ni
  P1       1.0000 0.61355  0.03959  0.57290  Biso   1.000  P
  O1       1.0000 0.61410  0.09470  0.51850  Biso   1.000  O
  O2       1.0000 0.63060  0.01040  0.36920  Biso   1.000  O
  O3       1.0000 0.66110  0.04720  0.72880  Biso   1.000  O
  N1       1.0000 0.55670  0.00620  0.97060  Biso   1.000  N
  C1       1.0000 0.54370  0.05680  0.98600  Biso   1.000  C
  C2       1.0000 0.51800  0.96130  0.08400  Biso   1.000  C
  C3       1.0000 0.54680  0.98850  0.73000  Biso   1.000  C
  Ni2      1.0000 0.30453  0.36173  0.38503  Biso   1.000  Ni
  P2       1.0000 0.28022  0.37292  0.90623  Biso   1.000  P
  O4       1.0000 0.28077  0.42803  0.85183  Biso   1.000  O
  O5       1.0000 0.29727  0.34373  0.70253  Biso   1.000  O
  O6       1.0000 0.32777  0.38053  0.06213  Biso   1.000  O
  N2       1.0000 0.22337  0.33953  0.30393  Biso   1.000  N
  C4       1.0000 0.21037  0.39013  0.31933  Biso   1.000  C
  C5       1.0000 0.18467  0.29463  0.41733  Biso   1.000  C
  C6       1.0000 0.21347  0.32183  0.06333  Biso   1.000  C
  Ni3      1.0000 0.97119  0.69507  0.71837  Biso   1.000  Ni
  P3       1.0000 0.94688  0.70626  0.23957  Biso   1.000  P
  O7       1.0000 0.94743  0.76137  0.18517  Biso   1.000  O
  O8       1.0000 0.96393  0.67707  0.03587  Biso   1.000  O
  O9       1.0000 0.99443  0.71387  0.39547  Biso   1.000  O
  N3       1.0000 0.89003  0.67287  0.63727  Biso   1.000  N
  C7       1.0000 0.87703  0.72347  0.65267  Biso   1.000  C
  C8       1.0000 0.85133  0.62797  0.75067  Biso   1.000  C
  C9       1.0000 0.88013  0.65517  0.39667  Biso   1.000  C
  Ni4      1.0000 0.97160  0.60946  0.05170  Biso   1.000  Ni
  P4       1.0000 0.96041  0.57396  0.57290  Biso   1.000  P
  O10      1.0000 0.90530  0.51940  0.51850  Biso   1.000  O
  O11      1.0000 0.98960  0.62020  0.36920  Biso   1.000  O
  O12      1.0000 0.95280  0.61390  0.72880  Biso   1.000  O
  N4       1.0000 0.99380  0.55050  0.97060  Biso   1.000  N
  C10      1.0000 0.94320  0.48690  0.98600  Biso   1.000  C
  C11      1.0000 0.03870  0.55670  0.08400  Biso   1.000  C
  C12      1.0000 0.01150  0.55830  0.73000  Biso   1.000  C
  Ni5      1.0000 0.63827  0.94279  0.38503  Biso   1.000  Ni
  P5       1.0000 0.62708  0.90729  0.90623  Biso   1.000  P
  O13      1.0000 0.57197  0.85273  0.85183  Biso   1.000  O
  O14      1.0000 0.65627  0.95353  0.70253  Biso   1.000  O
  O15      1.0000 0.61947  0.94723  0.06213  Biso   1.000  O
  N5       1.0000 0.66047  0.88383  0.30393  Biso   1.000  N
  C13      1.0000 0.60987  0.82023  0.31933  Biso   1.000  C
  C14      1.0000 0.70537  0.89003  0.41733  Biso   1.000  C
  C15      1.0000 0.67817  0.89163  0.06333  Biso   1.000  C
  Ni6      1.0000 0.30493  0.27613  0.71837  Biso   1.000  Ni
  P6       1.0000 0.29374  0.24063  0.23957  Biso   1.000  P
  O16      1.0000 0.23863  0.18607  0.18517  Biso   1.000  O
  O17      1.0000 0.32293  0.28687  0.03587  Biso   1.000  O
  O18      1.0000 0.28613  0.28057  0.39547  Biso   1.000  O
  N6       1.0000 0.32713  0.21717  0.63727  Biso   1.000  N
  C16      1.0000 0.27653  0.15357  0.65267  Biso   1.000  C
  C17      1.0000 0.37203  0.22337  0.75067  Biso   1.000  C
  C18      1.0000 0.34483  0.22497  0.39667  Biso   1.000  C
  Ni7      1.0000 0.39054  0.36214  0.05170  Biso   1.000  Ni
  P7       1.0000 0.42604  0.38645  0.57290  Biso   1.000  P
  O19      1.0000 0.48060  0.38590  0.51850  Biso   1.000  O
  O20      1.0000 0.37980  0.36940  0.36920  Biso   1.000  O
  O21      1.0000 0.38610  0.33890  0.72880  Biso   1.000  O
  N7       1.0000 0.44950  0.44330  0.97060  Biso   1.000  N
  C19      1.0000 0.51310  0.45630  0.98600  Biso   1.000  C
  C20      1.0000 0.44330  0.48200  0.08400  Biso   1.000  C
  C21      1.0000 0.44170  0.45320  0.73000  Biso   1.000  C
  Ni8      1.0000 0.05721  0.69547  0.38503  Biso   1.000  Ni
  P8       1.0000 0.09271  0.71978  0.90623  Biso   1.000  P
  O22      1.0000 0.14727  0.71923  0.85183  Biso   1.000  O
  O23      1.0000 0.04647  0.70273  0.70253  Biso   1.000  O
  O24      1.0000 0.05277  0.67223  0.06213  Biso   1.000  O
  N8       1.0000 0.11617  0.77663  0.30393  Biso   1.000  N
  C22      1.0000 0.17977  0.78963  0.31933  Biso   1.000  C
  C23      1.0000 0.10997  0.81533  0.41733  Biso   1.000  C
  C24      1.0000 0.10837  0.78653  0.06333  Biso   1.000  C
  Ni9      1.0000 0.72387  0.02881  0.71837  Biso   1.000  Ni
  P9       1.0000 0.75937  0.05312  0.23957  Biso   1.000  P
  O25      1.0000 0.81393  0.05257  0.18517  Biso   1.000  O
  O26      1.0000 0.71313  0.03607  0.03587  Biso   1.000  O
  O27      1.0000 0.71943  0.00557  0.39547  Biso   1.000  O
  N9       1.0000 0.78283  0.10997  0.63727  Biso   1.000  N
  C25      1.0000 0.84643  0.12297  0.65267  Biso   1.000  C
  C26      1.0000 0.77663  0.14867  0.75067  Biso   1.000  C
  C27      1.0000 0.77503  0.11987  0.39667  Biso   1.000  C
  Ni10     1.0000 0.36214  0.97160  0.94830  Biso   1.000  Ni
  P10      1.0000 0.38645  0.96041  0.42710  Biso   1.000  P
  O28      1.0000 0.38590  0.90530  0.48150  Biso   1.000  O
  O29      1.0000 0.36940  0.98960  0.63080  Biso   1.000  O
  O30      1.0000 0.33890  0.95280  0.27120  Biso   1.000  O
  N10      1.0000 0.44330  0.99380  0.02940  Biso   1.000  N
  C28      1.0000 0.45630  0.94320  0.01400  Biso   1.000  C
  C29      1.0000 0.48200  0.03870  0.91600  Biso   1.000  C
  C30      1.0000 0.45320  0.01150  0.27000  Biso   1.000  C
  Ni11     1.0000 0.02881  0.30493  0.28163  Biso   1.000  Ni
  P11      1.0000 0.05312  0.29374  0.76043  Biso   1.000  P
  O31      1.0000 0.05257  0.23863  0.81483  Biso   1.000  O
  O32      1.0000 0.03607  0.32293  0.96413  Biso   1.000  O
  O33      1.0000 0.00557  0.28613  0.60453  Biso   1.000  O
  N11      1.0000 0.10997  0.32713  0.36273  Biso   1.000  N
  C31      1.0000 0.12297  0.27653  0.34733  Biso   1.000  C
  C32      1.0000 0.14867  0.37203  0.24933  Biso   1.000  C
  C33      1.0000 0.11987  0.34483  0.60333  Biso   1.000  C
  Ni12     1.0000 0.69547  0.63827  0.61497  Biso   1.000  Ni
  P12      1.0000 0.71978  0.62708  0.09377  Biso   1.000  P
  O34      1.0000 0.71923  0.57197  0.14817  Biso   1.000  O
  O35      1.0000 0.70273  0.65627  0.29747  Biso   1.000  O
  O36      1.0000 0.67223  0.61947  0.93787  Biso   1.000  O
  N12      1.0000 0.77663  0.66047  0.69607  Biso   1.000  N
  C34      1.0000 0.78963  0.60987  0.68067  Biso   1.000  C
  C35      1.0000 0.81533  0.70537  0.58267  Biso   1.000  C
  C36      1.0000 0.78653  0.67817  0.93667  Biso   1.000  C
  Ni13     1.0000 0.02840  0.39054  0.94830  Biso   1.000  Ni
  P13      1.0000 0.03959  0.42604  0.42710  Biso   1.000  P
  O37      1.0000 0.09470  0.48060  0.48150  Biso   1.000  O
  O38      1.0000 0.01040  0.37980  0.63080  Biso   1.000  O
  O39      1.0000 0.04720  0.38610  0.27120  Biso   1.000  O
  N13      1.0000 0.00620  0.44950  0.02940  Biso   1.000  N
  C37      1.0000 0.05680  0.51310  0.01400  Biso   1.000  C
  C38      1.0000 0.96130  0.44330  0.91600  Biso   1.000  C
  C39      1.0000 0.98850  0.44170  0.27000  Biso   1.000  C
  Ni14     1.0000 0.69507  0.72387  0.28163  Biso   1.000  Ni
  P14      1.0000 0.70626  0.75937  0.76043  Biso   1.000  P
  O40      1.0000 0.76137  0.81393  0.81483  Biso   1.000  O
  O41      1.0000 0.67707  0.71313  0.96413  Biso   1.000  O
  O42      1.0000 0.71387  0.71943  0.60453  Biso   1.000  O
  N14      1.0000 0.67287  0.78283  0.36273  Biso   1.000  N
  C40      1.0000 0.72347  0.84643  0.34733  Biso   1.000  C
  C41      1.0000 0.62797  0.77663  0.24933  Biso   1.000  C
  C42      1.0000 0.65517  0.77503  0.60333  Biso   1.000  C
  Ni15     1.0000 0.36173  0.05721  0.61497  Biso   1.000  Ni
  P15      1.0000 0.37292  0.09271  0.09377  Biso   1.000  P
  O43      1.0000 0.42803  0.14727  0.14817  Biso   1.000  O
  O44      1.0000 0.34373  0.04647  0.29747  Biso   1.000  O
  O45      1.0000 0.38053  0.05277  0.93787  Biso   1.000  O
  N15      1.0000 0.33953  0.11617  0.69607  Biso   1.000  N
  C43      1.0000 0.39013  0.17977  0.68067  Biso   1.000  C
  C44      1.0000 0.29463  0.10997  0.58267  Biso   1.000  C
  C45      1.0000 0.32183  0.10837  0.93667  Biso   1.000  C
  Ni16     1.0000 0.60946  0.63786  0.94830  Biso   1.000  Ni
  P16      1.0000 0.57396  0.61355  0.42710  Biso   1.000  P
  O46      1.0000 0.51940  0.61410  0.48150  Biso   1.000  O
  O47      1.0000 0.62020  0.63060  0.63080  Biso   1.000  O
  O48      1.0000 0.61390  0.66110  0.27120  Biso   1.000  O
  N16      1.0000 0.55050  0.55670  0.02940  Biso   1.000  N
  C46      1.0000 0.48690  0.54370  0.01400  Biso   1.000  C
  C47      1.0000 0.55670  0.51800  0.91600  Biso   1.000  C
  C48      1.0000 0.55830  0.54680  0.27000  Biso   1.000  C
  Ni17     1.0000 0.27613  0.97119  0.28163  Biso   1.000  Ni
  P17      1.0000 0.24063  0.94688  0.76043  Biso   1.000  P
  O49      1.0000 0.18607  0.94743  0.81483  Biso   1.000  O
  O50      1.0000 0.28687  0.96393  0.96413  Biso   1.000  O
  O51      1.0000 0.28057  0.99443  0.60453  Biso   1.000  O
  N17      1.0000 0.21717  0.89003  0.36273  Biso   1.000  N
  C49      1.0000 0.15357  0.87703  0.34733  Biso   1.000  C
  C50      1.0000 0.22337  0.85133  0.24933  Biso   1.000  C
  C51      1.0000 0.22497  0.88013  0.60333  Biso   1.000  C
  Ni18     1.0000 0.94279  0.30453  0.61497  Biso   1.000  Ni
  P18      1.0000 0.90729  0.28022  0.09377  Biso   1.000  P
  O52      1.0000 0.85273  0.28077  0.14817  Biso   1.000  O
  O53      1.0000 0.95353  0.29727  0.29747  Biso   1.000  O
  O54      1.0000 0.94723  0.32777  0.93787  Biso   1.000  O
  N18      1.0000 0.88383  0.22337  0.69607  Biso   1.000  N
  C52      1.0000 0.82023  0.21037  0.68067  Biso   1.000  C
  C53      1.0000 0.89003  0.18467  0.58267  Biso   1.000  C
  C54      1.0000 0.89163  0.21347  0.93667  Biso   1.000  C
