data_image0
_cell_length_a       15.6289
_cell_length_b       15.6289
_cell_length_c       15.6289
_cell_angle_alpha    90
_cell_angle_beta     90
_cell_angle_gamma    90

_symmetry_space_group_name_H-M    "P 1"
_symmetry_int_tables_number       1

loop_
  _symmetry_equiv_pos_as_xyz
  'x, y, z'

loop_
  _atom_site_label
  _atom_site_occupancy
  _atom_site_fract_x
  _atom_site_fract_y
  _atom_site_fract_z
  _atom_site_thermal_displace_type
  _atom_site_B_iso_or_equiv
  _atom_site_type_symbol
  N1       1.0000 0.50020  0.69960  0.87930  Biso   1.000  N
  N2       1.0000 0.42971  0.67322  0.92230  Biso   1.000  N
  C1       1.0000 0.47190  0.75200  0.82120  Biso   1.000  C
  H1       1.0000 0.50690  0.77940  0.78160  Biso   1.000  H
  C2       1.0000 0.38310  0.76270  0.82470  Biso   1.000  C
  H2       1.0000 0.34880  0.79680  0.79010  Biso   1.000  H
  C3       1.0000 0.35860  0.71110  0.89120  Biso   1.000  C
  H3       1.0000 0.30310  0.70360  0.91130  Biso   1.000  H
  C4       1.0000 0.43570  0.61520  0.99230  Biso   1.000  C
  C5       1.0000 0.50180  0.62350  0.05010  Biso   1.000  C
  H4       1.0000 0.53700  0.66780  0.03900  Biso   1.000  H
  N3       1.0000 0.99980  0.30040  0.37930  Biso   1.000  N
  N4       1.0000 0.07029  0.32678  0.42230  Biso   1.000  N
  C6       1.0000 0.02810  0.24800  0.32120  Biso   1.000  C
  H5       1.0000 0.99310  0.22060  0.28160  Biso   1.000  H
  C7       1.0000 0.11690  0.23730  0.32470  Biso   1.000  C
  H6       1.0000 0.15120  0.20320  0.29010  Biso   1.000  H
  C8       1.0000 0.14140  0.28890  0.39120  Biso   1.000  C
  H7       1.0000 0.19690  0.29640  0.41130  Biso   1.000  H
  C9       1.0000 0.06430  0.38480  0.49230  Biso   1.000  C
  C10      1.0000 0.99820  0.37650  0.55010  Biso   1.000  C
  H8       1.0000 0.96300  0.33220  0.53900  Biso   1.000  H
  N5       1.0000 0.49980  0.19960  0.62070  Biso   1.000  N
  N6       1.0000 0.57029  0.17322  0.57770  Biso   1.000  N
  C11      1.0000 0.52810  0.25200  0.67880  Biso   1.000  C
  H9       1.0000 0.49310  0.27940  0.71840  Biso   1.000  H
  C12      1.0000 0.61690  0.26270  0.67530  Biso   1.000  C
  H10      1.0000 0.65120  0.29680  0.70990  Biso   1.000  H
  C13      1.0000 0.64140  0.21110  0.60880  Biso   1.000  C
  H11      1.0000 0.69690  0.20360  0.58870  Biso   1.000  H
  C14      1.0000 0.56430  0.11520  0.50770  Biso   1.000  C
  C15      1.0000 0.49820  0.12350  0.44990  Biso   1.000  C
  H12      1.0000 0.46300  0.16780  0.46100  Biso   1.000  H
  N7       1.0000 0.00020  0.80040  0.12070  Biso   1.000  N
  N8       1.0000 0.92971  0.82678  0.07770  Biso   1.000  N
  C16      1.0000 0.97190  0.74800  0.17880  Biso   1.000  C
  H13      1.0000 0.00690  0.72060  0.21840  Biso   1.000  H
  C17      1.0000 0.88310  0.73730  0.17530  Biso   1.000  C
  H14      1.0000 0.84880  0.70320  0.20990  Biso   1.000  H
  C18      1.0000 0.85860  0.78890  0.10880  Biso   1.000  C
  H15      1.0000 0.80310  0.79640  0.08870  Biso   1.000  H
  C19      1.0000 0.93570  0.88480  0.00770  Biso   1.000  C
  C20      1.0000 0.00180  0.87650  0.94990  Biso   1.000  C
  H16      1.0000 0.03700  0.83220  0.96100  Biso   1.000  H
  N9       1.0000 0.87930  0.50020  0.69960  Biso   1.000  N
  N10      1.0000 0.92230  0.42971  0.67322  Biso   1.000  N
  C21      1.0000 0.82120  0.47190  0.75200  Biso   1.000  C
  H17      1.0000 0.78160  0.50690  0.77940  Biso   1.000  H
  C22      1.0000 0.82470  0.38310  0.76270  Biso   1.000  C
  H18      1.0000 0.79010  0.34880  0.79680  Biso   1.000  H
  C23      1.0000 0.89120  0.35860  0.71110  Biso   1.000  C
  H19      1.0000 0.91130  0.30310  0.70360  Biso   1.000  H
  C24      1.0000 0.99230  0.43570  0.61520  Biso   1.000  C
  C25      1.0000 0.05010  0.50180  0.62350  Biso   1.000  C
  H20      1.0000 0.03900  0.53700  0.66780  Biso   1.000  H
  N11      1.0000 0.37930  0.99980  0.30040  Biso   1.000  N
  N12      1.0000 0.42230  0.07029  0.32678  Biso   1.000  N
  C26      1.0000 0.32120  0.02810  0.24800  Biso   1.000  C
  H21      1.0000 0.28160  0.99310  0.22060  Biso   1.000  H
  C27      1.0000 0.32470  0.11690  0.23730  Biso   1.000  C
  H22      1.0000 0.29010  0.15120  0.20320  Biso   1.000  H
  C28      1.0000 0.39120  0.14140  0.28890  Biso   1.000  C
  H23      1.0000 0.41130  0.19690  0.29640  Biso   1.000  H
  C29      1.0000 0.49230  0.06430  0.38480  Biso   1.000  C
  C30      1.0000 0.55010  0.99820  0.37650  Biso   1.000  C
  H24      1.0000 0.53900  0.96300  0.33220  Biso   1.000  H
  N13      1.0000 0.62070  0.49980  0.19960  Biso   1.000  N
  N14      1.0000 0.57770  0.57029  0.17322  Biso   1.000  N
  C31      1.0000 0.67880  0.52810  0.25200  Biso   1.000  C
  H25      1.0000 0.71840  0.49310  0.27940  Biso   1.000  H
  C32      1.0000 0.67530  0.61690  0.26270  Biso   1.000  C
  H26      1.0000 0.70990  0.65120  0.29680  Biso   1.000  H
  C33      1.0000 0.60880  0.64140  0.21110  Biso   1.000  C
  H27      1.0000 0.58870  0.69690  0.20360  Biso   1.000  H
  C34      1.0000 0.50770  0.56430  0.11520  Biso   1.000  C
  C35      1.0000 0.44990  0.49820  0.12350  Biso   1.000  C
  H28      1.0000 0.46100  0.46300  0.16780  Biso   1.000  H
  N15      1.0000 0.12070  0.00020  0.80040  Biso   1.000  N
  N16      1.0000 0.07770  0.92971  0.82678  Biso   1.000  N
  C36      1.0000 0.17880  0.97190  0.74800  Biso   1.000  C
  H29      1.0000 0.21840  0.00690  0.72060  Biso   1.000  H
  C37      1.0000 0.17530  0.88310  0.73730  Biso   1.000  C
  H30      1.0000 0.20990  0.84880  0.70320  Biso   1.000  H
  C38      1.0000 0.10880  0.85860  0.78890  Biso   1.000  C
  H31      1.0000 0.08870  0.80310  0.79640  Biso   1.000  H
  C39      1.0000 0.00770  0.93570  0.88480  Biso   1.000  C
  C40      1.0000 0.94990  0.00180  0.87650  Biso   1.000  C
  H32      1.0000 0.96100  0.03700  0.83220  Biso   1.000  H
  N17      1.0000 0.69960  0.87930  0.50020  Biso   1.000  N
  N18      1.0000 0.67322  0.92230  0.42971  Biso   1.000  N
  C41      1.0000 0.75200  0.82120  0.47190  Biso   1.000  C
  H33      1.0000 0.77940  0.78160  0.50690  Biso   1.000  H
  C42      1.0000 0.76270  0.82470  0.38310  Biso   1.000  C
  H34      1.0000 0.79680  0.79010  0.34880  Biso   1.000  H
  C43      1.0000 0.71110  0.89120  0.35860  Biso   1.000  C
  H35      1.0000 0.70360  0.91130  0.30310  Biso   1.000  H
  C44      1.0000 0.61520  0.99230  0.43570  Biso   1.000  C
  C45      1.0000 0.62350  0.05010  0.50180  Biso   1.000  C
  H36      1.0000 0.66780  0.03900  0.53700  Biso   1.000  H
  N19      1.0000 0.30040  0.37930  0.99980  Biso   1.000  N
  N20      1.0000 0.32678  0.42230  0.07029  Biso   1.000  N
  C46      1.0000 0.24800  0.32120  0.02810  Biso   1.000  C
  H37      1.0000 0.22060  0.28160  0.99310  Biso   1.000  H
  C47      1.0000 0.23730  0.32470  0.11690  Biso   1.000  C
  H38      1.0000 0.20320  0.29010  0.15120  Biso   1.000  H
  C48      1.0000 0.28890  0.39120  0.14140  Biso   1.000  C
  H39      1.0000 0.29640  0.41130  0.19690  Biso   1.000  H
  C49      1.0000 0.38480  0.49230  0.06430  Biso   1.000  C
  C50      1.0000 0.37650  0.55010  0.99820  Biso   1.000  C
  H40      1.0000 0.33220  0.53900  0.96300  Biso   1.000  H
  N21      1.0000 0.19960  0.62070  0.49980  Biso   1.000  N
  N22      1.0000 0.17322  0.57770  0.57029  Biso   1.000  N
  C51      1.0000 0.25200  0.67880  0.52810  Biso   1.000  C
  H41      1.0000 0.27940  0.71840  0.49310  Biso   1.000  H
  C52      1.0000 0.26270  0.67530  0.61690  Biso   1.000  C
  H42      1.0000 0.29680  0.70990  0.65120  Biso   1.000  H
  C53      1.0000 0.21110  0.60880  0.64140  Biso   1.000  C
  H43      1.0000 0.20360  0.58870  0.69690  Biso   1.000  H
  C54      1.0000 0.11520  0.50770  0.56430  Biso   1.000  C
  C55      1.0000 0.12350  0.44990  0.49820  Biso   1.000  C
  H44      1.0000 0.16780  0.46100  0.46300  Biso   1.000  H
  N23      1.0000 0.80040  0.12070  0.00020  Biso   1.000  N
  N24      1.0000 0.82678  0.07770  0.92971  Biso   1.000  N
  C56      1.0000 0.74800  0.17880  0.97190  Biso   1.000  C
  H45      1.0000 0.72060  0.21840  0.00690  Biso   1.000  H
  C57      1.0000 0.73730  0.17530  0.88310  Biso   1.000  C
  H46      1.0000 0.70320  0.20990  0.84880  Biso   1.000  H
  C58      1.0000 0.78890  0.10880  0.85860  Biso   1.000  C
  H47      1.0000 0.79640  0.08870  0.80310  Biso   1.000  H
  C59      1.0000 0.88480  0.00770  0.93570  Biso   1.000  C
  C60      1.0000 0.87650  0.94990  0.00180  Biso   1.000  C
  H48      1.0000 0.83220  0.96100  0.03700  Biso   1.000  H
  N25      1.0000 0.44960  0.75020  0.37070  Biso   1.000  N
  N26      1.0000 0.42322  0.67971  0.32770  Biso   1.000  N
  C61      1.0000 0.50200  0.72190  0.42880  Biso   1.000  C
  H49      1.0000 0.52940  0.75690  0.46840  Biso   1.000  H
  C62      1.0000 0.51270  0.63310  0.42530  Biso   1.000  C
  H50      1.0000 0.54680  0.59880  0.45990  Biso   1.000  H
  C63      1.0000 0.46110  0.60860  0.35880  Biso   1.000  C
  H51      1.0000 0.45360  0.55310  0.33870  Biso   1.000  H
  C64      1.0000 0.36520  0.68570  0.25770  Biso   1.000  C
  C65      1.0000 0.37350  0.75180  0.19990  Biso   1.000  C
  H52      1.0000 0.41780  0.78700  0.21100  Biso   1.000  H
  N27      1.0000 0.05040  0.24980  0.87070  Biso   1.000  N
  N28      1.0000 0.07678  0.32029  0.82770  Biso   1.000  N
  C66      1.0000 0.99800  0.27810  0.92880  Biso   1.000  C
  H53      1.0000 0.97060  0.24310  0.96840  Biso   1.000  H
  C67      1.0000 0.98730  0.36690  0.92530  Biso   1.000  C
  H54      1.0000 0.95320  0.40120  0.95990  Biso   1.000  H
  C68      1.0000 0.03890  0.39140  0.85880  Biso   1.000  C
  H55      1.0000 0.04640  0.44690  0.83870  Biso   1.000  H
  C69      1.0000 0.13480  0.31430  0.75770  Biso   1.000  C
  C70      1.0000 0.12650  0.24820  0.69990  Biso   1.000  C
  H56      1.0000 0.08220  0.21300  0.71100  Biso   1.000  H
  N29      1.0000 0.94960  0.74980  0.62930  Biso   1.000  N
  N30      1.0000 0.92322  0.82029  0.67230  Biso   1.000  N
  C71      1.0000 0.00200  0.77810  0.57120  Biso   1.000  C
  H57      1.0000 0.02940  0.74310  0.53160  Biso   1.000  H
  C72      1.0000 0.01270  0.86690  0.57470  Biso   1.000  C
  H58      1.0000 0.04680  0.90120  0.54010  Biso   1.000  H
  C73      1.0000 0.96110  0.89140  0.64120  Biso   1.000  C
  H59      1.0000 0.95360  0.94690  0.66130  Biso   1.000  H
  C74      1.0000 0.86520  0.81430  0.74230  Biso   1.000  C
  C75      1.0000 0.87350  0.74820  0.80010  Biso   1.000  C
  H60      1.0000 0.91780  0.71300  0.78900  Biso   1.000  H
  N31      1.0000 0.55040  0.25020  0.12930  Biso   1.000  N
  N32      1.0000 0.57678  0.17971  0.17230  Biso   1.000  N
  C76      1.0000 0.49800  0.22190  0.07120  Biso   1.000  C
  H61      1.0000 0.47060  0.25690  0.03160  Biso   1.000  H
  C77      1.0000 0.48730  0.13310  0.07470  Biso   1.000  C
  H62      1.0000 0.45320  0.09880  0.04010  Biso   1.000  H
  C78      1.0000 0.53890  0.10860  0.14120  Biso   1.000  C
  H63      1.0000 0.54640  0.05310  0.16130  Biso   1.000  H
  C79      1.0000 0.63480  0.18570  0.24230  Biso   1.000  C
  C80      1.0000 0.62650  0.25180  0.30010  Biso   1.000  C
  H64      1.0000 0.58220  0.28700  0.28900  Biso   1.000  H
  N33      1.0000 0.25020  0.12930  0.55040  Biso   1.000  N
  N34      1.0000 0.17971  0.17230  0.57678  Biso   1.000  N
  C81      1.0000 0.22190  0.07120  0.49800  Biso   1.000  C
  H65      1.0000 0.25690  0.03160  0.47060  Biso   1.000  H
  C82      1.0000 0.13310  0.07470  0.48730  Biso   1.000  C
  H66      1.0000 0.09880  0.04010  0.45320  Biso   1.000  H
  C83      1.0000 0.10860  0.14120  0.53890  Biso   1.000  C
  H67      1.0000 0.05310  0.16130  0.54640  Biso   1.000  H
  C84      1.0000 0.18570  0.24230  0.63480  Biso   1.000  C
  C85      1.0000 0.25180  0.30010  0.62650  Biso   1.000  C
  H68      1.0000 0.28700  0.28900  0.58220  Biso   1.000  H
  N35      1.0000 0.74980  0.62930  0.94960  Biso   1.000  N
  N36      1.0000 0.82029  0.67230  0.92322  Biso   1.000  N
  C86      1.0000 0.77810  0.57120  0.00200  Biso   1.000  C
  H69      1.0000 0.74310  0.53160  0.02940  Biso   1.000  H
  C87      1.0000 0.86690  0.57470  0.01270  Biso   1.000  C
  H70      1.0000 0.90120  0.54010  0.04680  Biso   1.000  H
  C88      1.0000 0.89140  0.64120  0.96110  Biso   1.000  C
  H71      1.0000 0.94690  0.66130  0.95360  Biso   1.000  H
  C89      1.0000 0.81430  0.74230  0.86520  Biso   1.000  C
  C90      1.0000 0.74820  0.80010  0.87350  Biso   1.000  C
  H72      1.0000 0.71300  0.78900  0.91780  Biso   1.000  H
  N37      1.0000 0.24980  0.87070  0.05040  Biso   1.000  N
  N38      1.0000 0.32029  0.82770  0.07678  Biso   1.000  N
  C91      1.0000 0.27810  0.92880  0.99800  Biso   1.000  C
  H73      1.0000 0.24310  0.96840  0.97060  Biso   1.000  H
  C92      1.0000 0.36690  0.92530  0.98730  Biso   1.000  C
  H74      1.0000 0.40120  0.95990  0.95320  Biso   1.000  H
  C93      1.0000 0.39140  0.85880  0.03890  Biso   1.000  C
  H75      1.0000 0.44690  0.83870  0.04640  Biso   1.000  H
  C94      1.0000 0.31430  0.75770  0.13480  Biso   1.000  C
  C95      1.0000 0.24820  0.69990  0.12650  Biso   1.000  C
  H76      1.0000 0.21300  0.71100  0.08220  Biso   1.000  H
  N39      1.0000 0.75020  0.37070  0.44960  Biso   1.000  N
  N40      1.0000 0.67971  0.32770  0.42322  Biso   1.000  N
  C96      1.0000 0.72190  0.42880  0.50200  Biso   1.000  C
  H77      1.0000 0.75690  0.46840  0.52940  Biso   1.000  H
  C97      1.0000 0.63310  0.42530  0.51270  Biso   1.000  C
  H78      1.0000 0.59880  0.45990  0.54680  Biso   1.000  H
  C98      1.0000 0.60860  0.35880  0.46110  Biso   1.000  C
  H79      1.0000 0.55310  0.33870  0.45360  Biso   1.000  H
  C99      1.0000 0.68570  0.25770  0.36520  Biso   1.000  C
  C100     1.0000 0.75180  0.19990  0.37350  Biso   1.000  C
  H80      1.0000 0.78700  0.21100  0.41780  Biso   1.000  H
  N41      1.0000 0.62930  0.94960  0.74980  Biso   1.000  N
  N42      1.0000 0.67230  0.92322  0.82029  Biso   1.000  N
  C101     1.0000 0.57120  0.00200  0.77810  Biso   1.000  C
  H81      1.0000 0.53160  0.02940  0.74310  Biso   1.000  H
  C102     1.0000 0.57470  0.01270  0.86690  Biso   1.000  C
  H82      1.0000 0.54010  0.04680  0.90120  Biso   1.000  H
  C103     1.0000 0.64120  0.96110  0.89140  Biso   1.000  C
  H83      1.0000 0.66130  0.95360  0.94690  Biso   1.000  H
  C104     1.0000 0.74230  0.86520  0.81430  Biso   1.000  C
  C105     1.0000 0.80010  0.87350  0.74820  Biso   1.000  C
  H84      1.0000 0.78900  0.91780  0.71300  Biso   1.000  H
  N43      1.0000 0.12930  0.55040  0.25020  Biso   1.000  N
  N44      1.0000 0.17230  0.57678  0.17971  Biso   1.000  N
  C106     1.0000 0.07120  0.49800  0.22190  Biso   1.000  C
  H85      1.0000 0.03160  0.47060  0.25690  Biso   1.000  H
  C107     1.0000 0.07470  0.48730  0.13310  Biso   1.000  C
  H86      1.0000 0.04010  0.45320  0.09880  Biso   1.000  H
  C108     1.0000 0.14120  0.53890  0.10860  Biso   1.000  C
  H87      1.0000 0.16130  0.54640  0.05310  Biso   1.000  H
  C109     1.0000 0.24230  0.63480  0.18570  Biso   1.000  C
  C110     1.0000 0.30010  0.62650  0.25180  Biso   1.000  C
  H88      1.0000 0.28900  0.58220  0.28700  Biso   1.000  H
  N45      1.0000 0.37070  0.44960  0.75020  Biso   1.000  N
  N46      1.0000 0.32770  0.42322  0.67971  Biso   1.000  N
  C111     1.0000 0.42880  0.50200  0.72190  Biso   1.000  C
  H89      1.0000 0.46840  0.52940  0.75690  Biso   1.000  H
  C112     1.0000 0.42530  0.51270  0.63310  Biso   1.000  C
  H90      1.0000 0.45990  0.54680  0.59880  Biso   1.000  H
  C113     1.0000 0.35880  0.46110  0.60860  Biso   1.000  C
  H91      1.0000 0.33870  0.45360  0.55310  Biso   1.000  H
  C114     1.0000 0.25770  0.36520  0.68570  Biso   1.000  C
  C115     1.0000 0.19990  0.37350  0.75180  Biso   1.000  C
  H92      1.0000 0.21100  0.41780  0.78700  Biso   1.000  H
  N47      1.0000 0.87070  0.05040  0.24980  Biso   1.000  N
  N48      1.0000 0.82770  0.07678  0.32029  Biso   1.000  N
  C116     1.0000 0.92880  0.99800  0.27810  Biso   1.000  C
  H93      1.0000 0.96840  0.97060  0.24310  Biso   1.000  H
  C117     1.0000 0.92530  0.98730  0.36690  Biso   1.000  C
  H94      1.0000 0.95990  0.95320  0.40120  Biso   1.000  H
  C118     1.0000 0.85880  0.03890  0.39140  Biso   1.000  C
  H95      1.0000 0.83870  0.04640  0.44690  Biso   1.000  H
  C119     1.0000 0.75770  0.13480  0.31430  Biso   1.000  C
  C120     1.0000 0.69990  0.12650  0.24820  Biso   1.000  C
  H96      1.0000 0.71100  0.08220  0.21300  Biso   1.000  H
  Ag1      1.0000 0.62500  0.64128  0.89128  Biso   1.000  Ag
  Ag2      1.0000 0.87500  0.35872  0.39128  Biso   1.000  Ag
  Ag3      1.0000 0.37500  0.14128  0.60872  Biso   1.000  Ag
  Ag4      1.0000 0.12500  0.85872  0.10872  Biso   1.000  Ag
  Ag5      1.0000 0.89128  0.62500  0.64128  Biso   1.000  Ag
  Ag6      1.0000 0.39128  0.87500  0.35872  Biso   1.000  Ag
  Ag7      1.0000 0.60872  0.37500  0.14128  Biso   1.000  Ag
  Ag8      1.0000 0.10872  0.12500  0.85872  Biso   1.000  Ag
  Ag9      1.0000 0.64128  0.89128  0.62500  Biso   1.000  Ag
  Ag10     1.0000 0.35872  0.39128  0.87500  Biso   1.000  Ag
  Ag11     1.0000 0.14128  0.60872  0.37500  Biso   1.000  Ag
  Ag12     1.0000 0.85872  0.10872  0.12500  Biso   1.000  Ag
