data_image0
_cell_length_a       15.188
_cell_length_b       15.188
_cell_length_c       15.188
_cell_angle_alpha    90
_cell_angle_beta     90
_cell_angle_gamma    90

_symmetry_space_group_name_H-M    "P 1"
_symmetry_int_tables_number       1

loop_
  _symmetry_equiv_pos_as_xyz
  'x, y, z'

loop_
  _atom_site_label
  _atom_site_occupancy
  _atom_site_fract_x
  _atom_site_fract_y
  _atom_site_fract_z
  _atom_site_thermal_displace_type
  _atom_site_B_iso_or_equiv
  _atom_site_type_symbol
  N1       1.0000 0.87590  0.95320  0.24880  Biso   1.000  N
  N2       1.0000 0.83304  0.92550  0.17620  Biso   1.000  N
  C1       1.0000 0.93380  0.01040  0.21840  Biso   1.000  C
  H1       1.0000 0.97340  0.04100  0.25370  Biso   1.000  H
  C2       1.0000 0.92900  0.01950  0.12880  Biso   1.000  C
  H2       1.0000 0.96300  0.05600  0.09330  Biso   1.000  H
  C3       1.0000 0.86430  0.96430  0.10320  Biso   1.000  C
  H3       1.0000 0.84500  0.95480  0.04590  Biso   1.000  H
  C4       1.0000 0.76120  0.86500  0.18420  Biso   1.000  C
  C5       1.0000 0.75310  0.79740  0.12430  Biso   1.000  C
  H4       1.0000 0.78400  0.79400  0.07400  Biso   1.000  H
  N3       1.0000 0.62410  0.04680  0.74880  Biso   1.000  N
  N4       1.0000 0.66696  0.07450  0.67620  Biso   1.000  N
  C6       1.0000 0.56620  0.98960  0.71840  Biso   1.000  C
  H5       1.0000 0.52660  0.95900  0.75370  Biso   1.000  H
  C7       1.0000 0.57100  0.98050  0.62880  Biso   1.000  C
  H6       1.0000 0.53700  0.94400  0.59330  Biso   1.000  H
  C8       1.0000 0.63570  0.03570  0.60320  Biso   1.000  C
  H7       1.0000 0.65500  0.04520  0.54590  Biso   1.000  H
  C9       1.0000 0.73880  0.13500  0.68420  Biso   1.000  C
  C10      1.0000 0.74690  0.20260  0.62430  Biso   1.000  C
  H8       1.0000 0.71600  0.20600  0.57400  Biso   1.000  H
  N5       1.0000 0.12410  0.45320  0.25120  Biso   1.000  N
  N6       1.0000 0.16696  0.42550  0.32380  Biso   1.000  N
  C11      1.0000 0.06620  0.51040  0.28160  Biso   1.000  C
  H9       1.0000 0.02660  0.54100  0.24630  Biso   1.000  H
  C12      1.0000 0.07100  0.51950  0.37120  Biso   1.000  C
  H10      1.0000 0.03700  0.55600  0.40670  Biso   1.000  H
  C13      1.0000 0.13570  0.46430  0.39680  Biso   1.000  C
  H11      1.0000 0.15500  0.45480  0.45410  Biso   1.000  H
  C14      1.0000 0.23880  0.36500  0.31580  Biso   1.000  C
  C15      1.0000 0.24690  0.29740  0.37570  Biso   1.000  C
  H12      1.0000 0.21600  0.29400  0.42600  Biso   1.000  H
  N7       1.0000 0.37590  0.54680  0.75120  Biso   1.000  N
  N8       1.0000 0.33304  0.57450  0.82380  Biso   1.000  N
  C16      1.0000 0.43380  0.48960  0.78160  Biso   1.000  C
  H13      1.0000 0.47340  0.45900  0.74630  Biso   1.000  H
  C17      1.0000 0.42900  0.48050  0.87120  Biso   1.000  C
  H14      1.0000 0.46300  0.44400  0.90670  Biso   1.000  H
  C18      1.0000 0.36430  0.53570  0.89680  Biso   1.000  C
  H15      1.0000 0.34500  0.54520  0.95410  Biso   1.000  H
  C19      1.0000 0.26120  0.63500  0.81580  Biso   1.000  C
  C20      1.0000 0.25310  0.70260  0.87570  Biso   1.000  C
  H16      1.0000 0.28400  0.70600  0.92600  Biso   1.000  H
  N9       1.0000 0.24880  0.87590  0.95320  Biso   1.000  N
  N10      1.0000 0.17620  0.83304  0.92550  Biso   1.000  N
  C21      1.0000 0.21840  0.93380  0.01040  Biso   1.000  C
  H17      1.0000 0.25370  0.97340  0.04100  Biso   1.000  H
  C22      1.0000 0.12880  0.92900  0.01950  Biso   1.000  C
  H18      1.0000 0.09330  0.96300  0.05600  Biso   1.000  H
  C23      1.0000 0.10320  0.86430  0.96430  Biso   1.000  C
  H19      1.0000 0.04590  0.84500  0.95480  Biso   1.000  H
  C24      1.0000 0.18420  0.76120  0.86500  Biso   1.000  C
  C25      1.0000 0.12430  0.75310  0.79740  Biso   1.000  C
  H20      1.0000 0.07400  0.78400  0.79400  Biso   1.000  H
  N11      1.0000 0.74880  0.62410  0.04680  Biso   1.000  N
  N12      1.0000 0.67620  0.66696  0.07450  Biso   1.000  N
  C26      1.0000 0.71840  0.56620  0.98960  Biso   1.000  C
  H21      1.0000 0.75370  0.52660  0.95900  Biso   1.000  H
  C27      1.0000 0.62880  0.57100  0.98050  Biso   1.000  C
  H22      1.0000 0.59330  0.53700  0.94400  Biso   1.000  H
  C28      1.0000 0.60320  0.63570  0.03570  Biso   1.000  C
  H23      1.0000 0.54590  0.65500  0.04520  Biso   1.000  H
  C29      1.0000 0.68420  0.73880  0.13500  Biso   1.000  C
  C30      1.0000 0.62430  0.74690  0.20260  Biso   1.000  C
  H24      1.0000 0.57400  0.71600  0.20600  Biso   1.000  H
  N13      1.0000 0.25120  0.12410  0.45320  Biso   1.000  N
  N14      1.0000 0.32380  0.16696  0.42550  Biso   1.000  N
  C31      1.0000 0.28160  0.06620  0.51040  Biso   1.000  C
  H25      1.0000 0.24630  0.02660  0.54100  Biso   1.000  H
  C32      1.0000 0.37120  0.07100  0.51950  Biso   1.000  C
  H26      1.0000 0.40670  0.03700  0.55600  Biso   1.000  H
  C33      1.0000 0.39680  0.13570  0.46430  Biso   1.000  C
  H27      1.0000 0.45410  0.15500  0.45480  Biso   1.000  H
  C34      1.0000 0.31580  0.23880  0.36500  Biso   1.000  C
  C35      1.0000 0.37570  0.24690  0.29740  Biso   1.000  C
  H28      1.0000 0.42600  0.21600  0.29400  Biso   1.000  H
  N15      1.0000 0.75120  0.37590  0.54680  Biso   1.000  N
  N16      1.0000 0.82380  0.33304  0.57450  Biso   1.000  N
  C36      1.0000 0.78160  0.43380  0.48960  Biso   1.000  C
  H29      1.0000 0.74630  0.47340  0.45900  Biso   1.000  H
  C37      1.0000 0.87120  0.42900  0.48050  Biso   1.000  C
  H30      1.0000 0.90670  0.46300  0.44400  Biso   1.000  H
  C38      1.0000 0.89680  0.36430  0.53570  Biso   1.000  C
  H31      1.0000 0.95410  0.34500  0.54520  Biso   1.000  H
  C39      1.0000 0.81580  0.26120  0.63500  Biso   1.000  C
  C40      1.0000 0.87570  0.25310  0.70260  Biso   1.000  C
  H32      1.0000 0.92600  0.28400  0.70600  Biso   1.000  H
  N17      1.0000 0.95320  0.24880  0.87590  Biso   1.000  N
  N18      1.0000 0.92550  0.17620  0.83304  Biso   1.000  N
  C41      1.0000 0.01040  0.21840  0.93380  Biso   1.000  C
  H33      1.0000 0.04100  0.25370  0.97340  Biso   1.000  H
  C42      1.0000 0.01950  0.12880  0.92900  Biso   1.000  C
  H34      1.0000 0.05600  0.09330  0.96300  Biso   1.000  H
  C43      1.0000 0.96430  0.10320  0.86430  Biso   1.000  C
  H35      1.0000 0.95480  0.04590  0.84500  Biso   1.000  H
  C44      1.0000 0.86500  0.18420  0.76120  Biso   1.000  C
  C45      1.0000 0.79740  0.12430  0.75310  Biso   1.000  C
  H36      1.0000 0.79400  0.07400  0.78400  Biso   1.000  H
  N19      1.0000 0.04680  0.74880  0.62410  Biso   1.000  N
  N20      1.0000 0.07450  0.67620  0.66696  Biso   1.000  N
  C46      1.0000 0.98960  0.71840  0.56620  Biso   1.000  C
  H37      1.0000 0.95900  0.75370  0.52660  Biso   1.000  H
  C47      1.0000 0.98050  0.62880  0.57100  Biso   1.000  C
  H38      1.0000 0.94400  0.59330  0.53700  Biso   1.000  H
  C48      1.0000 0.03570  0.60320  0.63570  Biso   1.000  C
  H39      1.0000 0.04520  0.54590  0.65500  Biso   1.000  H
  C49      1.0000 0.13500  0.68420  0.73880  Biso   1.000  C
  C50      1.0000 0.20260  0.62430  0.74690  Biso   1.000  C
  H40      1.0000 0.20600  0.57400  0.71600  Biso   1.000  H
  N21      1.0000 0.45320  0.25120  0.12410  Biso   1.000  N
  N22      1.0000 0.42550  0.32380  0.16696  Biso   1.000  N
  C51      1.0000 0.51040  0.28160  0.06620  Biso   1.000  C
  H41      1.0000 0.54100  0.24630  0.02660  Biso   1.000  H
  C52      1.0000 0.51950  0.37120  0.07100  Biso   1.000  C
  H42      1.0000 0.55600  0.40670  0.03700  Biso   1.000  H
  C53      1.0000 0.46430  0.39680  0.13570  Biso   1.000  C
  H43      1.0000 0.45480  0.45410  0.15500  Biso   1.000  H
  C54      1.0000 0.36500  0.31580  0.23880  Biso   1.000  C
  C55      1.0000 0.29740  0.37570  0.24690  Biso   1.000  C
  H44      1.0000 0.29400  0.42600  0.21600  Biso   1.000  H
  N23      1.0000 0.54680  0.75120  0.37590  Biso   1.000  N
  N24      1.0000 0.57450  0.82380  0.33304  Biso   1.000  N
  C56      1.0000 0.48960  0.78160  0.43380  Biso   1.000  C
  H45      1.0000 0.45900  0.74630  0.47340  Biso   1.000  H
  C57      1.0000 0.48050  0.87120  0.42900  Biso   1.000  C
  H46      1.0000 0.44400  0.90670  0.46300  Biso   1.000  H
  C58      1.0000 0.53570  0.89680  0.36430  Biso   1.000  C
  H47      1.0000 0.54520  0.95410  0.34500  Biso   1.000  H
  C59      1.0000 0.63500  0.81580  0.26120  Biso   1.000  C
  C60      1.0000 0.70260  0.87570  0.25310  Biso   1.000  C
  H48      1.0000 0.70600  0.92600  0.28400  Biso   1.000  H
  N25      1.0000 0.70320  0.12590  0.00120  Biso   1.000  N
  N26      1.0000 0.67550  0.08304  0.07380  Biso   1.000  N
  C61      1.0000 0.76040  0.18380  0.03160  Biso   1.000  C
  H49      1.0000 0.79100  0.22340  0.99630  Biso   1.000  H
  C62      1.0000 0.76950  0.17900  0.12120  Biso   1.000  C
  H50      1.0000 0.80600  0.21300  0.15670  Biso   1.000  H
  C63      1.0000 0.71430  0.11430  0.14680  Biso   1.000  C
  H51      1.0000 0.70480  0.09500  0.20410  Biso   1.000  H
  C64      1.0000 0.61500  0.01120  0.06580  Biso   1.000  C
  C65      1.0000 0.54740  0.00310  0.12570  Biso   1.000  C
  H52      1.0000 0.54400  0.03400  0.17600  Biso   1.000  H
  N27      1.0000 0.79680  0.87410  0.50120  Biso   1.000  N
  N28      1.0000 0.82450  0.91696  0.57380  Biso   1.000  N
  C66      1.0000 0.73960  0.81620  0.53160  Biso   1.000  C
  H53      1.0000 0.70900  0.77660  0.49630  Biso   1.000  H
  C67      1.0000 0.73050  0.82100  0.62120  Biso   1.000  C
  H54      1.0000 0.69400  0.78700  0.65670  Biso   1.000  H
  C68      1.0000 0.78570  0.88570  0.64680  Biso   1.000  C
  H55      1.0000 0.79520  0.90500  0.70410  Biso   1.000  H
  C69      1.0000 0.88500  0.98880  0.56580  Biso   1.000  C
  C70      1.0000 0.95260  0.99690  0.62570  Biso   1.000  C
  H56      1.0000 0.95600  0.96600  0.67600  Biso   1.000  H
  N29      1.0000 0.20320  0.37410  0.99880  Biso   1.000  N
  N30      1.0000 0.17550  0.41696  0.92620  Biso   1.000  N
  C71      1.0000 0.26040  0.31620  0.96840  Biso   1.000  C
  H57      1.0000 0.29100  0.27660  0.00370  Biso   1.000  H
  C72      1.0000 0.26950  0.32100  0.87880  Biso   1.000  C
  H58      1.0000 0.30600  0.28700  0.84330  Biso   1.000  H
  C73      1.0000 0.21430  0.38570  0.85320  Biso   1.000  C
  H59      1.0000 0.20480  0.40500  0.79590  Biso   1.000  H
  C74      1.0000 0.11500  0.48880  0.93420  Biso   1.000  C
  C75      1.0000 0.04740  0.49690  0.87430  Biso   1.000  C
  H60      1.0000 0.04400  0.46600  0.82400  Biso   1.000  H
  N31      1.0000 0.29680  0.62590  0.49880  Biso   1.000  N
  N32      1.0000 0.32450  0.58304  0.42620  Biso   1.000  N
  C76      1.0000 0.23960  0.68380  0.46840  Biso   1.000  C
  H61      1.0000 0.20900  0.72340  0.50370  Biso   1.000  H
  C77      1.0000 0.23050  0.67900  0.37880  Biso   1.000  C
  H62      1.0000 0.19400  0.71300  0.34330  Biso   1.000  H
  C78      1.0000 0.28570  0.61430  0.35320  Biso   1.000  C
  H63      1.0000 0.29520  0.59500  0.29590  Biso   1.000  H
  C79      1.0000 0.38500  0.51120  0.43420  Biso   1.000  C
  C80      1.0000 0.45260  0.50310  0.37430  Biso   1.000  C
  H64      1.0000 0.45600  0.53400  0.32400  Biso   1.000  H
  N33      1.0000 0.62590  0.49880  0.29680  Biso   1.000  N
  N34      1.0000 0.58304  0.42620  0.32450  Biso   1.000  N
  C81      1.0000 0.68380  0.46840  0.23960  Biso   1.000  C
  H65      1.0000 0.72340  0.50370  0.20900  Biso   1.000  H
  C82      1.0000 0.67900  0.37880  0.23050  Biso   1.000  C
  H66      1.0000 0.71300  0.34330  0.19400  Biso   1.000  H
  C83      1.0000 0.61430  0.35320  0.28570  Biso   1.000  C
  H67      1.0000 0.59500  0.29590  0.29520  Biso   1.000  H
  C84      1.0000 0.51120  0.43420  0.38500  Biso   1.000  C
  C85      1.0000 0.50310  0.37430  0.45260  Biso   1.000  C
  H68      1.0000 0.53400  0.32400  0.45600  Biso   1.000  H
  N35      1.0000 0.37410  0.99880  0.20320  Biso   1.000  N
  N36      1.0000 0.41696  0.92620  0.17550  Biso   1.000  N
  C86      1.0000 0.31620  0.96840  0.26040  Biso   1.000  C
  H69      1.0000 0.27660  0.00370  0.29100  Biso   1.000  H
  C87      1.0000 0.32100  0.87880  0.26950  Biso   1.000  C
  H70      1.0000 0.28700  0.84330  0.30600  Biso   1.000  H
  C88      1.0000 0.38570  0.85320  0.21430  Biso   1.000  C
  H71      1.0000 0.40500  0.79590  0.20480  Biso   1.000  H
  C89      1.0000 0.48880  0.93420  0.11500  Biso   1.000  C
  C90      1.0000 0.49690  0.87430  0.04740  Biso   1.000  C
  H72      1.0000 0.46600  0.82400  0.04400  Biso   1.000  H
  N37      1.0000 0.87410  0.50120  0.79680  Biso   1.000  N
  N38      1.0000 0.91696  0.57380  0.82450  Biso   1.000  N
  C91      1.0000 0.81620  0.53160  0.73960  Biso   1.000  C
  H73      1.0000 0.77660  0.49630  0.70900  Biso   1.000  H
  C92      1.0000 0.82100  0.62120  0.73050  Biso   1.000  C
  H74      1.0000 0.78700  0.65670  0.69400  Biso   1.000  H
  C93      1.0000 0.88570  0.64680  0.78570  Biso   1.000  C
  H75      1.0000 0.90500  0.70410  0.79520  Biso   1.000  H
  C94      1.0000 0.98880  0.56580  0.88500  Biso   1.000  C
  C95      1.0000 0.99690  0.62570  0.95260  Biso   1.000  C
  H76      1.0000 0.96600  0.67600  0.95600  Biso   1.000  H
  N39      1.0000 0.12590  0.00120  0.70320  Biso   1.000  N
  N40      1.0000 0.08304  0.07380  0.67550  Biso   1.000  N
  C96      1.0000 0.18380  0.03160  0.76040  Biso   1.000  C
  H77      1.0000 0.22340  0.99630  0.79100  Biso   1.000  H
  C97      1.0000 0.17900  0.12120  0.76950  Biso   1.000  C
  H78      1.0000 0.21300  0.15670  0.80600  Biso   1.000  H
  C98      1.0000 0.11430  0.14680  0.71430  Biso   1.000  C
  H79      1.0000 0.09500  0.20410  0.70480  Biso   1.000  H
  C99      1.0000 0.01120  0.06580  0.61500  Biso   1.000  C
  C100     1.0000 0.00310  0.12570  0.54740  Biso   1.000  C
  H80      1.0000 0.03400  0.17600  0.54400  Biso   1.000  H
  N41      1.0000 0.99880  0.20320  0.37410  Biso   1.000  N
  N42      1.0000 0.92620  0.17550  0.41696  Biso   1.000  N
  C101     1.0000 0.96840  0.26040  0.31620  Biso   1.000  C
  H81      1.0000 0.00370  0.29100  0.27660  Biso   1.000  H
  C102     1.0000 0.87880  0.26950  0.32100  Biso   1.000  C
  H82      1.0000 0.84330  0.30600  0.28700  Biso   1.000  H
  C103     1.0000 0.85320  0.21430  0.38570  Biso   1.000  C
  H83      1.0000 0.79590  0.20480  0.40500  Biso   1.000  H
  C104     1.0000 0.93420  0.11500  0.48880  Biso   1.000  C
  C105     1.0000 0.87430  0.04740  0.49690  Biso   1.000  C
  H84      1.0000 0.82400  0.04400  0.46600  Biso   1.000  H
  N43      1.0000 0.49880  0.29680  0.62590  Biso   1.000  N
  N44      1.0000 0.42620  0.32450  0.58304  Biso   1.000  N
  C106     1.0000 0.46840  0.23960  0.68380  Biso   1.000  C
  H85      1.0000 0.50370  0.20900  0.72340  Biso   1.000  H
  C107     1.0000 0.37880  0.23050  0.67900  Biso   1.000  C
  H86      1.0000 0.34330  0.19400  0.71300  Biso   1.000  H
  C108     1.0000 0.35320  0.28570  0.61430  Biso   1.000  C
  H87      1.0000 0.29590  0.29520  0.59500  Biso   1.000  H
  C109     1.0000 0.43420  0.38500  0.51120  Biso   1.000  C
  C110     1.0000 0.37430  0.45260  0.50310  Biso   1.000  C
  H88      1.0000 0.32400  0.45600  0.53400  Biso   1.000  H
  N45      1.0000 0.00120  0.70320  0.12590  Biso   1.000  N
  N46      1.0000 0.07380  0.67550  0.08304  Biso   1.000  N
  C111     1.0000 0.03160  0.76040  0.18380  Biso   1.000  C
  H89      1.0000 0.99630  0.79100  0.22340  Biso   1.000  H
  C112     1.0000 0.12120  0.76950  0.17900  Biso   1.000  C
  H90      1.0000 0.15670  0.80600  0.21300  Biso   1.000  H
  C113     1.0000 0.14680  0.71430  0.11430  Biso   1.000  C
  H91      1.0000 0.20410  0.70480  0.09500  Biso   1.000  H
  C114     1.0000 0.06580  0.61500  0.01120  Biso   1.000  C
  C115     1.0000 0.12570  0.54740  0.00310  Biso   1.000  C
  H92      1.0000 0.17600  0.54400  0.03400  Biso   1.000  H
  N47      1.0000 0.50120  0.79680  0.87410  Biso   1.000  N
  N48      1.0000 0.57380  0.82450  0.91696  Biso   1.000  N
  C116     1.0000 0.53160  0.73960  0.81620  Biso   1.000  C
  H93      1.0000 0.49630  0.70900  0.77660  Biso   1.000  H
  C117     1.0000 0.62120  0.73050  0.82100  Biso   1.000  C
  H94      1.0000 0.65670  0.69400  0.78700  Biso   1.000  H
  C118     1.0000 0.64680  0.78570  0.88570  Biso   1.000  C
  H95      1.0000 0.70410  0.79520  0.90500  Biso   1.000  H
  C119     1.0000 0.56580  0.88500  0.98880  Biso   1.000  C
  C120     1.0000 0.62570  0.95260  0.99690  Biso   1.000  C
  H96      1.0000 0.67600  0.95600  0.96600  Biso   1.000  H
  Ag1      1.0000 0.87058  0.87942  0.37500  Biso   1.000  Ag
  Ag2      1.0000 0.62942  0.12058  0.87500  Biso   1.000  Ag
  Ag3      1.0000 0.12942  0.37942  0.12500  Biso   1.000  Ag
  Ag4      1.0000 0.37058  0.62058  0.62500  Biso   1.000  Ag
  Ag5      1.0000 0.37500  0.87058  0.87942  Biso   1.000  Ag
  Ag6      1.0000 0.87500  0.62942  0.12058  Biso   1.000  Ag
  Ag7      1.0000 0.12500  0.12942  0.37942  Biso   1.000  Ag
  Ag8      1.0000 0.62500  0.37058  0.62058  Biso   1.000  Ag
  Ag9      1.0000 0.87942  0.37500  0.87058  Biso   1.000  Ag
  Ag10     1.0000 0.12058  0.87500  0.62942  Biso   1.000  Ag
  Ag11     1.0000 0.37942  0.12500  0.12942  Biso   1.000  Ag
  Ag12     1.0000 0.62058  0.62500  0.37058  Biso   1.000  Ag
