data_YEQRIV_clean
_audit_creation_date              2014-07-02
_audit_creation_method            'Materials Studio'
_symmetry_space_group_name_H-M    'P1'
_symmetry_Int_Tables_number       1
_symmetry_cell_setting            triclinic
loop_
_symmetry_equiv_pos_as_xyz
  x,y,z
_cell_length_a                    8.7980
_cell_length_b                    15.6270
_cell_length_c                    17.9690
_cell_angle_alpha                 105.4600
_cell_angle_beta                  98.5800
_cell_angle_gamma                 98.1500
loop_
_atom_site_label
_atom_site_type_symbol
_atom_site_fract_x
_atom_site_fract_y
_atom_site_fract_z
_atom_site_U_iso_or_equiv
_atom_site_adp_type
_atom_site_occupancy
Eu1    Eu    0.82668   0.16992   0.77584   0.01267  Uiso   1.00
Eu2    Eu    0.17332   0.83008   0.22416   0.01267  Uiso   1.00
K1     K     0.94140   0.29655   0.38712   0.01267  Uiso   1.00
K2     K     0.05860   0.70345   0.61288   0.01267  Uiso   1.00
Ni1    Ni    0.00000   0.00000   0.00000   0.01267  Uiso   1.00
Ni2    Ni    0.00000   0.00000   0.50000   0.01267  Uiso   1.00
Ni3    Ni    0.00000   0.50000   0.00000   0.01267  Uiso   1.00
Ni4    Ni    0.50000   0.50000   0.50000   0.01267  Uiso   1.00
C1     C     0.94350   0.06120   0.92640   0.01267  Uiso   1.00
C2     C     0.83260   0.90510   0.95030   0.01267  Uiso   1.00
C3     C     0.96280   0.06100   0.59790   0.01267  Uiso   1.00
C4     C     0.92860   0.08660   0.45710   0.01267  Uiso   1.00
C5     C     0.91750   0.38370   0.93210   0.01267  Uiso   1.00
C6     C     0.83900   0.49170   0.05620   0.01267  Uiso   1.00
C7     C     0.61550   0.41890   0.44980   0.01267  Uiso   1.00
C8     C     0.33850   0.40500   0.48770   0.01267  Uiso   1.00
C9     C     0.05650   0.93880   0.07360   0.01267  Uiso   1.00
C10    C     0.16740   0.09490   0.04970   0.01267  Uiso   1.00
C11    C     0.03720   0.93900   0.40210   0.01267  Uiso   1.00
C12    C     0.07140   0.91340   0.54290   0.01267  Uiso   1.00
C13    C     0.08250   0.61630   0.06790   0.01267  Uiso   1.00
C14    C     0.16100   0.50830   0.94380   0.01267  Uiso   1.00
C15    C     0.38450   0.58110   0.55020   0.01267  Uiso   1.00
C16    C     0.66150   0.59500   0.51230   0.01267  Uiso   1.00
N1     N     0.91190   0.10040   0.88310   0.01267  Uiso   1.00
N2     N     0.72740   0.84640   0.92340   0.01267  Uiso   1.00
N3     N     0.93390   0.09780   0.65750   0.01267  Uiso   1.00
N4     N     0.88200   0.13990   0.43030   0.01267  Uiso   1.00
N5     N     0.86940   0.31350   0.88830   0.01267  Uiso   1.00
N6     N     0.74370   0.48600   0.09260   0.01267  Uiso   1.00
N7     N     0.69100   0.37130   0.42070   0.01267  Uiso   1.00
N8     N     0.23680   0.34790   0.47980   0.01267  Uiso   1.00
N9     N     0.08810   0.89960   0.11690   0.01267  Uiso   1.00
N10    N     0.27260   0.15360   0.07660   0.01267  Uiso   1.00
N11    N     0.06610   0.90220   0.34250   0.01267  Uiso   1.00
N12    N     0.11800   0.86010   0.56970   0.01267  Uiso   1.00
N13    N     0.13060   0.68650   0.11170   0.01267  Uiso   1.00
N14    N     0.25630   0.51400   0.90740   0.01267  Uiso   1.00
N15    N     0.30900   0.62870   0.57930   0.01267  Uiso   1.00
N16    N     0.76320   0.65210   0.52020   0.01267  Uiso   1.00
