data_YEQRER_clean
_audit_creation_date              2014-07-02
_audit_creation_method            'Materials Studio'
_symmetry_space_group_name_H-M    'P1'
_symmetry_Int_Tables_number       1
_symmetry_cell_setting            triclinic
loop_
_symmetry_equiv_pos_as_xyz
  x,y,z
_cell_length_a                    8.8515
_cell_length_b                    15.6733
_cell_length_c                    17.9457
_cell_angle_alpha                 105.4590
_cell_angle_beta                  99.1000
_cell_angle_gamma                 98.5860
loop_
_atom_site_label
_atom_site_type_symbol
_atom_site_fract_x
_atom_site_fract_y
_atom_site_fract_z
_atom_site_U_iso_or_equiv
_atom_site_adp_type
_atom_site_occupancy
Yb1    Yb    0.31963   0.16822   0.27452   0.01267  Uiso   1.00
Yb2    Yb    0.68037   0.83178   0.72548   0.01267  Uiso   1.00
K1     K     0.55430   0.70630   0.11910   0.01267  Uiso   1.00
K2     K     0.44570   0.29370   0.88090   0.01267  Uiso   1.00
Pt1    Pt    0.50000  -0.00000   0.50000   0.01267  Uiso   1.00
Pt2    Pt    0.50000   0.50000   0.50000   0.01267  Uiso   1.00
Pt3    Pt    0.50000  -0.00000   0.00000   0.01267  Uiso   1.00
Pt4    Pt    0.00000   0.50000   0.00000   0.01267  Uiso   1.00
C1     C     0.43800   0.06240   0.42210   0.01267  Uiso   1.00
C2     C     0.68600   0.10130   0.54850   0.01267  Uiso   1.00
C3     C     0.40800   0.37550   0.42560   0.01267  Uiso   1.00
C4     C     0.32900   0.49300   0.55760   0.01267  Uiso   1.00
C5     C     0.45500   0.06260   0.10410   0.01267  Uiso   1.00
C6     C     0.59500   0.91460   0.04840   0.01267  Uiso   1.00
C7     C     0.17100   0.60530   0.00920   0.01267  Uiso   1.00
C8     C     0.87900   0.58140   0.05810   0.01267  Uiso   1.00
C9     C     0.56200   0.93760   0.57790   0.01267  Uiso   1.00
C10    C     0.31400   0.89870   0.45150   0.01267  Uiso   1.00
C11    C     0.59200   0.62450   0.57440   0.01267  Uiso   1.00
C12    C     0.67100   0.50700   0.44240   0.01267  Uiso   1.00
C13    C     0.54500   0.93740   0.89590   0.01267  Uiso   1.00
C14    C     0.40500   0.08540   0.95160   0.01267  Uiso   1.00
C15    C     0.82900   0.39470   0.99080   0.01267  Uiso   1.00
C16    C     0.12100   0.41860   0.94190   0.01267  Uiso   1.00
N1     N     0.40500   0.10160   0.37850   0.01267  Uiso   1.00
N2     N     0.79100   0.15960   0.57580   0.01267  Uiso   1.00
N3     N     0.35980   0.30570   0.37960   0.01267  Uiso   1.00
N4     N     0.23200   0.48880   0.59450   0.01267  Uiso   1.00
N5     N     0.42310   0.09680   0.16220   0.01267  Uiso   1.00
N6     N     0.64700   0.86090   0.07510   0.01267  Uiso   1.00
N7     N     0.26600   0.66490   0.01540   0.01267  Uiso   1.00
N8     N     0.80800   0.62730   0.09040   0.01267  Uiso   1.00
N9     N     0.59500   0.89840   0.62150   0.01267  Uiso   1.00
N10    N     0.20900   0.84040   0.42420   0.01267  Uiso   1.00
N11    N     0.64020   0.69430   0.62040   0.01267  Uiso   1.00
N12    N     0.76800   0.51120   0.40550   0.01267  Uiso   1.00
N13    N     0.57690   0.90320   0.83780   0.01267  Uiso   1.00
N14    N     0.35300   0.13910   0.92490   0.01267  Uiso   1.00
N15    N     0.73400   0.33510   0.98460   0.01267  Uiso   1.00
N16    N     0.19200   0.37270   0.90960   0.01267  Uiso   1.00
