data_YEYCUC_clean
_audit_creation_date              2015-05-11
_audit_creation_method            'Materials Studio'
_symmetry_space_group_name_H-M    'P1'
_symmetry_Int_Tables_number       1
_symmetry_cell_setting            triclinic
loop_
_symmetry_equiv_pos_as_xyz
  x,y,z
_cell_length_a                    23.0920
_cell_length_b                    23.0920
_cell_length_c                    23.0920
_cell_angle_alpha                 60.0000
_cell_angle_beta                  60.0000
_cell_angle_gamma                 60.0000
loop_
_atom_site_label
_atom_site_type_symbol
_atom_site_fract_x
_atom_site_fract_y
_atom_site_fract_z
_atom_site_U_iso_or_equiv
_atom_site_adp_type
_atom_site_occupancy
H1     H     0.62650   0.85270   0.55990   0.01267  Uiso   1.00
H2     H     0.44010   0.14730   0.37350   0.01267  Uiso   1.00
H3     H     0.41230   0.76470   0.58770   0.01267  Uiso   1.00
H4     H     0.41220   0.86700   0.58780   0.01267  Uiso   1.00
C5     C     0.44789   0.78531   0.55211   0.01267  Uiso   1.00
C6     C     0.44780   0.84620   0.55220   0.01267  Uiso   1.00
O7     O     0.45047   0.66683   0.54953   0.01267  Uiso   1.00
H8     H     0.85270   0.62650   0.96090   0.01267  Uiso   1.00
H9     H     0.14730   0.44010   0.03910   0.01267  Uiso   1.00
H10    H     0.76470   0.41230   0.23530   0.01267  Uiso   1.00
H11    H     0.86700   0.41220   0.13300   0.01267  Uiso   1.00
C12    C     0.78531   0.44789   0.21469   0.01267  Uiso   1.00
C13    C     0.84620   0.44780   0.15380   0.01267  Uiso   1.00
O14    O     0.66683   0.45047   0.33317   0.01267  Uiso   1.00
H15    H     0.55990   0.96090   0.62650   0.01267  Uiso   1.00
H16    H     0.37350   0.03910   0.44010   0.01267  Uiso   1.00
H17    H     0.58770   0.23530   0.41230   0.01267  Uiso   1.00
H18    H     0.58780   0.13300   0.41220   0.01267  Uiso   1.00
C19    C     0.55211   0.21469   0.44789   0.01267  Uiso   1.00
C20    C     0.55220   0.15380   0.44780   0.01267  Uiso   1.00
O21    O     0.54953   0.33317   0.45047   0.01267  Uiso   1.00
H22    H     0.96090   0.55990   0.85270   0.01267  Uiso   1.00
H23    H     0.03910   0.37350   0.14730   0.01267  Uiso   1.00
H24    H     0.23530   0.58770   0.76470   0.01267  Uiso   1.00
H25    H     0.13300   0.58780   0.86700   0.01267  Uiso   1.00
C26    C     0.21469   0.55211   0.78531   0.01267  Uiso   1.00
C27    C     0.15380   0.55220   0.84620   0.01267  Uiso   1.00
O28    O     0.33317   0.54953   0.66683   0.01267  Uiso   1.00
H29    H     0.55990   0.62650   0.85270   0.01267  Uiso   1.00
H30    H     0.37350   0.44010   0.14730   0.01267  Uiso   1.00
H31    H     0.58770   0.41230   0.76470   0.01267  Uiso   1.00
H32    H     0.58780   0.41220   0.86700   0.01267  Uiso   1.00
C33    C     0.55211   0.44789   0.78531   0.01267  Uiso   1.00
C34    C     0.55220   0.44780   0.84620   0.01267  Uiso   1.00
O35    O     0.54953   0.45047   0.66683   0.01267  Uiso   1.00
H36    H     0.96090   0.85270   0.62650   0.01267  Uiso   1.00
H37    H     0.03910   0.14730   0.44010   0.01267  Uiso   1.00
H38    H     0.23530   0.76470   0.41230   0.01267  Uiso   1.00
H39    H     0.13300   0.86700   0.41220   0.01267  Uiso   1.00
C40    C     0.21469   0.78531   0.44789   0.01267  Uiso   1.00
C41    C     0.15380   0.84620   0.44780   0.01267  Uiso   1.00
O42    O     0.33317   0.66683   0.45047   0.01267  Uiso   1.00
H43    H     0.62650   0.55990   0.96090   0.01267  Uiso   1.00
H44    H     0.44010   0.37350   0.03910   0.01267  Uiso   1.00
H45    H     0.41230   0.58770   0.23530   0.01267  Uiso   1.00
H46    H     0.41220   0.58780   0.13300   0.01267  Uiso   1.00
C47    C     0.44789   0.55211   0.21469   0.01267  Uiso   1.00
C48    C     0.44780   0.55220   0.15380   0.01267  Uiso   1.00
O49    O     0.45047   0.54953   0.33317   0.01267  Uiso   1.00
H50    H     0.85270   0.96090   0.55990   0.01267  Uiso   1.00
H51    H     0.14730   0.03910   0.37350   0.01267  Uiso   1.00
H52    H     0.76470   0.23530   0.58770   0.01267  Uiso   1.00
H53    H     0.86700   0.13300   0.58780   0.01267  Uiso   1.00
C54    C     0.78531   0.21469   0.55211   0.01267  Uiso   1.00
C55    C     0.84620   0.15380   0.55220   0.01267  Uiso   1.00
O56    O     0.66683   0.33317   0.54953   0.01267  Uiso   1.00
H57    H     0.85270   0.55990   0.62650   0.01267  Uiso   1.00
H58    H     0.14730   0.37350   0.44010   0.01267  Uiso   1.00
H59    H     0.76470   0.58770   0.41230   0.01267  Uiso   1.00
H60    H     0.86700   0.58780   0.41220   0.01267  Uiso   1.00
C61    C     0.78531   0.55211   0.44789   0.01267  Uiso   1.00
C62    C     0.84620   0.55220   0.44780   0.01267  Uiso   1.00
O63    O     0.66683   0.54953   0.45047   0.01267  Uiso   1.00
H64    H     0.62650   0.96090   0.85270   0.01267  Uiso   1.00
H65    H     0.44010   0.03910   0.14730   0.01267  Uiso   1.00
H66    H     0.41230   0.23530   0.76470   0.01267  Uiso   1.00
H67    H     0.41220   0.13300   0.86700   0.01267  Uiso   1.00
C68    C     0.44789   0.21469   0.78531   0.01267  Uiso   1.00
C69    C     0.44780   0.15380   0.84620   0.01267  Uiso   1.00
O70    O     0.45047   0.33317   0.66683   0.01267  Uiso   1.00
H71    H     0.96090   0.62650   0.55990   0.01267  Uiso   1.00
H72    H     0.03910   0.44010   0.37350   0.01267  Uiso   1.00
H73    H     0.23530   0.41230   0.58770   0.01267  Uiso   1.00
H74    H     0.13300   0.41220   0.58780   0.01267  Uiso   1.00
C75    C     0.21469   0.44789   0.55211   0.01267  Uiso   1.00
C76    C     0.15380   0.44780   0.55220   0.01267  Uiso   1.00
O77    O     0.33317   0.45047   0.54953   0.01267  Uiso   1.00
H78    H     0.55990   0.85270   0.96090   0.01267  Uiso   1.00
H79    H     0.37350   0.14730   0.03910   0.01267  Uiso   1.00
H80    H     0.58770   0.76470   0.23530   0.01267  Uiso   1.00
H81    H     0.58780   0.86700   0.13300   0.01267  Uiso   1.00
C82    C     0.55211   0.78531   0.21469   0.01267  Uiso   1.00
C83    C     0.55220   0.84620   0.15380   0.01267  Uiso   1.00
O84    O     0.54953   0.66683   0.33317   0.01267  Uiso   1.00
H85    H     0.85270   0.62650   0.55990   0.01267  Uiso   1.00
H86    H     0.14730   0.44010   0.37350   0.01267  Uiso   1.00
H87    H     0.76470   0.41230   0.58770   0.01267  Uiso   1.00
H88    H     0.86700   0.41220   0.58780   0.01267  Uiso   1.00
C89    C     0.78531   0.44789   0.55211   0.01267  Uiso   1.00
C90    C     0.84620   0.44780   0.55220   0.01267  Uiso   1.00
O91    O     0.66683   0.45047   0.54953   0.01267  Uiso   1.00
H92    H     0.62650   0.85270   0.96090   0.01267  Uiso   1.00
H93    H     0.44010   0.14730   0.03910   0.01267  Uiso   1.00
H94    H     0.41230   0.76470   0.23530   0.01267  Uiso   1.00
H95    H     0.41220   0.86700   0.13300   0.01267  Uiso   1.00
C96    C     0.44789   0.78531   0.21469   0.01267  Uiso   1.00
C97    C     0.44780   0.84620   0.15380   0.01267  Uiso   1.00
O98    O     0.45047   0.66683   0.33317   0.01267  Uiso   1.00
H99    H     0.96090   0.55990   0.62650   0.01267  Uiso   1.00
H100   H     0.03910   0.37350   0.44010   0.01267  Uiso   1.00
H101   H     0.23530   0.58770   0.41230   0.01267  Uiso   1.00
H102   H     0.13300   0.58780   0.41220   0.01267  Uiso   1.00
C103   C     0.21469   0.55211   0.44789   0.01267  Uiso   1.00
C104   C     0.15380   0.55220   0.44780   0.01267  Uiso   1.00
O105   O     0.33317   0.54953   0.45047   0.01267  Uiso   1.00
H106   H     0.55990   0.96090   0.85270   0.01267  Uiso   1.00
H107   H     0.37350   0.03910   0.14730   0.01267  Uiso   1.00
H108   H     0.58770   0.23530   0.76470   0.01267  Uiso   1.00
H109   H     0.58780   0.13300   0.86700   0.01267  Uiso   1.00
C110   C     0.55211   0.21469   0.78531   0.01267  Uiso   1.00
C111   C     0.55220   0.15380   0.84620   0.01267  Uiso   1.00
O112   O     0.54953   0.33317   0.66683   0.01267  Uiso   1.00
H113   H     0.62650   0.55990   0.85270   0.01267  Uiso   1.00
H114   H     0.44010   0.37350   0.14730   0.01267  Uiso   1.00
H115   H     0.41230   0.58770   0.76470   0.01267  Uiso   1.00
H116   H     0.41220   0.58780   0.86700   0.01267  Uiso   1.00
C117   C     0.44789   0.55211   0.78531   0.01267  Uiso   1.00
C118   C     0.44780   0.55220   0.84620   0.01267  Uiso   1.00
O119   O     0.45047   0.54953   0.66683   0.01267  Uiso   1.00
H120   H     0.85270   0.96090   0.62650   0.01267  Uiso   1.00
H121   H     0.14730   0.03910   0.44010   0.01267  Uiso   1.00
H122   H     0.76470   0.23530   0.41230   0.01267  Uiso   1.00
H123   H     0.86700   0.13300   0.41220   0.01267  Uiso   1.00
C124   C     0.78531   0.21469   0.44789   0.01267  Uiso   1.00
C125   C     0.84620   0.15380   0.44780   0.01267  Uiso   1.00
O126   O     0.66683   0.33317   0.45047   0.01267  Uiso   1.00
H127   H     0.55990   0.62650   0.96090   0.01267  Uiso   1.00
H128   H     0.37350   0.44010   0.03910   0.01267  Uiso   1.00
H129   H     0.58770   0.41230   0.23530   0.01267  Uiso   1.00
H130   H     0.58780   0.41220   0.13300   0.01267  Uiso   1.00
C131   C     0.55211   0.44789   0.21469   0.01267  Uiso   1.00
C132   C     0.55220   0.44780   0.15380   0.01267  Uiso   1.00
O133   O     0.54953   0.45047   0.33317   0.01267  Uiso   1.00
H134   H     0.96090   0.85270   0.55990   0.01267  Uiso   1.00
H135   H     0.03910   0.14730   0.37350   0.01267  Uiso   1.00
H136   H     0.23530   0.76470   0.58770   0.01267  Uiso   1.00
H137   H     0.13300   0.86700   0.58780   0.01267  Uiso   1.00
C138   C     0.21469   0.78531   0.55211   0.01267  Uiso   1.00
C139   C     0.15380   0.84620   0.55220   0.01267  Uiso   1.00
O140   O     0.33317   0.66683   0.54953   0.01267  Uiso   1.00
H141   H     0.55990   0.85270   0.62650   0.01267  Uiso   1.00
H142   H     0.37350   0.14730   0.44010   0.01267  Uiso   1.00
H143   H     0.58770   0.76470   0.41230   0.01267  Uiso   1.00
H144   H     0.58780   0.86700   0.41220   0.01267  Uiso   1.00
C145   C     0.55211   0.78531   0.44789   0.01267  Uiso   1.00
C146   C     0.55220   0.84620   0.44780   0.01267  Uiso   1.00
O147   O     0.54953   0.66683   0.45047   0.01267  Uiso   1.00
H148   H     0.96090   0.62650   0.85270   0.01267  Uiso   1.00
H149   H     0.03910   0.44010   0.14730   0.01267  Uiso   1.00
H150   H     0.23530   0.41230   0.76470   0.01267  Uiso   1.00
H151   H     0.13300   0.41220   0.86700   0.01267  Uiso   1.00
C152   C     0.21469   0.44789   0.78531   0.01267  Uiso   1.00
C153   C     0.15380   0.44780   0.84620   0.01267  Uiso   1.00
O154   O     0.33317   0.45047   0.66683   0.01267  Uiso   1.00
H155   H     0.62650   0.96090   0.55990   0.01267  Uiso   1.00
H156   H     0.44010   0.03910   0.37350   0.01267  Uiso   1.00
H157   H     0.41230   0.23530   0.58770   0.01267  Uiso   1.00
H158   H     0.41220   0.13300   0.58780   0.01267  Uiso   1.00
C159   C     0.44789   0.21469   0.55211   0.01267  Uiso   1.00
C160   C     0.44780   0.15380   0.55220   0.01267  Uiso   1.00
O161   O     0.45047   0.33317   0.54953   0.01267  Uiso   1.00
H162   H     0.85270   0.55990   0.96090   0.01267  Uiso   1.00
H163   H     0.14730   0.37350   0.03910   0.01267  Uiso   1.00
H164   H     0.76470   0.58770   0.23530   0.01267  Uiso   1.00
H165   H     0.86700   0.58780   0.13300   0.01267  Uiso   1.00
C166   C     0.78531   0.55211   0.21469   0.01267  Uiso   1.00
C167   C     0.84620   0.55220   0.15380   0.01267  Uiso   1.00
O168   O     0.66683   0.54953   0.33317   0.01267  Uiso   1.00
Zr169  Zr    0.42465   0.57535   0.57535   0.01267  Uiso   1.00
Zr170  Zr    0.57535   0.42465   0.42465   0.01267  Uiso   1.00
Zr171  Zr    0.57535   0.42465   0.57535   0.01267  Uiso   1.00
Zr172  Zr    0.42465   0.57535   0.42465   0.01267  Uiso   1.00
Zr173  Zr    0.57535   0.57535   0.42465   0.01267  Uiso   1.00
Zr174  Zr    0.42465   0.42465   0.57535   0.01267  Uiso   1.00
H175   H     0.57190   0.82430   0.57190   0.01267  Uiso   1.00
H176   H     0.42810   0.17570   0.42810   0.01267  Uiso   1.00
C177   C     0.50000   0.68934   0.50000   0.01267  Uiso   1.00
C178   C     0.50000   0.75520   0.50000   0.01267  Uiso   1.00
C179   C     0.50000   0.87520   0.50000   0.01267  Uiso   1.00
C180   C     0.50000   0.94066   0.50000   0.01267  Uiso   1.00
C181   C     0.53718   0.93272   0.53718   0.01267  Uiso   1.00
C182   C     0.57770   0.85910   0.57770   0.01267  Uiso   1.00
C183   C     0.46282   0.06728   0.46282   0.01267  Uiso   1.00
C184   C     0.42230   0.14090   0.42230   0.01267  Uiso   1.00
H185   H     0.82430   0.57190   0.03190   0.01267  Uiso   1.00
H186   H     0.17570   0.42810   0.96810   0.01267  Uiso   1.00
C187   C     0.68934   0.50000   0.31066   0.01267  Uiso   1.00
C188   C     0.75520   0.50000   0.24480   0.01267  Uiso   1.00
C189   C     0.87520   0.50000   0.12480   0.01267  Uiso   1.00
C190   C     0.94066   0.50000   0.05934   0.01267  Uiso   1.00
C191   C     0.93272   0.53718   0.99292   0.01267  Uiso   1.00
C192   C     0.85910   0.57770   0.98550   0.01267  Uiso   1.00
C193   C     0.06728   0.46282   0.00708   0.01267  Uiso   1.00
C194   C     0.14090   0.42230   0.01450   0.01267  Uiso   1.00
H195   H     0.57190   0.03190   0.57190   0.01267  Uiso   1.00
H196   H     0.42810   0.96810   0.42810   0.01267  Uiso   1.00
C197   C     0.50000   0.31066   0.50000   0.01267  Uiso   1.00
C198   C     0.50000   0.24480   0.50000   0.01267  Uiso   1.00
C199   C     0.50000   0.12480   0.50000   0.01267  Uiso   1.00
C200   C     0.50000   0.05934   0.50000   0.01267  Uiso   1.00
C201   C     0.53718   0.99292   0.53718   0.01267  Uiso   1.00
C202   C     0.57770   0.98550   0.57770   0.01267  Uiso   1.00
C203   C     0.46282   0.00708   0.46282   0.01267  Uiso   1.00
C204   C     0.42230   0.01450   0.42230   0.01267  Uiso   1.00
H205   H     0.03190   0.57190   0.82430   0.01267  Uiso   1.00
H206   H     0.96810   0.42810   0.17570   0.01267  Uiso   1.00
C207   C     0.31066   0.50000   0.68934   0.01267  Uiso   1.00
C208   C     0.24480   0.50000   0.75520   0.01267  Uiso   1.00
C209   C     0.12480   0.50000   0.87520   0.01267  Uiso   1.00
C210   C     0.05934   0.50000   0.94066   0.01267  Uiso   1.00
C211   C     0.99292   0.53718   0.93272   0.01267  Uiso   1.00
C212   C     0.98550   0.57770   0.85910   0.01267  Uiso   1.00
C213   C     0.00708   0.46282   0.06728   0.01267  Uiso   1.00
C214   C     0.01450   0.42230   0.14090   0.01267  Uiso   1.00
H215   H     0.57190   0.57190   0.82430   0.01267  Uiso   1.00
H216   H     0.42810   0.42810   0.17570   0.01267  Uiso   1.00
C217   C     0.50000   0.50000   0.68934   0.01267  Uiso   1.00
C218   C     0.50000   0.50000   0.75520   0.01267  Uiso   1.00
C219   C     0.50000   0.50000   0.87520   0.01267  Uiso   1.00
C220   C     0.50000   0.50000   0.94066   0.01267  Uiso   1.00
C221   C     0.53718   0.53718   0.93272   0.01267  Uiso   1.00
C222   C     0.57770   0.57770   0.85910   0.01267  Uiso   1.00
C223   C     0.46282   0.46282   0.06728   0.01267  Uiso   1.00
C224   C     0.42230   0.42230   0.14090   0.01267  Uiso   1.00
H225   H     0.03190   0.82430   0.57190   0.01267  Uiso   1.00
H226   H     0.96810   0.17570   0.42810   0.01267  Uiso   1.00
C227   C     0.31066   0.68934   0.50000   0.01267  Uiso   1.00
C228   C     0.24480   0.75520   0.50000   0.01267  Uiso   1.00
C229   C     0.12480   0.87520   0.50000   0.01267  Uiso   1.00
C230   C     0.05934   0.94066   0.50000   0.01267  Uiso   1.00
C231   C     0.99292   0.93272   0.53718   0.01267  Uiso   1.00
C232   C     0.98550   0.85910   0.57770   0.01267  Uiso   1.00
C233   C     0.00708   0.06728   0.46282   0.01267  Uiso   1.00
C234   C     0.01450   0.14090   0.42230   0.01267  Uiso   1.00
H235   H     0.57190   0.57190   0.03190   0.01267  Uiso   1.00
H236   H     0.42810   0.42810   0.96810   0.01267  Uiso   1.00
C237   C     0.50000   0.50000   0.31066   0.01267  Uiso   1.00
C238   C     0.50000   0.50000   0.24480   0.01267  Uiso   1.00
C239   C     0.50000   0.50000   0.12480   0.01267  Uiso   1.00
C240   C     0.50000   0.50000   0.05934   0.01267  Uiso   1.00
C241   C     0.53718   0.53718   0.99292   0.01267  Uiso   1.00
C242   C     0.57770   0.57770   0.98550   0.01267  Uiso   1.00
C243   C     0.46282   0.46282   0.00708   0.01267  Uiso   1.00
C244   C     0.42230   0.42230   0.01450   0.01267  Uiso   1.00
H245   H     0.82430   0.03190   0.57190   0.01267  Uiso   1.00
H246   H     0.17570   0.96810   0.42810   0.01267  Uiso   1.00
C247   C     0.68934   0.31066   0.50000   0.01267  Uiso   1.00
C248   C     0.75520   0.24480   0.50000   0.01267  Uiso   1.00
C249   C     0.87520   0.12480   0.50000   0.01267  Uiso   1.00
C250   C     0.94066   0.05934   0.50000   0.01267  Uiso   1.00
C251   C     0.93272   0.99292   0.53718   0.01267  Uiso   1.00
C252   C     0.85910   0.98550   0.57770   0.01267  Uiso   1.00
C253   C     0.06728   0.00708   0.46282   0.01267  Uiso   1.00
C254   C     0.14090   0.01450   0.42230   0.01267  Uiso   1.00
H255   H     0.82430   0.57190   0.57190   0.01267  Uiso   1.00
H256   H     0.17570   0.42810   0.42810   0.01267  Uiso   1.00
C257   C     0.68934   0.50000   0.50000   0.01267  Uiso   1.00
C258   C     0.75520   0.50000   0.50000   0.01267  Uiso   1.00
C259   C     0.87520   0.50000   0.50000   0.01267  Uiso   1.00
C260   C     0.94066   0.50000   0.50000   0.01267  Uiso   1.00
C261   C     0.93272   0.53718   0.53718   0.01267  Uiso   1.00
C262   C     0.85910   0.57770   0.57770   0.01267  Uiso   1.00
C263   C     0.06728   0.46282   0.46282   0.01267  Uiso   1.00
C264   C     0.14090   0.42230   0.42230   0.01267  Uiso   1.00
H265   H     0.57190   0.03190   0.82430   0.01267  Uiso   1.00
H266   H     0.42810   0.96810   0.17570   0.01267  Uiso   1.00
C267   C     0.50000   0.31066   0.68934   0.01267  Uiso   1.00
C268   C     0.50000   0.24480   0.75520   0.01267  Uiso   1.00
C269   C     0.50000   0.12480   0.87520   0.01267  Uiso   1.00
C270   C     0.50000   0.05934   0.94066   0.01267  Uiso   1.00
C271   C     0.53718   0.99292   0.93272   0.01267  Uiso   1.00
C272   C     0.57770   0.98550   0.85910   0.01267  Uiso   1.00
C273   C     0.46282   0.00708   0.06728   0.01267  Uiso   1.00
C274   C     0.42230   0.01450   0.14090   0.01267  Uiso   1.00
H275   H     0.03190   0.57190   0.57190   0.01267  Uiso   1.00
H276   H     0.96810   0.42810   0.42810   0.01267  Uiso   1.00
C277   C     0.31066   0.50000   0.50000   0.01267  Uiso   1.00
C278   C     0.24480   0.50000   0.50000   0.01267  Uiso   1.00
C279   C     0.12480   0.50000   0.50000   0.01267  Uiso   1.00
C280   C     0.05934   0.50000   0.50000   0.01267  Uiso   1.00
C281   C     0.99292   0.53718   0.53718   0.01267  Uiso   1.00
C282   C     0.98550   0.57770   0.57770   0.01267  Uiso   1.00
C283   C     0.00708   0.46282   0.46282   0.01267  Uiso   1.00
C284   C     0.01450   0.42230   0.42230   0.01267  Uiso   1.00
H285   H     0.57190   0.82430   0.03190   0.01267  Uiso   1.00
H286   H     0.42810   0.17570   0.96810   0.01267  Uiso   1.00
C287   C     0.50000   0.68934   0.31066   0.01267  Uiso   1.00
C288   C     0.50000   0.75520   0.24480   0.01267  Uiso   1.00
C289   C     0.50000   0.87520   0.12480   0.01267  Uiso   1.00
C290   C     0.50000   0.94066   0.05934   0.01267  Uiso   1.00
C291   C     0.53718   0.93272   0.99292   0.01267  Uiso   1.00
C292   C     0.57770   0.85910   0.98550   0.01267  Uiso   1.00
C293   C     0.46282   0.06728   0.00708   0.01267  Uiso   1.00
C294   C     0.42230   0.14090   0.01450   0.01267  Uiso   1.00
O295   O     0.46293   0.61121   0.46293   0.01267  Uiso   1.00
O296   O     0.53707   0.38879   0.53707   0.01267  Uiso   1.00
O297   O     0.61121   0.46293   0.46293   0.01267  Uiso   1.00
O298   O     0.38879   0.53707   0.53707   0.01267  Uiso   1.00
O299   O     0.46293   0.46293   0.46293   0.01267  Uiso   1.00
O300   O     0.53707   0.53707   0.53707   0.01267  Uiso   1.00
O301   O     0.46293   0.46293   0.61121   0.01267  Uiso   1.00
O302   O     0.53707   0.53707   0.38879   0.01267  Uiso   1.00
H303   H     0.44119   0.44119   0.44119   0.00000  Uiso   1.00
H304   H     0.44119   0.44119   0.67644   0.00000  Uiso   1.00
H305   H     0.44119   0.67644   0.44119   0.00000  Uiso   1.00
H306   H     0.67644   0.44119   0.44119   0.00000  Uiso   1.00
