data_YEYFEP_clean
_audit_creation_date              2014-07-02
_audit_creation_method            'Materials Studio'
_symmetry_space_group_name_H-M    'P1'
_symmetry_Int_Tables_number       1
_symmetry_cell_setting            triclinic
loop_
_symmetry_equiv_pos_as_xyz
  x,y,z
_cell_length_a                    12.5729
_cell_length_b                    12.5729
_cell_length_c                    25.9440
_cell_angle_alpha                 90.0000
_cell_angle_beta                  90.0000
_cell_angle_gamma                 90.0000
loop_
_atom_site_label
_atom_site_type_symbol
_atom_site_fract_x
_atom_site_fract_y
_atom_site_fract_z
_atom_site_U_iso_or_equiv
_atom_site_adp_type
_atom_site_occupancy
Ho1    Ho    0.14353   0.95724   0.44838   0.01267  Uiso   1.00
Ho2    Ho    0.85647   0.04276   0.44838   0.01267  Uiso   1.00
Ho3    Ho    0.95724   0.85647   0.55162   0.01267  Uiso   1.00
Ho4    Ho    0.04276   0.14353   0.55162   0.01267  Uiso   1.00
Ho5    Ho    0.35647   0.45724   0.05162   0.01267  Uiso   1.00
Ho6    Ho    0.64353   0.54276   0.05162   0.01267  Uiso   1.00
Ho7    Ho    0.54276   0.35647   0.94838   0.01267  Uiso   1.00
Ho8    Ho    0.45724   0.64353   0.94838   0.01267  Uiso   1.00
H1     H     0.96090   0.83930   0.44360   0.01267  Uiso   1.00
H2     H     0.34350   0.46020   0.22170   0.01267  Uiso   1.00
H3     H     0.34720   0.46310   0.31050   0.01267  Uiso   1.00
H4     H     0.36850   0.52810   0.45020   0.01267  Uiso   1.00
H5     H     0.27760   0.39510   0.49580   0.01267  Uiso   1.00
H6     H     0.39100   0.17270   0.40330   0.01267  Uiso   1.00
H7     H     0.50700   0.29350   0.36540   0.01267  Uiso   1.00
H8     H     0.03910   0.16070   0.44360   0.01267  Uiso   1.00
H9     H     0.65650   0.53980   0.22170   0.01267  Uiso   1.00
H10    H     0.65280   0.53690   0.31050   0.01267  Uiso   1.00
H11    H     0.63150   0.47190   0.45020   0.01267  Uiso   1.00
H12    H     0.72240   0.60490   0.49580   0.01267  Uiso   1.00
H13    H     0.60900   0.82730   0.40330   0.01267  Uiso   1.00
H14    H     0.49300   0.70650   0.36540   0.01267  Uiso   1.00
H15    H     0.83930   0.03910   0.55640   0.01267  Uiso   1.00
H16    H     0.46020   0.65650   0.77830   0.01267  Uiso   1.00
H17    H     0.46310   0.65280   0.68950   0.01267  Uiso   1.00
H18    H     0.52810   0.63150   0.54980   0.01267  Uiso   1.00
H19    H     0.39510   0.72240   0.50420   0.01267  Uiso   1.00
H20    H     0.17270   0.60900   0.59670   0.01267  Uiso   1.00
H21    H     0.29350   0.49300   0.63460   0.01267  Uiso   1.00
H22    H     0.16070   0.96090   0.55640   0.01267  Uiso   1.00
H23    H     0.53980   0.34350   0.77830   0.01267  Uiso   1.00
H24    H     0.53690   0.34720   0.68950   0.01267  Uiso   1.00
H25    H     0.47190   0.36850   0.54980   0.01267  Uiso   1.00
H26    H     0.60490   0.27760   0.50420   0.01267  Uiso   1.00
H27    H     0.82730   0.39100   0.59670   0.01267  Uiso   1.00
H28    H     0.70650   0.50700   0.63460   0.01267  Uiso   1.00
H29    H     0.53910   0.33930   0.05640   0.01267  Uiso   1.00
H30    H     0.15650   0.96020   0.27830   0.01267  Uiso   1.00
H31    H     0.15280   0.96310   0.18950   0.01267  Uiso   1.00
H32    H     0.13150   0.02810   0.04980   0.01267  Uiso   1.00
H33    H     0.22240   0.89510   0.00420   0.01267  Uiso   1.00
H34    H     0.10900   0.67270   0.09670   0.01267  Uiso   1.00
H35    H     0.99300   0.79350   0.13460   0.01267  Uiso   1.00
H36    H     0.46090   0.66070   0.05640   0.01267  Uiso   1.00
H37    H     0.84350   0.03980   0.27830   0.01267  Uiso   1.00
H38    H     0.84720   0.03690   0.18950   0.01267  Uiso   1.00
H39    H     0.86850   0.97190   0.04980   0.01267  Uiso   1.00
H40    H     0.77760   0.10490   0.00420   0.01267  Uiso   1.00
H41    H     0.89100   0.32730   0.09670   0.01267  Uiso   1.00
H42    H     0.00700   0.20650   0.13460   0.01267  Uiso   1.00
H43    H     0.66070   0.53910   0.94360   0.01267  Uiso   1.00
H44    H     0.03980   0.15650   0.72170   0.01267  Uiso   1.00
H45    H     0.03690   0.15280   0.81050   0.01267  Uiso   1.00
H46    H     0.97190   0.13150   0.95020   0.01267  Uiso   1.00
H47    H     0.10490   0.22240   0.99580   0.01267  Uiso   1.00
H48    H     0.32730   0.10900   0.90330   0.01267  Uiso   1.00
H49    H     0.20650   0.99300   0.86540   0.01267  Uiso   1.00
H50    H     0.33930   0.46090   0.94360   0.01267  Uiso   1.00
H51    H     0.96020   0.84350   0.72170   0.01267  Uiso   1.00
H52    H     0.96310   0.84720   0.81050   0.01267  Uiso   1.00
H53    H     0.02810   0.86850   0.95020   0.01267  Uiso   1.00
H54    H     0.89510   0.77760   0.99580   0.01267  Uiso   1.00
H55    H     0.67270   0.89100   0.90330   0.01267  Uiso   1.00
H56    H     0.79350   0.00700   0.86540   0.01267  Uiso   1.00
C1     C     0.40580   0.47630   0.23932   0.01267  Uiso   1.00
C2     C     0.40940   0.47780   0.29252   0.01267  Uiso   1.00
C3     C     0.44370   0.42250   0.40255   0.01267  Uiso   1.00
C4     C     0.37600   0.45660   0.44172   0.01267  Uiso   1.00
C5     C     0.31930   0.37540   0.46778   0.01267  Uiso   1.00
C6     C     0.32150   0.26950   0.45444   0.01267  Uiso   1.00
C7     C     0.38980   0.24310   0.41430   0.01267  Uiso   1.00
C8     C     0.45660   0.31540   0.38940   0.01267  Uiso   1.00
C9     C     0.25040   0.19100   0.47740   0.01267  Uiso   1.00
C10    C     0.59420   0.52370   0.23932   0.01267  Uiso   1.00
C11    C     0.59060   0.52220   0.29252   0.01267  Uiso   1.00
C12    C     0.55630   0.57750   0.40255   0.01267  Uiso   1.00
C13    C     0.62400   0.54340   0.44172   0.01267  Uiso   1.00
C14    C     0.68070   0.62460   0.46778   0.01267  Uiso   1.00
C15    C     0.67850   0.73050   0.45444   0.01267  Uiso   1.00
C16    C     0.61020   0.75690   0.41430   0.01267  Uiso   1.00
C17    C     0.54340   0.68460   0.38940   0.01267  Uiso   1.00
C18    C     0.74960   0.80900   0.47740   0.01267  Uiso   1.00
C19    C     0.47630   0.59420   0.76068   0.01267  Uiso   1.00
C20    C     0.47780   0.59060   0.70748   0.01267  Uiso   1.00
C21    C     0.42250   0.55630   0.59745   0.01267  Uiso   1.00
C22    C     0.45660   0.62400   0.55828   0.01267  Uiso   1.00
C23    C     0.37540   0.68070   0.53222   0.01267  Uiso   1.00
C24    C     0.26950   0.67850   0.54556   0.01267  Uiso   1.00
C25    C     0.24310   0.61020   0.58570   0.01267  Uiso   1.00
C26    C     0.31540   0.54340   0.61060   0.01267  Uiso   1.00
C27    C     0.19100   0.74960   0.52260   0.01267  Uiso   1.00
C28    C     0.52370   0.40580   0.76068   0.01267  Uiso   1.00
C29    C     0.52220   0.40940   0.70748   0.01267  Uiso   1.00
C30    C     0.57750   0.44370   0.59745   0.01267  Uiso   1.00
C31    C     0.54340   0.37600   0.55828   0.01267  Uiso   1.00
C32    C     0.62460   0.31930   0.53222   0.01267  Uiso   1.00
C33    C     0.73050   0.32150   0.54556   0.01267  Uiso   1.00
C34    C     0.75690   0.38980   0.58570   0.01267  Uiso   1.00
C35    C     0.68460   0.45660   0.61060   0.01267  Uiso   1.00
C36    C     0.80900   0.25040   0.52260   0.01267  Uiso   1.00
C37    C     0.09420   0.97630   0.26068   0.01267  Uiso   1.00
C38    C     0.09060   0.97780   0.20748   0.01267  Uiso   1.00
C39    C     0.05630   0.92250   0.09745   0.01267  Uiso   1.00
C40    C     0.12400   0.95660   0.05828   0.01267  Uiso   1.00
C41    C     0.18070   0.87540   0.03222   0.01267  Uiso   1.00
C42    C     0.17850   0.76950   0.04556   0.01267  Uiso   1.00
C43    C     0.11020   0.74310   0.08570   0.01267  Uiso   1.00
C44    C     0.04340   0.81540   0.11060   0.01267  Uiso   1.00
C45    C     0.24960   0.69100   0.02260   0.01267  Uiso   1.00
C46    C     0.90580   0.02370   0.26068   0.01267  Uiso   1.00
C47    C     0.90940   0.02220   0.20748   0.01267  Uiso   1.00
C48    C     0.94370   0.07750   0.09745   0.01267  Uiso   1.00
C49    C     0.87600   0.04340   0.05828   0.01267  Uiso   1.00
C50    C     0.81930   0.12460   0.03222   0.01267  Uiso   1.00
C51    C     0.82150   0.23050   0.04556   0.01267  Uiso   1.00
C52    C     0.88980   0.25690   0.08570   0.01267  Uiso   1.00
C53    C     0.95660   0.18460   0.11060   0.01267  Uiso   1.00
C54    C     0.75040   0.30900   0.02260   0.01267  Uiso   1.00
C55    C     0.02370   0.09420   0.73932   0.01267  Uiso   1.00
C56    C     0.02220   0.09060   0.79252   0.01267  Uiso   1.00
C57    C     0.07750   0.05630   0.90255   0.01267  Uiso   1.00
C58    C     0.04340   0.12400   0.94172   0.01267  Uiso   1.00
C59    C     0.12460   0.18070   0.96778   0.01267  Uiso   1.00
C60    C     0.23050   0.17850   0.95444   0.01267  Uiso   1.00
C61    C     0.25690   0.11020   0.91430   0.01267  Uiso   1.00
C62    C     0.18460   0.04340   0.88940   0.01267  Uiso   1.00
C63    C     0.30900   0.24960   0.97740   0.01267  Uiso   1.00
C64    C     0.97630   0.90580   0.73932   0.01267  Uiso   1.00
C65    C     0.97780   0.90940   0.79252   0.01267  Uiso   1.00
C66    C     0.92250   0.94370   0.90255   0.01267  Uiso   1.00
C67    C     0.95660   0.87600   0.94172   0.01267  Uiso   1.00
C68    C     0.87540   0.81930   0.96778   0.01267  Uiso   1.00
C69    C     0.76950   0.82150   0.95444   0.01267  Uiso   1.00
C70    C     0.74310   0.88980   0.91430   0.01267  Uiso   1.00
C71    C     0.81540   0.95660   0.88940   0.01267  Uiso   1.00
C72    C     0.69100   0.75040   0.97740   0.01267  Uiso   1.00
C73    C     0.50000   0.50000   0.15570   0.01267  Uiso   1.00
C74    C     0.50000   0.50000   0.21329   0.01267  Uiso   1.00
C75    C     0.50000   0.50000   0.32040   0.01267  Uiso   1.00
C76    C     0.50000   0.50000   0.84430   0.01267  Uiso   1.00
C77    C     0.50000   0.50000   0.78671   0.01267  Uiso   1.00
C78    C     0.50000   0.50000   0.67960   0.01267  Uiso   1.00
C79    C     0.00000   0.00000   0.34430   0.01267  Uiso   1.00
C80    C     0.00000   0.00000   0.28671   0.01267  Uiso   1.00
C81    C     0.00000   0.00000   0.17960   0.01267  Uiso   1.00
C82    C     0.00000   0.00000   0.65570   0.01267  Uiso   1.00
C83    C     0.00000   0.00000   0.71329   0.01267  Uiso   1.00
C84    C     0.00000   0.00000   0.82040   0.01267  Uiso   1.00
N1     N     0.50000   0.50000   0.37540   0.01267  Uiso   1.00
N2     N     0.50000   0.50000   0.62460   0.01267  Uiso   1.00
N3     N     0.00000   0.00000   0.12460   0.01267  Uiso   1.00
N4     N     0.00000   0.00000   0.87540   0.01267  Uiso   1.00
O1     O     0.97550   0.89260   0.46252   0.01267  Uiso   1.00
O2     O     0.18890   0.22320   0.51126   0.01267  Uiso   1.00
O3     O     0.25800   0.09650   0.46349   0.01267  Uiso   1.00
O4     O     0.58590   0.49460   0.13272   0.01267  Uiso   1.00
O5     O     0.02450   0.10740   0.46252   0.01267  Uiso   1.00
O6     O     0.81110   0.77680   0.51126   0.01267  Uiso   1.00
O7     O     0.74200   0.90350   0.46349   0.01267  Uiso   1.00
O8     O     0.41410   0.50540   0.13272   0.01267  Uiso   1.00
O9     O     0.89260   0.02450   0.53748   0.01267  Uiso   1.00
O10    O     0.22320   0.81110   0.48874   0.01267  Uiso   1.00
O11    O     0.09650   0.74200   0.53651   0.01267  Uiso   1.00
O12    O     0.49460   0.41410   0.86728   0.01267  Uiso   1.00
O13    O     0.10740   0.97550   0.53748   0.01267  Uiso   1.00
O14    O     0.77680   0.18890   0.48874   0.01267  Uiso   1.00
O15    O     0.90350   0.25800   0.53651   0.01267  Uiso   1.00
O16    O     0.50540   0.58590   0.86728   0.01267  Uiso   1.00
O17    O     0.52450   0.39260   0.03748   0.01267  Uiso   1.00
O18    O     0.31110   0.72320   0.98874   0.01267  Uiso   1.00
O19    O     0.24200   0.59650   0.03651   0.01267  Uiso   1.00
O20    O     0.91410   0.99460   0.36728   0.01267  Uiso   1.00
O21    O     0.47550   0.60740   0.03748   0.01267  Uiso   1.00
O22    O     0.68890   0.27680   0.98874   0.01267  Uiso   1.00
O23    O     0.75800   0.40350   0.03651   0.01267  Uiso   1.00
O24    O     0.08590   0.00540   0.36728   0.01267  Uiso   1.00
O25    O     0.60740   0.52450   0.96252   0.01267  Uiso   1.00
O26    O     0.27680   0.31110   0.01126   0.01267  Uiso   1.00
O27    O     0.40350   0.24200   0.96349   0.01267  Uiso   1.00
O28    O     0.00540   0.91410   0.63272   0.01267  Uiso   1.00
O29    O     0.39260   0.47550   0.96252   0.01267  Uiso   1.00
O30    O     0.72320   0.68890   0.01126   0.01267  Uiso   1.00
O31    O     0.59650   0.75800   0.96349   0.01267  Uiso   1.00
O32    O     0.99460   0.08590   0.63272   0.01267  Uiso   1.00
