data_image0
_cell_length_a       16.119
_cell_length_b       20.898
_cell_length_c       13.325
_cell_angle_alpha    90
_cell_angle_beta     90
_cell_angle_gamma    90

_symmetry_space_group_name_H-M    "P 1"
_symmetry_int_tables_number       1

loop_
  _symmetry_equiv_pos_as_xyz
  'x, y, z'

loop_
  _atom_site_label
  _atom_site_occupancy
  _atom_site_fract_x
  _atom_site_fract_y
  _atom_site_fract_z
  _atom_site_thermal_displace_type
  _atom_site_B_iso_or_equiv
  _atom_site_type_symbol
  Ag1      1.0000 0.50439  0.23614  0.56377  Biso   1.000  Ag
  N1       1.0000 0.40900  0.24680  0.42870  Biso   1.000  N
  C1       1.0000 0.41000  0.29510  0.36390  Biso   1.000  C
  C2       1.0000 0.35470  0.20040  0.41070  Biso   1.000  C
  C3       1.0000 0.36000  0.29810  0.28120  Biso   1.000  C
  C4       1.0000 0.30330  0.19960  0.32890  Biso   1.000  C
  C5       1.0000 0.30480  0.24910  0.26210  Biso   1.000  C
  C6       1.0000 0.25040  0.24960  0.17270  Biso   1.000  C
  C7       1.0000 0.22690  0.19290  0.12440  Biso   1.000  C
  C8       1.0000 0.21680  0.30540  0.13270  Biso   1.000  C
  C9       1.0000 0.17320  0.19470  0.04520  Biso   1.000  C
  C10      1.0000 0.16230  0.30260  0.05500  Biso   1.000  C
  N2       1.0000 0.13820  0.24820  0.01030  Biso   1.000  N
  N3       1.0000 0.51670  0.13350  0.61880  Biso   1.000  N
  C11      1.0000 0.56610  0.11810  0.69210  Biso   1.000  C
  C12      1.0000 0.46960  0.08690  0.58600  Biso   1.000  C
  C13      1.0000 0.57050  0.05890  0.73640  Biso   1.000  C
  C14      1.0000 0.46930  0.02600  0.62680  Biso   1.000  C
  C15      1.0000 0.52070  0.01060  0.70370  Biso   1.000  C
  C16      1.0000 0.52040  0.94560  0.75010  Biso   1.000  C
  C17      1.0000 0.56880  0.93120  0.83020  Biso   1.000  C
  C18      1.0000 0.47130  0.89740  0.71490  Biso   1.000  C
  C19      1.0000 0.56330  0.87250  0.87460  Biso   1.000  C
  C20      1.0000 0.46950  0.83960  0.76320  Biso   1.000  C
  N4       1.0000 0.51360  0.82610  0.84400  Biso   1.000  N
  H1       1.0000 0.44680  0.32860  0.37540  Biso   1.000  H
  H2       1.0000 0.35130  0.16670  0.45610  Biso   1.000  H
  H3       1.0000 0.36310  0.33300  0.23810  Biso   1.000  H
  H4       1.0000 0.26750  0.16530  0.31880  Biso   1.000  H
  H5       1.0000 0.24790  0.15390  0.14640  Biso   1.000  H
  H6       1.0000 0.23180  0.34490  0.15930  Biso   1.000  H
  H7       1.0000 0.16020  0.15630  0.01360  Biso   1.000  H
  H8       1.0000 0.14030  0.34090  0.03130  Biso   1.000  H
  H9       1.0000 0.60130  0.14980  0.71640  Biso   1.000  H
  H10      1.0000 0.43430  0.09520  0.53230  Biso   1.000  H
  H11      1.0000 0.60760  0.05170  0.78880  Biso   1.000  H
  H12      1.0000 0.43340  0.99520  0.60110  Biso   1.000  H
  H13      1.0000 0.60580  0.96140  0.85500  Biso   1.000  H
  H14      1.0000 0.43890  0.90390  0.65800  Biso   1.000  H
  H15      1.0000 0.59670  0.86460  0.93020  Biso   1.000  H
  H16      1.0000 0.43500  0.80790  0.73750  Biso   1.000  H
  Ag2      1.0000 0.49561  0.73614  0.93623  Biso   1.000  Ag
  N5       1.0000 0.59100  0.74680  0.07130  Biso   1.000  N
  C21      1.0000 0.59000  0.79510  0.13610  Biso   1.000  C
  C22      1.0000 0.64530  0.70040  0.08930  Biso   1.000  C
  C23      1.0000 0.64000  0.79810  0.21880  Biso   1.000  C
  C24      1.0000 0.69670  0.69960  0.17110  Biso   1.000  C
  C25      1.0000 0.69520  0.74910  0.23790  Biso   1.000  C
  C26      1.0000 0.74960  0.74960  0.32730  Biso   1.000  C
  C27      1.0000 0.77310  0.69290  0.37560  Biso   1.000  C
  C28      1.0000 0.78320  0.80540  0.36730  Biso   1.000  C
  C29      1.0000 0.82680  0.69470  0.45480  Biso   1.000  C
  C30      1.0000 0.83770  0.80260  0.44500  Biso   1.000  C
  N6       1.0000 0.86180  0.74820  0.48970  Biso   1.000  N
  N7       1.0000 0.48330  0.63350  0.88120  Biso   1.000  N
  C31      1.0000 0.43390  0.61810  0.80790  Biso   1.000  C
  C32      1.0000 0.53040  0.58690  0.91400  Biso   1.000  C
  C33      1.0000 0.42950  0.55890  0.76360  Biso   1.000  C
  C34      1.0000 0.53070  0.52600  0.87320  Biso   1.000  C
  C35      1.0000 0.47930  0.51060  0.79630  Biso   1.000  C
  C36      1.0000 0.47960  0.44560  0.74990  Biso   1.000  C
  C37      1.0000 0.43120  0.43120  0.66980  Biso   1.000  C
  C38      1.0000 0.52870  0.39740  0.78510  Biso   1.000  C
  C39      1.0000 0.43670  0.37250  0.62540  Biso   1.000  C
  C40      1.0000 0.53050  0.33960  0.73680  Biso   1.000  C
  N8       1.0000 0.48640  0.32610  0.65600  Biso   1.000  N
  H17      1.0000 0.55320  0.82860  0.12460  Biso   1.000  H
  H18      1.0000 0.64870  0.66670  0.04390  Biso   1.000  H
  H19      1.0000 0.63690  0.83300  0.26190  Biso   1.000  H
  H20      1.0000 0.73250  0.66530  0.18120  Biso   1.000  H
  H21      1.0000 0.75210  0.65390  0.35360  Biso   1.000  H
  H22      1.0000 0.76820  0.84490  0.34070  Biso   1.000  H
  H23      1.0000 0.83980  0.65630  0.48640  Biso   1.000  H
  H24      1.0000 0.85970  0.84090  0.46870  Biso   1.000  H
  H25      1.0000 0.39870  0.64980  0.78360  Biso   1.000  H
  H26      1.0000 0.56570  0.59520  0.96770  Biso   1.000  H
  H27      1.0000 0.39240  0.55170  0.71120  Biso   1.000  H
  H28      1.0000 0.56660  0.49520  0.89890  Biso   1.000  H
  H29      1.0000 0.39420  0.46140  0.64500  Biso   1.000  H
  H30      1.0000 0.56110  0.40390  0.84200  Biso   1.000  H
  H31      1.0000 0.40330  0.36460  0.56980  Biso   1.000  H
  H32      1.0000 0.56500  0.30790  0.76250  Biso   1.000  H
  Ag3      1.0000 0.00439  0.23614  0.93623  Biso   1.000  Ag
  N9       1.0000 0.90900  0.24680  0.07130  Biso   1.000  N
  C41      1.0000 0.91000  0.29510  0.13610  Biso   1.000  C
  C42      1.0000 0.85470  0.20040  0.08930  Biso   1.000  C
  C43      1.0000 0.86000  0.29810  0.21880  Biso   1.000  C
  C44      1.0000 0.80330  0.19960  0.17110  Biso   1.000  C
  C45      1.0000 0.80480  0.24910  0.23790  Biso   1.000  C
  C46      1.0000 0.75040  0.24960  0.32730  Biso   1.000  C
  C47      1.0000 0.72690  0.19290  0.37560  Biso   1.000  C
  C48      1.0000 0.71680  0.30540  0.36730  Biso   1.000  C
  C49      1.0000 0.67320  0.19470  0.45480  Biso   1.000  C
  C50      1.0000 0.66230  0.30260  0.44500  Biso   1.000  C
  N10      1.0000 0.63820  0.24820  0.48970  Biso   1.000  N
  N11      1.0000 0.01670  0.13350  0.88120  Biso   1.000  N
  C51      1.0000 0.06610  0.11810  0.80790  Biso   1.000  C
  C52      1.0000 0.96960  0.08690  0.91400  Biso   1.000  C
  C53      1.0000 0.07050  0.05890  0.76360  Biso   1.000  C
  C54      1.0000 0.96930  0.02600  0.87320  Biso   1.000  C
  C55      1.0000 0.02070  0.01060  0.79630  Biso   1.000  C
  C56      1.0000 0.02040  0.94560  0.74990  Biso   1.000  C
  C57      1.0000 0.06880  0.93120  0.66980  Biso   1.000  C
  C58      1.0000 0.97130  0.89740  0.78510  Biso   1.000  C
  C59      1.0000 0.06330  0.87250  0.62540  Biso   1.000  C
  C60      1.0000 0.96950  0.83960  0.73680  Biso   1.000  C
  N12      1.0000 0.01360  0.82610  0.65600  Biso   1.000  N
  H33      1.0000 0.94680  0.32860  0.12460  Biso   1.000  H
  H34      1.0000 0.85130  0.16670  0.04390  Biso   1.000  H
  H35      1.0000 0.86310  0.33300  0.26190  Biso   1.000  H
  H36      1.0000 0.76750  0.16530  0.18120  Biso   1.000  H
  H37      1.0000 0.74790  0.15390  0.35360  Biso   1.000  H
  H38      1.0000 0.73180  0.34490  0.34070  Biso   1.000  H
  H39      1.0000 0.66020  0.15630  0.48640  Biso   1.000  H
  H40      1.0000 0.64030  0.34090  0.46870  Biso   1.000  H
  H41      1.0000 0.10130  0.14980  0.78360  Biso   1.000  H
  H42      1.0000 0.93430  0.09520  0.96770  Biso   1.000  H
  H43      1.0000 0.10760  0.05170  0.71120  Biso   1.000  H
  H44      1.0000 0.93340  0.99520  0.89890  Biso   1.000  H
  H45      1.0000 0.10580  0.96140  0.64500  Biso   1.000  H
  H46      1.0000 0.93890  0.90390  0.84200  Biso   1.000  H
  H47      1.0000 0.09670  0.86460  0.56980  Biso   1.000  H
  H48      1.0000 0.93500  0.80790  0.76250  Biso   1.000  H
  Ag4      1.0000 0.99561  0.73614  0.56377  Biso   1.000  Ag
  N13      1.0000 0.09100  0.74680  0.42870  Biso   1.000  N
  C61      1.0000 0.09000  0.79510  0.36390  Biso   1.000  C
  C62      1.0000 0.14530  0.70040  0.41070  Biso   1.000  C
  C63      1.0000 0.14000  0.79810  0.28120  Biso   1.000  C
  C64      1.0000 0.19670  0.69960  0.32890  Biso   1.000  C
  C65      1.0000 0.19520  0.74910  0.26210  Biso   1.000  C
  C66      1.0000 0.24960  0.74960  0.17270  Biso   1.000  C
  C67      1.0000 0.27310  0.69290  0.12440  Biso   1.000  C
  C68      1.0000 0.28320  0.80540  0.13270  Biso   1.000  C
  C69      1.0000 0.32680  0.69470  0.04520  Biso   1.000  C
  C70      1.0000 0.33770  0.80260  0.05500  Biso   1.000  C
  N14      1.0000 0.36180  0.74820  0.01030  Biso   1.000  N
  N15      1.0000 0.98330  0.63350  0.61880  Biso   1.000  N
  C71      1.0000 0.93390  0.61810  0.69210  Biso   1.000  C
  C72      1.0000 0.03040  0.58690  0.58600  Biso   1.000  C
  C73      1.0000 0.92950  0.55890  0.73640  Biso   1.000  C
  C74      1.0000 0.03070  0.52600  0.62680  Biso   1.000  C
  C75      1.0000 0.97930  0.51060  0.70370  Biso   1.000  C
  C76      1.0000 0.97960  0.44560  0.75010  Biso   1.000  C
  C77      1.0000 0.93120  0.43120  0.83020  Biso   1.000  C
  C78      1.0000 0.02870  0.39740  0.71490  Biso   1.000  C
  C79      1.0000 0.93670  0.37250  0.87460  Biso   1.000  C
  C80      1.0000 0.03050  0.33960  0.76320  Biso   1.000  C
  N16      1.0000 0.98640  0.32610  0.84400  Biso   1.000  N
  H49      1.0000 0.05320  0.82860  0.37540  Biso   1.000  H
  H50      1.0000 0.14870  0.66670  0.45610  Biso   1.000  H
  H51      1.0000 0.13690  0.83300  0.23810  Biso   1.000  H
  H52      1.0000 0.23250  0.66530  0.31880  Biso   1.000  H
  H53      1.0000 0.25210  0.65390  0.14640  Biso   1.000  H
  H54      1.0000 0.26820  0.84490  0.15930  Biso   1.000  H
  H55      1.0000 0.33980  0.65630  0.01360  Biso   1.000  H
  H56      1.0000 0.35970  0.84090  0.03130  Biso   1.000  H
  H57      1.0000 0.89870  0.64980  0.71640  Biso   1.000  H
  H58      1.0000 0.06570  0.59520  0.53230  Biso   1.000  H
  H59      1.0000 0.89240  0.55170  0.78880  Biso   1.000  H
  H60      1.0000 0.06660  0.49520  0.60110  Biso   1.000  H
  H61      1.0000 0.89420  0.46140  0.85500  Biso   1.000  H
  H62      1.0000 0.06110  0.40390  0.65800  Biso   1.000  H
  H63      1.0000 0.90330  0.36460  0.93020  Biso   1.000  H
  H64      1.0000 0.06500  0.30790  0.73750  Biso   1.000  H
  Ag5      1.0000 0.99561  0.76386  0.06377  Biso   1.000  Ag
  N17      1.0000 0.09100  0.75320  0.92870  Biso   1.000  N
  C81      1.0000 0.09000  0.70490  0.86390  Biso   1.000  C
  C82      1.0000 0.14530  0.79960  0.91070  Biso   1.000  C
  C83      1.0000 0.14000  0.70190  0.78120  Biso   1.000  C
  C84      1.0000 0.19670  0.80040  0.82890  Biso   1.000  C
  C85      1.0000 0.19520  0.75090  0.76210  Biso   1.000  C
  C86      1.0000 0.24960  0.75040  0.67270  Biso   1.000  C
  C87      1.0000 0.27310  0.80710  0.62440  Biso   1.000  C
  C88      1.0000 0.28320  0.69460  0.63270  Biso   1.000  C
  C89      1.0000 0.32680  0.80530  0.54520  Biso   1.000  C
  C90      1.0000 0.33770  0.69740  0.55500  Biso   1.000  C
  N18      1.0000 0.36180  0.75180  0.51030  Biso   1.000  N
  N19      1.0000 0.98330  0.86650  0.11880  Biso   1.000  N
  C91      1.0000 0.93390  0.88190  0.19210  Biso   1.000  C
  C92      1.0000 0.03040  0.91310  0.08600  Biso   1.000  C
  C93      1.0000 0.92950  0.94110  0.23640  Biso   1.000  C
  C94      1.0000 0.03070  0.97400  0.12680  Biso   1.000  C
  C95      1.0000 0.97930  0.98940  0.20370  Biso   1.000  C
  C96      1.0000 0.97960  0.05440  0.25010  Biso   1.000  C
  C97      1.0000 0.93120  0.06880  0.33020  Biso   1.000  C
  C98      1.0000 0.02870  0.10260  0.21490  Biso   1.000  C
  C99      1.0000 0.93670  0.12750  0.37460  Biso   1.000  C
  C100     1.0000 0.03050  0.16040  0.26320  Biso   1.000  C
  N20      1.0000 0.98640  0.17390  0.34400  Biso   1.000  N
  H65      1.0000 0.05320  0.67140  0.87540  Biso   1.000  H
  H66      1.0000 0.14870  0.83330  0.95610  Biso   1.000  H
  H67      1.0000 0.13690  0.66700  0.73810  Biso   1.000  H
  H68      1.0000 0.23250  0.83470  0.81880  Biso   1.000  H
  H69      1.0000 0.25210  0.84610  0.64640  Biso   1.000  H
  H70      1.0000 0.26820  0.65510  0.65930  Biso   1.000  H
  H71      1.0000 0.33980  0.84370  0.51360  Biso   1.000  H
  H72      1.0000 0.35970  0.65910  0.53130  Biso   1.000  H
  H73      1.0000 0.89870  0.85020  0.21640  Biso   1.000  H
  H74      1.0000 0.06570  0.90480  0.03230  Biso   1.000  H
  H75      1.0000 0.89240  0.94830  0.28880  Biso   1.000  H
  H76      1.0000 0.06660  0.00480  0.10110  Biso   1.000  H
  H77      1.0000 0.89420  0.03860  0.35500  Biso   1.000  H
  H78      1.0000 0.06110  0.09610  0.15800  Biso   1.000  H
  H79      1.0000 0.90330  0.13540  0.43020  Biso   1.000  H
  H80      1.0000 0.06500  0.19210  0.23750  Biso   1.000  H
  Ag6      1.0000 0.00439  0.26386  0.43623  Biso   1.000  Ag
  N21      1.0000 0.90900  0.25320  0.57130  Biso   1.000  N
  C101     1.0000 0.91000  0.20490  0.63610  Biso   1.000  C
  C102     1.0000 0.85470  0.29960  0.58930  Biso   1.000  C
  C103     1.0000 0.86000  0.20190  0.71880  Biso   1.000  C
  C104     1.0000 0.80330  0.30040  0.67110  Biso   1.000  C
  C105     1.0000 0.80480  0.25090  0.73790  Biso   1.000  C
  C106     1.0000 0.75040  0.25040  0.82730  Biso   1.000  C
  C107     1.0000 0.72690  0.30710  0.87560  Biso   1.000  C
  C108     1.0000 0.71680  0.19460  0.86730  Biso   1.000  C
  C109     1.0000 0.67320  0.30530  0.95480  Biso   1.000  C
  C110     1.0000 0.66230  0.19740  0.94500  Biso   1.000  C
  N22      1.0000 0.63820  0.25180  0.98970  Biso   1.000  N
  N23      1.0000 0.01670  0.36650  0.38120  Biso   1.000  N
  C111     1.0000 0.06610  0.38190  0.30790  Biso   1.000  C
  C112     1.0000 0.96960  0.41310  0.41400  Biso   1.000  C
  C113     1.0000 0.07050  0.44110  0.26360  Biso   1.000  C
  C114     1.0000 0.96930  0.47400  0.37320  Biso   1.000  C
  C115     1.0000 0.02070  0.48940  0.29630  Biso   1.000  C
  C116     1.0000 0.02040  0.55440  0.24990  Biso   1.000  C
  C117     1.0000 0.06880  0.56880  0.16980  Biso   1.000  C
  C118     1.0000 0.97130  0.60260  0.28510  Biso   1.000  C
  C119     1.0000 0.06330  0.62750  0.12540  Biso   1.000  C
  C120     1.0000 0.96950  0.66040  0.23680  Biso   1.000  C
  N24      1.0000 0.01360  0.67390  0.15600  Biso   1.000  N
  H81      1.0000 0.94680  0.17140  0.62460  Biso   1.000  H
  H82      1.0000 0.85130  0.33330  0.54390  Biso   1.000  H
  H83      1.0000 0.86310  0.16700  0.76190  Biso   1.000  H
  H84      1.0000 0.76750  0.33470  0.68120  Biso   1.000  H
  H85      1.0000 0.74790  0.34610  0.85360  Biso   1.000  H
  H86      1.0000 0.73180  0.15510  0.84070  Biso   1.000  H
  H87      1.0000 0.66020  0.34370  0.98640  Biso   1.000  H
  H88      1.0000 0.64030  0.15910  0.96870  Biso   1.000  H
  H89      1.0000 0.10130  0.35020  0.28360  Biso   1.000  H
  H90      1.0000 0.93430  0.40480  0.46770  Biso   1.000  H
  H91      1.0000 0.10760  0.44830  0.21120  Biso   1.000  H
  H92      1.0000 0.93340  0.50480  0.39890  Biso   1.000  H
  H93      1.0000 0.10580  0.53860  0.14500  Biso   1.000  H
  H94      1.0000 0.93890  0.59610  0.34200  Biso   1.000  H
  H95      1.0000 0.09670  0.63540  0.06980  Biso   1.000  H
  H96      1.0000 0.93500  0.69210  0.26250  Biso   1.000  H
  Ag7      1.0000 0.49561  0.76386  0.43623  Biso   1.000  Ag
  N25      1.0000 0.59100  0.75320  0.57130  Biso   1.000  N
  C121     1.0000 0.59000  0.70490  0.63610  Biso   1.000  C
  C122     1.0000 0.64530  0.79960  0.58930  Biso   1.000  C
  C123     1.0000 0.64000  0.70190  0.71880  Biso   1.000  C
  C124     1.0000 0.69670  0.80040  0.67110  Biso   1.000  C
  C125     1.0000 0.69520  0.75090  0.73790  Biso   1.000  C
  C126     1.0000 0.74960  0.75040  0.82730  Biso   1.000  C
  C127     1.0000 0.77310  0.80710  0.87560  Biso   1.000  C
  C128     1.0000 0.78320  0.69460  0.86730  Biso   1.000  C
  C129     1.0000 0.82680  0.80530  0.95480  Biso   1.000  C
  C130     1.0000 0.83770  0.69740  0.94500  Biso   1.000  C
  N26      1.0000 0.86180  0.75180  0.98970  Biso   1.000  N
  N27      1.0000 0.48330  0.86650  0.38120  Biso   1.000  N
  C131     1.0000 0.43390  0.88190  0.30790  Biso   1.000  C
  C132     1.0000 0.53040  0.91310  0.41400  Biso   1.000  C
  C133     1.0000 0.42950  0.94110  0.26360  Biso   1.000  C
  C134     1.0000 0.53070  0.97400  0.37320  Biso   1.000  C
  C135     1.0000 0.47930  0.98940  0.29630  Biso   1.000  C
  C136     1.0000 0.47960  0.05440  0.24990  Biso   1.000  C
  C137     1.0000 0.43120  0.06880  0.16980  Biso   1.000  C
  C138     1.0000 0.52870  0.10260  0.28510  Biso   1.000  C
  C139     1.0000 0.43670  0.12750  0.12540  Biso   1.000  C
  C140     1.0000 0.53050  0.16040  0.23680  Biso   1.000  C
  N28      1.0000 0.48640  0.17390  0.15600  Biso   1.000  N
  H97      1.0000 0.55320  0.67140  0.62460  Biso   1.000  H
  H98      1.0000 0.64870  0.83330  0.54390  Biso   1.000  H
  H99      1.0000 0.63690  0.66700  0.76190  Biso   1.000  H
  H100     1.0000 0.73250  0.83470  0.68120  Biso   1.000  H
  H101     1.0000 0.75210  0.84610  0.85360  Biso   1.000  H
  H102     1.0000 0.76820  0.65510  0.84070  Biso   1.000  H
  H103     1.0000 0.83980  0.84370  0.98640  Biso   1.000  H
  H104     1.0000 0.85970  0.65910  0.96870  Biso   1.000  H
  H105     1.0000 0.39870  0.85020  0.28360  Biso   1.000  H
  H106     1.0000 0.56570  0.90480  0.46770  Biso   1.000  H
  H107     1.0000 0.39240  0.94830  0.21120  Biso   1.000  H
  H108     1.0000 0.56660  0.00480  0.39890  Biso   1.000  H
  H109     1.0000 0.39420  0.03860  0.14500  Biso   1.000  H
  H110     1.0000 0.56110  0.09610  0.34200  Biso   1.000  H
  H111     1.0000 0.40330  0.13540  0.06980  Biso   1.000  H
  H112     1.0000 0.56500  0.19210  0.26250  Biso   1.000  H
  Ag8      1.0000 0.50439  0.26386  0.06377  Biso   1.000  Ag
  N29      1.0000 0.40900  0.25320  0.92870  Biso   1.000  N
  C141     1.0000 0.41000  0.20490  0.86390  Biso   1.000  C
  C142     1.0000 0.35470  0.29960  0.91070  Biso   1.000  C
  C143     1.0000 0.36000  0.20190  0.78120  Biso   1.000  C
  C144     1.0000 0.30330  0.30040  0.82890  Biso   1.000  C
  C145     1.0000 0.30480  0.25090  0.76210  Biso   1.000  C
  C146     1.0000 0.25040  0.25040  0.67270  Biso   1.000  C
  C147     1.0000 0.22690  0.30710  0.62440  Biso   1.000  C
  C148     1.0000 0.21680  0.19460  0.63270  Biso   1.000  C
  C149     1.0000 0.17320  0.30530  0.54520  Biso   1.000  C
  C150     1.0000 0.16230  0.19740  0.55500  Biso   1.000  C
  N30      1.0000 0.13820  0.25180  0.51030  Biso   1.000  N
  N31      1.0000 0.51670  0.36650  0.11880  Biso   1.000  N
  C151     1.0000 0.56610  0.38190  0.19210  Biso   1.000  C
  C152     1.0000 0.46960  0.41310  0.08600  Biso   1.000  C
  C153     1.0000 0.57050  0.44110  0.23640  Biso   1.000  C
  C154     1.0000 0.46930  0.47400  0.12680  Biso   1.000  C
  C155     1.0000 0.52070  0.48940  0.20370  Biso   1.000  C
  C156     1.0000 0.52040  0.55440  0.25010  Biso   1.000  C
  C157     1.0000 0.56880  0.56880  0.33020  Biso   1.000  C
  C158     1.0000 0.47130  0.60260  0.21490  Biso   1.000  C
  C159     1.0000 0.56330  0.62750  0.37460  Biso   1.000  C
  C160     1.0000 0.46950  0.66040  0.26320  Biso   1.000  C
  N32      1.0000 0.51360  0.67390  0.34400  Biso   1.000  N
  H113     1.0000 0.44680  0.17140  0.87540  Biso   1.000  H
  H114     1.0000 0.35130  0.33330  0.95610  Biso   1.000  H
  H115     1.0000 0.36310  0.16700  0.73810  Biso   1.000  H
  H116     1.0000 0.26750  0.33470  0.81880  Biso   1.000  H
  H117     1.0000 0.24790  0.34610  0.64640  Biso   1.000  H
  H118     1.0000 0.23180  0.15510  0.65930  Biso   1.000  H
  H119     1.0000 0.16020  0.34370  0.51360  Biso   1.000  H
  H120     1.0000 0.14030  0.15910  0.53130  Biso   1.000  H
  H121     1.0000 0.60130  0.35020  0.21640  Biso   1.000  H
  H122     1.0000 0.43430  0.40480  0.03230  Biso   1.000  H
  H123     1.0000 0.60760  0.44830  0.28880  Biso   1.000  H
  H124     1.0000 0.43340  0.50480  0.10110  Biso   1.000  H
  H125     1.0000 0.60580  0.53860  0.35500  Biso   1.000  H
  H126     1.0000 0.43890  0.59610  0.15800  Biso   1.000  H
  H127     1.0000 0.59670  0.63540  0.43020  Biso   1.000  H
  H128     1.0000 0.43500  0.69210  0.23750  Biso   1.000  H
