data_image0
_cell_length_a       12.269
_cell_length_b       12.269
_cell_length_c       4.822
_cell_angle_alpha    90
_cell_angle_beta     90
_cell_angle_gamma    90

_symmetry_space_group_name_H-M    "P 1"
_symmetry_int_tables_number       1

loop_
  _symmetry_equiv_pos_as_xyz
  'x, y, z'

loop_
  _atom_site_label
  _atom_site_occupancy
  _atom_site_fract_x
  _atom_site_fract_y
  _atom_site_fract_z
  _atom_site_thermal_displace_type
  _atom_site_B_iso_or_equiv
  _atom_site_type_symbol
  C1       1.0000 0.71760  0.08650  0.28500  Biso   1.000  C
  C2       1.0000 0.78660  0.14950  0.44100  Biso   1.000  C
  H1       1.0000 0.74160  0.01810  0.22900  Biso   1.000  H
  H2       1.0000 0.85560  0.12450  0.48900  Biso   1.000  H
  C3       1.0000 0.28240  0.91350  0.28500  Biso   1.000  C
  C4       1.0000 0.21340  0.85050  0.44100  Biso   1.000  C
  H3       1.0000 0.25840  0.98190  0.22900  Biso   1.000  H
  H4       1.0000 0.14440  0.87550  0.48900  Biso   1.000  H
  C5       1.0000 0.91350  0.71760  0.28500  Biso   1.000  C
  C6       1.0000 0.85050  0.78660  0.44100  Biso   1.000  C
  H5       1.0000 0.98190  0.74160  0.22900  Biso   1.000  H
  H6       1.0000 0.87550  0.85560  0.48900  Biso   1.000  H
  C7       1.0000 0.08650  0.28240  0.28500  Biso   1.000  C
  C8       1.0000 0.14950  0.21340  0.44100  Biso   1.000  C
  H7       1.0000 0.01810  0.25840  0.22900  Biso   1.000  H
  H8       1.0000 0.12450  0.14440  0.48900  Biso   1.000  H
  C9       1.0000 0.21760  0.41350  0.28500  Biso   1.000  C
  C10      1.0000 0.28660  0.35050  0.44100  Biso   1.000  C
  H9       1.0000 0.24160  0.48190  0.22900  Biso   1.000  H
  H10      1.0000 0.35560  0.37550  0.48900  Biso   1.000  H
  C11      1.0000 0.78240  0.58650  0.28500  Biso   1.000  C
  C12      1.0000 0.71340  0.64950  0.44100  Biso   1.000  C
  H11      1.0000 0.75840  0.51810  0.22900  Biso   1.000  H
  H12      1.0000 0.64440  0.62450  0.48900  Biso   1.000  H
  C13      1.0000 0.41350  0.78240  0.28500  Biso   1.000  C
  C14      1.0000 0.35050  0.71340  0.44100  Biso   1.000  C
  H13      1.0000 0.48190  0.75840  0.22900  Biso   1.000  H
  H14      1.0000 0.37550  0.64440  0.48900  Biso   1.000  H
  C15      1.0000 0.58650  0.21760  0.28500  Biso   1.000  C
  C16      1.0000 0.64950  0.28660  0.44100  Biso   1.000  C
  H15      1.0000 0.51810  0.24160  0.22900  Biso   1.000  H
  H16      1.0000 0.62450  0.35560  0.48900  Biso   1.000  H
  Ag1      1.0000 0.50000  0.00000  0.00000  Biso   1.000  Ag
  Ag2      1.0000 0.00000  0.50000  0.00000  Biso   1.000  Ag
  N1       1.0000 0.61790  0.11790  0.21000  Biso   1.000  N
  C17      1.0000 0.75100  0.25100  0.52400  Biso   1.000  C
  C18      1.0000 0.82170  0.32170  0.67200  Biso   1.000  C
  N2       1.0000 0.87890  0.37890  0.78300  Biso   1.000  N
  N3       1.0000 0.38210  0.88210  0.21000  Biso   1.000  N
  C19      1.0000 0.24900  0.74900  0.52400  Biso   1.000  C
  C20      1.0000 0.17830  0.67830  0.67200  Biso   1.000  C
  N4       1.0000 0.12110  0.62110  0.78300  Biso   1.000  N
  N5       1.0000 0.88210  0.61790  0.21000  Biso   1.000  N
  C21      1.0000 0.74900  0.75100  0.52400  Biso   1.000  C
  C22      1.0000 0.67830  0.82170  0.67200  Biso   1.000  C
  N6       1.0000 0.62110  0.87890  0.78300  Biso   1.000  N
  N7       1.0000 0.11790  0.38210  0.21000  Biso   1.000  N
  C23      1.0000 0.25100  0.24900  0.52400  Biso   1.000  C
  C24      1.0000 0.32170  0.17830  0.67200  Biso   1.000  C
  N8       1.0000 0.37890  0.12110  0.78300  Biso   1.000  N
