data_YEZFIU_clean
_audit_creation_date              2014-07-02
_audit_creation_method            'Materials Studio'
_symmetry_space_group_name_H-M    'P1'
_symmetry_Int_Tables_number       1
_symmetry_cell_setting            triclinic
loop_
_symmetry_equiv_pos_as_xyz
  x,y,z
_cell_length_a                    13.0478
_cell_length_b                    15.0693
_cell_length_c                    15.0693
_cell_angle_alpha                 67.9726
_cell_angle_beta                  73.2248
_cell_angle_gamma                 106.7750
loop_
_atom_site_label
_atom_site_type_symbol
_atom_site_fract_x
_atom_site_fract_y
_atom_site_fract_z
_atom_site_U_iso_or_equiv
_atom_site_adp_type
_atom_site_occupancy
Zn1    Zn    0.96987   0.71449   0.80881   0.01267  Uiso   1.00
Zn2    Zn    0.77868   0.80881   0.47670   0.01267  Uiso   1.00
Zn3    Zn    0.25538   0.47670   0.71449   0.01267  Uiso   1.00
Zn4    Zn    0.03013   0.28551   0.19119   0.01267  Uiso   1.00
Zn5    Zn    0.22132   0.19119   0.52330   0.01267  Uiso   1.00
Zn6    Zn    0.74462   0.52330   0.28551   0.01267  Uiso   1.00
H1     H     0.26560   0.75290   0.72530   0.01267  Uiso   1.00
H2     H     0.30040   0.65820   0.75720   0.01267  Uiso   1.00
H3     H     0.15730   0.58160   0.93950   0.01267  Uiso   1.00
H4     H     0.26310   0.69270   0.89760   0.01267  Uiso   1.00
H5     H     0.15480   0.74200   0.00720   0.01267  Uiso   1.00
H6     H     0.05620   0.62310   0.06530   0.01267  Uiso   1.00
H7     H     0.97140   0.73350   0.09860   0.01267  Uiso   1.00
H8     H     0.01480   0.80370   0.97530   0.01267  Uiso   1.00
H9     H     0.99090   0.72530   0.52180   0.01267  Uiso   1.00
H10    H     0.05760   0.75720   0.58460   0.01267  Uiso   1.00
H11    H     0.09680   0.93950   0.47890   0.01267  Uiso   1.00
H12    H     0.16070   0.89760   0.40970   0.01267  Uiso   1.00
H13    H     0.16200   0.00720   0.25080   0.01267  Uiso   1.00
H14    H     0.12150   0.06530   0.31160   0.01267  Uiso   1.00
H15    H     0.07000   0.09860   0.16790   0.01267  Uiso   1.00
H16    H     0.99010   0.97530   0.22100   0.01267  Uiso   1.00
H17    H     0.51270   0.52180   0.75290   0.01267  Uiso   1.00
H18    H     0.64220   0.58460   0.65820   0.01267  Uiso   1.00
H19    H     0.57570   0.47890   0.58160   0.01267  Uiso   1.00
H20    H     0.57040   0.40970   0.69270   0.01267  Uiso   1.00
H21    H     0.41280   0.25080   0.74200   0.01267  Uiso   1.00
H22    H     0.43310   0.31160   0.62310   0.01267  Uiso   1.00
H23    H     0.23790   0.16790   0.73350   0.01267  Uiso   1.00
H24    H     0.21110   0.22100   0.80370   0.01267  Uiso   1.00
H25    H     0.73440   0.24710   0.27470   0.01267  Uiso   1.00
H26    H     0.69960   0.34180   0.24280   0.01267  Uiso   1.00
H27    H     0.84270   0.41840   0.06050   0.01267  Uiso   1.00
H28    H     0.73690   0.30730   0.10240   0.01267  Uiso   1.00
H29    H     0.84520   0.25800   0.99280   0.01267  Uiso   1.00
H30    H     0.94380   0.37690   0.93470   0.01267  Uiso   1.00
H31    H     0.02860   0.26650   0.90140   0.01267  Uiso   1.00
H32    H     0.98520   0.19630   0.02470   0.01267  Uiso   1.00
H33    H     0.00910   0.27470   0.47820   0.01267  Uiso   1.00
H34    H     0.94240   0.24280   0.41540   0.01267  Uiso   1.00
H35    H     0.90320   0.06050   0.52110   0.01267  Uiso   1.00
H36    H     0.83930   0.10240   0.59030   0.01267  Uiso   1.00
H37    H     0.83800   0.99280   0.74920   0.01267  Uiso   1.00
H38    H     0.87850   0.93470   0.68840   0.01267  Uiso   1.00
H39    H     0.93000   0.90140   0.83210   0.01267  Uiso   1.00
H40    H     0.00990   0.02470   0.77900   0.01267  Uiso   1.00
H41    H     0.48730   0.47820   0.24710   0.01267  Uiso   1.00
H42    H     0.35780   0.41540   0.34180   0.01267  Uiso   1.00
H43    H     0.42430   0.52110   0.41840   0.01267  Uiso   1.00
H44    H     0.42960   0.59030   0.30730   0.01267  Uiso   1.00
H45    H     0.58720   0.74920   0.25800   0.01267  Uiso   1.00
H46    H     0.56690   0.68840   0.37690   0.01267  Uiso   1.00
H47    H     0.76210   0.83210   0.26650   0.01267  Uiso   1.00
H48    H     0.78890   0.77900   0.19630   0.01267  Uiso   1.00
C1     C     0.13640   0.61380   0.75900   0.01267  Uiso   1.00
C2     C     0.23530   0.67730   0.77450   0.01267  Uiso   1.00
C3     C     0.19470   0.65780   0.88880   0.01267  Uiso   1.00
C4     C     0.08380   0.69550   0.00930   0.01267  Uiso   1.00
C5     C     0.98710   0.73180   0.03240   0.01267  Uiso   1.00
C6     C     0.87400   0.65860   0.04200   0.01267  Uiso   1.00
C7     C     0.89540   0.75900   0.62720   0.01267  Uiso   1.00
C8     C     0.00980   0.77450   0.54820   0.01267  Uiso   1.00
C9     C     0.08350   0.88880   0.45340   0.01267  Uiso   1.00
C10    C     0.09310   0.00930   0.29520   0.01267  Uiso   1.00
C11    C     0.01950   0.03240   0.23580   0.01267  Uiso   1.00
C12    C     0.91600   0.04200   0.29940   0.01267  Uiso   1.00
C13    C     0.52260   0.62720   0.61380   0.01267  Uiso   1.00
C14    C     0.55800   0.54820   0.67730   0.01267  Uiso   1.00
C15    C     0.53690   0.45340   0.65780   0.01267  Uiso   1.00
C16    C     0.38830   0.29520   0.69550   0.01267  Uiso   1.00
C17    C     0.25530   0.23580   0.73180   0.01267  Uiso   1.00
C18    C     0.21540   0.29940   0.65860   0.01267  Uiso   1.00
C19    C     0.86360   0.38620   0.24100   0.01267  Uiso   1.00
C20    C     0.76470   0.32270   0.22550   0.01267  Uiso   1.00
C21    C     0.80530   0.34220   0.11120   0.01267  Uiso   1.00
C22    C     0.91620   0.30450   0.99070   0.01267  Uiso   1.00
C23    C     0.01290   0.26820   0.96760   0.01267  Uiso   1.00
C24    C     0.12600   0.34140   0.95800   0.01267  Uiso   1.00
C25    C     0.10460   0.24100   0.37280   0.01267  Uiso   1.00
C26    C     0.99020   0.22550   0.45180   0.01267  Uiso   1.00
C27    C     0.91650   0.11120   0.54660   0.01267  Uiso   1.00
C28    C     0.90690   0.99070   0.70480   0.01267  Uiso   1.00
C29    C     0.98050   0.96760   0.76420   0.01267  Uiso   1.00
C30    C     0.08400   0.95800   0.70060   0.01267  Uiso   1.00
C31    C     0.47740   0.37280   0.38620   0.01267  Uiso   1.00
C32    C     0.44200   0.45180   0.32270   0.01267  Uiso   1.00
C33    C     0.46310   0.54660   0.34220   0.01267  Uiso   1.00
C34    C     0.61170   0.70480   0.30450   0.01267  Uiso   1.00
C35    C     0.74470   0.76420   0.26820   0.01267  Uiso   1.00
C36    C     0.78460   0.70060   0.34140   0.01267  Uiso   1.00
N1     N     0.03360   0.62120   0.77330   0.01267  Uiso   1.00
N2     N     0.97060   0.54990   0.75060   0.01267  Uiso   1.00
N3     N     0.03150   0.50230   0.72490   0.01267  Uiso   1.00
N4     N     0.13772   0.54144   0.72918   0.01267  Uiso   1.00
N5     N     0.85880   0.65310   0.96060   0.01267  Uiso   1.00
N6     N     0.74610   0.57440   0.00280   0.01267  Uiso   1.00
N7     N     0.69700   0.53570   0.10480   0.01267  Uiso   1.00
N8     N     0.77575   0.58885   0.13140   0.01267  Uiso   1.00
N9     N     0.80690   0.77330   0.60550   0.01267  Uiso   1.00
N10    N     0.72120   0.75060   0.69950   0.01267  Uiso   1.00
N11    N     0.75640   0.72490   0.77280   0.01267  Uiso   1.00
N12    N     0.86690   0.72918   0.72938   0.01267  Uiso   1.00
N13    N     0.81940   0.96060   0.38630   0.01267  Uiso   1.00
N14    N     0.74890   0.00280   0.42280   0.01267  Uiso   1.00
N15    N     0.80180   0.10480   0.35950   0.01267  Uiso   1.00
N16    N     0.90715   0.13140   0.27975   0.01267  Uiso   1.00
N17    N     0.41240   0.60550   0.62120   0.01267  Uiso   1.00
N18    N     0.42070   0.69950   0.54990   0.01267  Uiso   1.00
N19    N     0.52920   0.77280   0.50230   0.01267  Uiso   1.00
N20    N     0.59628   0.72938   0.54144   0.01267  Uiso   1.00
N21    N     0.20570   0.38630   0.65310   0.01267  Uiso   1.00
N22    N     0.17170   0.42280   0.57440   0.01267  Uiso   1.00
N23    N     0.16130   0.35950   0.53570   0.01267  Uiso   1.00
N24    N     0.18690   0.27975   0.58885   0.01267  Uiso   1.00
N25    N     0.96640   0.37880   0.22670   0.01267  Uiso   1.00
N26    N     0.02940   0.45010   0.24940   0.01267  Uiso   1.00
N27    N     0.96850   0.49770   0.27510   0.01267  Uiso   1.00
N28    N     0.86228   0.45856   0.27082   0.01267  Uiso   1.00
N29    N     0.14120   0.34690   0.03940   0.01267  Uiso   1.00
N30    N     0.25390   0.42560   0.99720   0.01267  Uiso   1.00
N31    N     0.30300   0.46430   0.89520   0.01267  Uiso   1.00
N32    N     0.22425   0.41115   0.86860   0.01267  Uiso   1.00
N33    N     0.19310   0.22670   0.39450   0.01267  Uiso   1.00
N34    N     0.27880   0.24940   0.30050   0.01267  Uiso   1.00
N35    N     0.24360   0.27510   0.22720   0.01267  Uiso   1.00
N36    N     0.13310   0.27082   0.27062   0.01267  Uiso   1.00
N37    N     0.18060   0.03940   0.61370   0.01267  Uiso   1.00
N38    N     0.25110   0.99720   0.57720   0.01267  Uiso   1.00
N39    N     0.19820   0.89520   0.64050   0.01267  Uiso   1.00
N40    N     0.09285   0.86860   0.72025   0.01267  Uiso   1.00
N41    N     0.58760   0.39450   0.37880   0.01267  Uiso   1.00
N42    N     0.57930   0.30050   0.45010   0.01267  Uiso   1.00
N43    N     0.47080   0.22720   0.49770   0.01267  Uiso   1.00
N44    N     0.40372   0.27062   0.45856   0.01267  Uiso   1.00
N45    N     0.79430   0.61370   0.34690   0.01267  Uiso   1.00
N46    N     0.82830   0.57720   0.42560   0.01267  Uiso   1.00
N47    N     0.83870   0.64050   0.46430   0.01267  Uiso   1.00
N48    N     0.81310   0.72025   0.41115   0.01267  Uiso   1.00
O1     O     0.11189   0.69971   0.90854   0.01267  Uiso   1.00
O2     O     0.02043   0.90854   0.39175   0.01267  Uiso   1.00
O3     O     0.41218   0.39175   0.69971   0.01267  Uiso   1.00
O4     O     0.88811   0.30029   0.09146   0.01267  Uiso   1.00
O5     O     0.97957   0.09146   0.60825   0.01267  Uiso   1.00
O6     O     0.58782   0.60825   0.30029   0.01267  Uiso   1.00
