data_image0
_cell_length_a       21.0856
_cell_length_b       21.0856
_cell_length_c       17.9678
_cell_angle_alpha    90
_cell_angle_beta     90
_cell_angle_gamma    120

_symmetry_space_group_name_H-M    "P 1"
_symmetry_int_tables_number       1

loop_
  _symmetry_equiv_pos_as_xyz
  'x, y, z'

loop_
  _atom_site_label
  _atom_site_occupancy
  _atom_site_fract_x
  _atom_site_fract_y
  _atom_site_fract_z
  _atom_site_thermal_displace_type
  _atom_site_B_iso_or_equiv
  _atom_site_type_symbol
  C1       1.0000 0.38697  0.52344  0.45564  Biso   1.000  C
  H1       1.0000 0.34420  0.50550  0.48560  Biso   1.000  H
  C2       1.0000 0.41319  0.59053  0.42178  Biso   1.000  C
  H2       1.0000 0.38890  0.61780  0.42910  Biso   1.000  H
  C3       1.0000 0.47551  0.61850  0.37670  Biso   1.000  C
  C4       1.0000 0.50853  0.57537  0.36946  Biso   1.000  C
  H3       1.0000 0.55140  0.59200  0.34010  Biso   1.000  H
  C5       1.0000 0.47837  0.50878  0.40517  Biso   1.000  C
  H4       1.0000 0.50110  0.48010  0.39870  Biso   1.000  H
  C6       1.0000 0.50617  0.69154  0.34390  Biso   1.000  C
  H5       1.0000 0.48440  0.71990  0.35730  Biso   1.000  H
  C7       1.0000 0.56225  0.72102  0.29682  Biso   1.000  C
  H6       1.0000 0.58190  0.69140  0.28100  Biso   1.000  H
  C8       1.0000 0.59611  0.79576  0.26739  Biso   1.000  C
  C9       1.0000 0.65224  0.81898  0.21474  Biso   1.000  C
  H7       1.0000 0.66690  0.78590  0.19660  Biso   1.000  H
  C10      1.0000 0.68616  0.89016  0.18934  Biso   1.000  C
  H8       1.0000 0.72410  0.90490  0.15340  Biso   1.000  H
  C11      1.0000 0.61371  0.91762  0.26325  Biso   1.000  C
  H9       1.0000 0.60040  0.95200  0.28050  Biso   1.000  H
  C12      1.0000 0.57644  0.84690  0.29064  Biso   1.000  C
  H10      1.0000 0.53760  0.83310  0.32520  Biso   1.000  H
  N1       1.0000 0.66835  0.93976  0.21278  Biso   1.000  N
  N2       1.0000 0.41872  0.48211  0.44852  Biso   1.000  N
  O1       1.0000 0.74924  0.01283  0.07876  Biso   1.000  O
  C13      1.0000 0.05364  0.85677  0.78897  Biso   1.000  C
  H11      1.0000 0.01087  0.83883  0.81893  Biso   1.000  H
  C14      1.0000 0.07986  0.92386  0.75511  Biso   1.000  C
  H12      1.0000 0.05557  0.95113  0.76243  Biso   1.000  H
  C15      1.0000 0.14218  0.95183  0.71003  Biso   1.000  C
  C16      1.0000 0.17520  0.90870  0.70279  Biso   1.000  C
  H13      1.0000 0.21807  0.92533  0.67343  Biso   1.000  H
  C17      1.0000 0.14504  0.84211  0.73850  Biso   1.000  C
  H14      1.0000 0.16777  0.81343  0.73203  Biso   1.000  H
  C18      1.0000 0.17284  0.02487  0.67723  Biso   1.000  C
  H15      1.0000 0.15107  0.05323  0.69063  Biso   1.000  H
  C19      1.0000 0.22892  0.05435  0.63015  Biso   1.000  C
  H16      1.0000 0.24857  0.02473  0.61433  Biso   1.000  H
  C20      1.0000 0.26278  0.12909  0.60072  Biso   1.000  C
  C21      1.0000 0.31891  0.15231  0.54807  Biso   1.000  C
  H17      1.0000 0.33357  0.11923  0.52993  Biso   1.000  H
  C22      1.0000 0.35283  0.22349  0.52267  Biso   1.000  C
  H18      1.0000 0.39077  0.23823  0.48673  Biso   1.000  H
  C23      1.0000 0.28038  0.25095  0.59658  Biso   1.000  C
  H19      1.0000 0.26707  0.28533  0.61383  Biso   1.000  H
  C24      1.0000 0.24311  0.18023  0.62397  Biso   1.000  C
  H20      1.0000 0.20427  0.16643  0.65853  Biso   1.000  H
  N3       1.0000 0.33502  0.27309  0.54611  Biso   1.000  N
  N4       1.0000 0.08539  0.81544  0.78185  Biso   1.000  N
  O2       1.0000 0.41591  0.34616  0.41209  Biso   1.000  O
  C25      1.0000 0.72030  0.19011  0.12231  Biso   1.000  C
  H21      1.0000 0.67753  0.17217  0.15227  Biso   1.000  H
  C26      1.0000 0.74652  0.25720  0.08845  Biso   1.000  C
  H22      1.0000 0.72223  0.28447  0.09577  Biso   1.000  H
  C27      1.0000 0.80884  0.28517  0.04337  Biso   1.000  C
  C28      1.0000 0.84186  0.24204  0.03613  Biso   1.000  C
  H23      1.0000 0.88473  0.25867  0.00677  Biso   1.000  H
  C29      1.0000 0.81170  0.17545  0.07184  Biso   1.000  C
  H24      1.0000 0.83443  0.14677  0.06537  Biso   1.000  H
  C30      1.0000 0.83950  0.35821  0.01057  Biso   1.000  C
  H25      1.0000 0.81773  0.38657  0.02397  Biso   1.000  H
  C31      1.0000 0.89558  0.38769  0.96349  Biso   1.000  C
  H26      1.0000 0.91523  0.35807  0.94767  Biso   1.000  H
  C32      1.0000 0.92944  0.46243  0.93406  Biso   1.000  C
  C33      1.0000 0.98557  0.48565  0.88141  Biso   1.000  C
  H27      1.0000 0.00023  0.45257  0.86327  Biso   1.000  H
  C34      1.0000 0.01949  0.55683  0.85601  Biso   1.000  C
  H28      1.0000 0.05743  0.57157  0.82007  Biso   1.000  H
  C35      1.0000 0.94704  0.58429  0.92992  Biso   1.000  C
  H29      1.0000 0.93373  0.61867  0.94717  Biso   1.000  H
  C36      1.0000 0.90977  0.51357  0.95731  Biso   1.000  C
  H30      1.0000 0.87093  0.49977  0.99187  Biso   1.000  H
  N5       1.0000 0.00168  0.60643  0.87945  Biso   1.000  N
  N6       1.0000 0.75205  0.14878  0.11519  Biso   1.000  N
  O3       1.0000 0.08257  0.67950  0.74543  Biso   1.000  O
  C37      1.0000 0.47656  0.86353  0.45564  Biso   1.000  C
  H31      1.0000 0.49450  0.83870  0.48560  Biso   1.000  H
  C38      1.0000 0.40947  0.82266  0.42178  Biso   1.000  C
  H32      1.0000 0.38220  0.77110  0.42910  Biso   1.000  H
  C39      1.0000 0.38150  0.85701  0.37670  Biso   1.000  C
  C40      1.0000 0.42463  0.93316  0.36946  Biso   1.000  C
  H33      1.0000 0.40800  0.95940  0.34010  Biso   1.000  H
  C41      1.0000 0.49122  0.96959  0.40517  Biso   1.000  C
  H34      1.0000 0.51990  0.02100  0.39870  Biso   1.000  H
  C42      1.0000 0.30846  0.81463  0.34390  Biso   1.000  C
  H35      1.0000 0.28010  0.76450  0.35730  Biso   1.000  H
  C43      1.0000 0.27898  0.84123  0.29682  Biso   1.000  C
  H36      1.0000 0.30860  0.89050  0.28100  Biso   1.000  H
  C44      1.0000 0.20424  0.80035  0.26739  Biso   1.000  C
  C45      1.0000 0.18102  0.83326  0.21474  Biso   1.000  C
  H37      1.0000 0.21410  0.88100  0.19660  Biso   1.000  H
  C46      1.0000 0.10984  0.79600  0.18934  Biso   1.000  C
  H38      1.0000 0.09510  0.81920  0.15340  Biso   1.000  H
  C47      1.0000 0.08238  0.69609  0.26325  Biso   1.000  C
  H39      1.0000 0.04800  0.64840  0.28050  Biso   1.000  H
  C48      1.0000 0.15310  0.72954  0.29064  Biso   1.000  C
  H40      1.0000 0.16690  0.70450  0.32520  Biso   1.000  H
  N7       1.0000 0.06024  0.72859  0.21278  Biso   1.000  N
  N8       1.0000 0.51789  0.93661  0.44852  Biso   1.000  N
  O4       1.0000 0.98717  0.73641  0.07876  Biso   1.000  O
  C49      1.0000 0.14323  0.19686  0.78897  Biso   1.000  C
  H41      1.0000 0.16117  0.17203  0.81893  Biso   1.000  H
  C50      1.0000 0.07614  0.15599  0.75511  Biso   1.000  C
  H42      1.0000 0.04887  0.10443  0.76243  Biso   1.000  H
  C51      1.0000 0.04817  0.19034  0.71003  Biso   1.000  C
  C52      1.0000 0.09130  0.26649  0.70279  Biso   1.000  C
  H43      1.0000 0.07467  0.29273  0.67343  Biso   1.000  H
  C53      1.0000 0.15789  0.30292  0.73850  Biso   1.000  C
  H44      1.0000 0.18657  0.35433  0.73203  Biso   1.000  H
  C54      1.0000 0.97513  0.14796  0.67723  Biso   1.000  C
  H45      1.0000 0.94677  0.09783  0.69063  Biso   1.000  H
  C55      1.0000 0.94565  0.17456  0.63015  Biso   1.000  C
  H46      1.0000 0.97527  0.22383  0.61433  Biso   1.000  H
  C56      1.0000 0.87091  0.13368  0.60072  Biso   1.000  C
  C57      1.0000 0.84769  0.16659  0.54807  Biso   1.000  C
  H47      1.0000 0.88077  0.21433  0.52993  Biso   1.000  H
  C58      1.0000 0.77651  0.12933  0.52267  Biso   1.000  C
  H48      1.0000 0.76177  0.15253  0.48673  Biso   1.000  H
  C59      1.0000 0.74905  0.02942  0.59658  Biso   1.000  C
  H49      1.0000 0.71467  0.98173  0.61383  Biso   1.000  H
  C60      1.0000 0.81977  0.06287  0.62397  Biso   1.000  C
  H50      1.0000 0.83357  0.03783  0.65853  Biso   1.000  H
  N9       1.0000 0.72691  0.06192  0.54611  Biso   1.000  N
  N10      1.0000 0.18456  0.26994  0.78185  Biso   1.000  N
  O5       1.0000 0.65384  0.06974  0.41209  Biso   1.000  O
  C61      1.0000 0.80989  0.53020  0.12231  Biso   1.000  C
  H51      1.0000 0.82783  0.50537  0.15227  Biso   1.000  H
  C62      1.0000 0.74280  0.48933  0.08845  Biso   1.000  C
  H52      1.0000 0.71553  0.43777  0.09577  Biso   1.000  H
  C63      1.0000 0.71483  0.52368  0.04337  Biso   1.000  C
  C64      1.0000 0.75796  0.59983  0.03613  Biso   1.000  C
  H53      1.0000 0.74133  0.62607  0.00677  Biso   1.000  H
  C65      1.0000 0.82455  0.63626  0.07184  Biso   1.000  C
  H54      1.0000 0.85323  0.68767  0.06537  Biso   1.000  H
  C66      1.0000 0.64179  0.48130  0.01057  Biso   1.000  C
  H55      1.0000 0.61343  0.43117  0.02397  Biso   1.000  H
  C67      1.0000 0.61231  0.50790  0.96349  Biso   1.000  C
  H56      1.0000 0.64193  0.55717  0.94767  Biso   1.000  H
  C68      1.0000 0.53757  0.46702  0.93406  Biso   1.000  C
  C69      1.0000 0.51435  0.49993  0.88141  Biso   1.000  C
  H57      1.0000 0.54743  0.54767  0.86327  Biso   1.000  H
  C70      1.0000 0.44317  0.46267  0.85601  Biso   1.000  C
  H58      1.0000 0.42843  0.48587  0.82007  Biso   1.000  H
  C71      1.0000 0.41571  0.36276  0.92992  Biso   1.000  C
  H59      1.0000 0.38133  0.31507  0.94717  Biso   1.000  H
  C72      1.0000 0.48643  0.39621  0.95731  Biso   1.000  C
  H60      1.0000 0.50023  0.37117  0.99187  Biso   1.000  H
  N11      1.0000 0.39357  0.39526  0.87945  Biso   1.000  N
  N12      1.0000 0.85122  0.60328  0.11519  Biso   1.000  N
  O6       1.0000 0.32050  0.40308  0.74543  Biso   1.000  O
  C73      1.0000 0.13647  0.61303  0.45564  Biso   1.000  C
  H61      1.0000 0.16130  0.65580  0.48560  Biso   1.000  H
  C74      1.0000 0.17734  0.58681  0.42178  Biso   1.000  C
  H62      1.0000 0.22890  0.61110  0.42910  Biso   1.000  H
  C75      1.0000 0.14299  0.52449  0.37670  Biso   1.000  C
  C76      1.0000 0.06684  0.49147  0.36946  Biso   1.000  C
  H63      1.0000 0.04060  0.44860  0.34010  Biso   1.000  H
  C77      1.0000 0.03041  0.52163  0.40517  Biso   1.000  C
  H64      1.0000 0.97900  0.49890  0.39870  Biso   1.000  H
  C78      1.0000 0.18537  0.49383  0.34390  Biso   1.000  C
  H65      1.0000 0.23550  0.51560  0.35730  Biso   1.000  H
  C79      1.0000 0.15877  0.43775  0.29682  Biso   1.000  C
  H66      1.0000 0.10950  0.41810  0.28100  Biso   1.000  H
  C80      1.0000 0.19965  0.40389  0.26739  Biso   1.000  C
  C81      1.0000 0.16674  0.34776  0.21474  Biso   1.000  C
  H67      1.0000 0.11900  0.33310  0.19660  Biso   1.000  H
  C82      1.0000 0.20400  0.31384  0.18934  Biso   1.000  C
  H68      1.0000 0.18080  0.27590  0.15340  Biso   1.000  H
  C83      1.0000 0.30391  0.38629  0.26325  Biso   1.000  C
  H69      1.0000 0.35160  0.39960  0.28050  Biso   1.000  H
  C84      1.0000 0.27046  0.42356  0.29064  Biso   1.000  C
  H70      1.0000 0.29550  0.46240  0.32520  Biso   1.000  H
  N13      1.0000 0.27141  0.33165  0.21278  Biso   1.000  N
  N14      1.0000 0.06339  0.58128  0.44852  Biso   1.000  N
  O7       1.0000 0.26359  0.25076  0.07876  Biso   1.000  O
  C85      1.0000 0.80314  0.94636  0.78897  Biso   1.000  C
  H71      1.0000 0.82797  0.98913  0.81893  Biso   1.000  H
  C86      1.0000 0.84401  0.92014  0.75511  Biso   1.000  C
  H72      1.0000 0.89557  0.94443  0.76243  Biso   1.000  H
  C87      1.0000 0.80966  0.85782  0.71003  Biso   1.000  C
  C88      1.0000 0.73351  0.82480  0.70279  Biso   1.000  C
  H73      1.0000 0.70727  0.78193  0.67343  Biso   1.000  H
  C89      1.0000 0.69708  0.85496  0.73850  Biso   1.000  C
  H74      1.0000 0.64567  0.83223  0.73203  Biso   1.000  H
  C90      1.0000 0.85204  0.82716  0.67723  Biso   1.000  C
  H75      1.0000 0.90217  0.84893  0.69063  Biso   1.000  H
  C91      1.0000 0.82544  0.77108  0.63015  Biso   1.000  C
  H76      1.0000 0.77617  0.75143  0.61433  Biso   1.000  H
  C92      1.0000 0.86632  0.73722  0.60072  Biso   1.000  C
  C93      1.0000 0.83341  0.68109  0.54807  Biso   1.000  C
  H77      1.0000 0.78567  0.66643  0.52993  Biso   1.000  H
  C94      1.0000 0.87067  0.64717  0.52267  Biso   1.000  C
  H78      1.0000 0.84747  0.60923  0.48673  Biso   1.000  H
  C95      1.0000 0.97058  0.71962  0.59658  Biso   1.000  C
  H79      1.0000 0.01827  0.73293  0.61383  Biso   1.000  H
  C96      1.0000 0.93713  0.75689  0.62397  Biso   1.000  C
  H80      1.0000 0.96217  0.79573  0.65853  Biso   1.000  H
  N15      1.0000 0.93808  0.66498  0.54611  Biso   1.000  N
  N16      1.0000 0.73006  0.91461  0.78185  Biso   1.000  N
  O8       1.0000 0.93026  0.58409  0.41209  Biso   1.000  O
  C97      1.0000 0.46980  0.27970  0.12231  Biso   1.000  C
  H81      1.0000 0.49463  0.32247  0.15227  Biso   1.000  H
  C98      1.0000 0.51067  0.25348  0.08845  Biso   1.000  C
  H82      1.0000 0.56223  0.27777  0.09577  Biso   1.000  H
  C99      1.0000 0.47632  0.19116  0.04337  Biso   1.000  C
  C100     1.0000 0.40017  0.15814  0.03613  Biso   1.000  C
  H83      1.0000 0.37393  0.11527  0.00677  Biso   1.000  H
  C101     1.0000 0.36374  0.18830  0.07184  Biso   1.000  C
  H84      1.0000 0.31233  0.16557  0.06537  Biso   1.000  H
  C102     1.0000 0.51870  0.16050  0.01057  Biso   1.000  C
  H85      1.0000 0.56883  0.18227  0.02397  Biso   1.000  H
  C103     1.0000 0.49210  0.10442  0.96349  Biso   1.000  C
  H86      1.0000 0.44283  0.08477  0.94767  Biso   1.000  H
  C104     1.0000 0.53298  0.07056  0.93406  Biso   1.000  C
  C105     1.0000 0.50007  0.01443  0.88141  Biso   1.000  C
  H87      1.0000 0.45233  0.99977  0.86327  Biso   1.000  H
  C106     1.0000 0.53733  0.98051  0.85601  Biso   1.000  C
  H88      1.0000 0.51413  0.94257  0.82007  Biso   1.000  H
  C107     1.0000 0.63724  0.05296  0.92992  Biso   1.000  C
  H89      1.0000 0.68493  0.06627  0.94717  Biso   1.000  H
  C108     1.0000 0.60379  0.09023  0.95731  Biso   1.000  C
  H90      1.0000 0.62883  0.12907  0.99187  Biso   1.000  H
  N17      1.0000 0.60474  0.99832  0.87945  Biso   1.000  N
  N18      1.0000 0.39672  0.24795  0.11519  Biso   1.000  N
  O9       1.0000 0.59692  0.91743  0.74543  Biso   1.000  O
  C109     1.0000 0.52344  0.38697  0.54436  Biso   1.000  C
  H91      1.0000 0.50550  0.34420  0.51440  Biso   1.000  H
  C110     1.0000 0.59053  0.41319  0.57822  Biso   1.000  C
  H92      1.0000 0.61780  0.38890  0.57090  Biso   1.000  H
  C111     1.0000 0.61850  0.47551  0.62330  Biso   1.000  C
  C112     1.0000 0.57537  0.50853  0.63054  Biso   1.000  C
  H93      1.0000 0.59200  0.55140  0.65990  Biso   1.000  H
  C113     1.0000 0.50878  0.47837  0.59483  Biso   1.000  C
  H94      1.0000 0.48010  0.50110  0.60130  Biso   1.000  H
  C114     1.0000 0.69154  0.50617  0.65610  Biso   1.000  C
  H95      1.0000 0.71990  0.48440  0.64270  Biso   1.000  H
  C115     1.0000 0.72102  0.56225  0.70318  Biso   1.000  C
  H96      1.0000 0.69140  0.58190  0.71900  Biso   1.000  H
  C116     1.0000 0.79576  0.59611  0.73261  Biso   1.000  C
  C117     1.0000 0.81898  0.65224  0.78526  Biso   1.000  C
  H97      1.0000 0.78590  0.66690  0.80340  Biso   1.000  H
  C118     1.0000 0.89016  0.68616  0.81066  Biso   1.000  C
  H98      1.0000 0.90490  0.72410  0.84660  Biso   1.000  H
  C119     1.0000 0.91762  0.61371  0.73675  Biso   1.000  C
  H99      1.0000 0.95200  0.60040  0.71950  Biso   1.000  H
  C120     1.0000 0.84690  0.57644  0.70936  Biso   1.000  C
  H100     1.0000 0.83310  0.53760  0.67480  Biso   1.000  H
  N19      1.0000 0.93976  0.66835  0.78722  Biso   1.000  N
  N20      1.0000 0.48211  0.41872  0.55148  Biso   1.000  N
  O10      1.0000 0.01283  0.74924  0.92124  Biso   1.000  O
  C121     1.0000 0.19011  0.72030  0.87769  Biso   1.000  C
  H101     1.0000 0.17217  0.67753  0.84773  Biso   1.000  H
  C122     1.0000 0.25720  0.74652  0.91155  Biso   1.000  C
  H102     1.0000 0.28447  0.72223  0.90423  Biso   1.000  H
  C123     1.0000 0.28517  0.80884  0.95663  Biso   1.000  C
  C124     1.0000 0.24204  0.84186  0.96387  Biso   1.000  C
  H103     1.0000 0.25867  0.88473  0.99323  Biso   1.000  H
  C125     1.0000 0.17545  0.81170  0.92816  Biso   1.000  C
  H104     1.0000 0.14677  0.83443  0.93463  Biso   1.000  H
  C126     1.0000 0.35821  0.83950  0.98943  Biso   1.000  C
  H105     1.0000 0.38657  0.81773  0.97603  Biso   1.000  H
  C127     1.0000 0.38769  0.89558  0.03651  Biso   1.000  C
  H106     1.0000 0.35807  0.91523  0.05233  Biso   1.000  H
  C128     1.0000 0.46243  0.92944  0.06594  Biso   1.000  C
  C129     1.0000 0.48565  0.98557  0.11859  Biso   1.000  C
  H107     1.0000 0.45257  0.00023  0.13673  Biso   1.000  H
  C130     1.0000 0.55683  0.01949  0.14399  Biso   1.000  C
  H108     1.0000 0.57157  0.05743  0.17993  Biso   1.000  H
  C131     1.0000 0.58429  0.94704  0.07008  Biso   1.000  C
  H109     1.0000 0.61867  0.93373  0.05283  Biso   1.000  H
  C132     1.0000 0.51357  0.90977  0.04269  Biso   1.000  C
  H110     1.0000 0.49977  0.87093  0.00813  Biso   1.000  H
  N21      1.0000 0.60643  0.00168  0.12055  Biso   1.000  N
  N22      1.0000 0.14878  0.75205  0.88481  Biso   1.000  N
  O11      1.0000 0.67950  0.08257  0.25457  Biso   1.000  O
  C133     1.0000 0.85677  0.05364  0.21103  Biso   1.000  C
  H111     1.0000 0.83883  0.01087  0.18107  Biso   1.000  H
  C134     1.0000 0.92386  0.07986  0.24489  Biso   1.000  C
  H112     1.0000 0.95113  0.05557  0.23757  Biso   1.000  H
  C135     1.0000 0.95183  0.14218  0.28997  Biso   1.000  C
  C136     1.0000 0.90870  0.17520  0.29721  Biso   1.000  C
  H113     1.0000 0.92533  0.21807  0.32657  Biso   1.000  H
  C137     1.0000 0.84211  0.14504  0.26150  Biso   1.000  C
  H114     1.0000 0.81343  0.16777  0.26797  Biso   1.000  H
  C138     1.0000 0.02487  0.17284  0.32277  Biso   1.000  C
  H115     1.0000 0.05323  0.15107  0.30937  Biso   1.000  H
  C139     1.0000 0.05435  0.22892  0.36985  Biso   1.000  C
  H116     1.0000 0.02473  0.24857  0.38567  Biso   1.000  H
  C140     1.0000 0.12909  0.26278  0.39928  Biso   1.000  C
  C141     1.0000 0.15231  0.31891  0.45193  Biso   1.000  C
  H117     1.0000 0.11923  0.33357  0.47007  Biso   1.000  H
  C142     1.0000 0.22349  0.35283  0.47733  Biso   1.000  C
  H118     1.0000 0.23823  0.39077  0.51327  Biso   1.000  H
  C143     1.0000 0.25095  0.28038  0.40342  Biso   1.000  C
  H119     1.0000 0.28533  0.26707  0.38617  Biso   1.000  H
  C144     1.0000 0.18023  0.24311  0.37603  Biso   1.000  C
  H120     1.0000 0.16643  0.20427  0.34147  Biso   1.000  H
  N23      1.0000 0.27309  0.33502  0.45389  Biso   1.000  N
  N24      1.0000 0.81544  0.08539  0.21815  Biso   1.000  N
  O12      1.0000 0.34616  0.41591  0.58791  Biso   1.000  O
  C145     1.0000 0.86353  0.47656  0.54436  Biso   1.000  C
  H121     1.0000 0.83870  0.49450  0.51440  Biso   1.000  H
  C146     1.0000 0.82266  0.40947  0.57822  Biso   1.000  C
  H122     1.0000 0.77110  0.38220  0.57090  Biso   1.000  H
  C147     1.0000 0.85701  0.38150  0.62330  Biso   1.000  C
  C148     1.0000 0.93316  0.42463  0.63054  Biso   1.000  C
  H123     1.0000 0.95940  0.40800  0.65990  Biso   1.000  H
  C149     1.0000 0.96959  0.49122  0.59483  Biso   1.000  C
  H124     1.0000 0.02100  0.51990  0.60130  Biso   1.000  H
  C150     1.0000 0.81463  0.30846  0.65610  Biso   1.000  C
  H125     1.0000 0.76450  0.28010  0.64270  Biso   1.000  H
  C151     1.0000 0.84123  0.27898  0.70318  Biso   1.000  C
  H126     1.0000 0.89050  0.30860  0.71900  Biso   1.000  H
  C152     1.0000 0.80035  0.20424  0.73261  Biso   1.000  C
  C153     1.0000 0.83326  0.18102  0.78526  Biso   1.000  C
  H127     1.0000 0.88100  0.21410  0.80340  Biso   1.000  H
  C154     1.0000 0.79600  0.10984  0.81066  Biso   1.000  C
  H128     1.0000 0.81920  0.09510  0.84660  Biso   1.000  H
  C155     1.0000 0.69609  0.08238  0.73675  Biso   1.000  C
  H129     1.0000 0.64840  0.04800  0.71950  Biso   1.000  H
  C156     1.0000 0.72954  0.15310  0.70936  Biso   1.000  C
  H130     1.0000 0.70450  0.16690  0.67480  Biso   1.000  H
  N25      1.0000 0.72859  0.06024  0.78722  Biso   1.000  N
  N26      1.0000 0.93661  0.51789  0.55148  Biso   1.000  N
  O13      1.0000 0.73641  0.98717  0.92124  Biso   1.000  O
  C157     1.0000 0.53020  0.80989  0.87769  Biso   1.000  C
  H131     1.0000 0.50537  0.82783  0.84773  Biso   1.000  H
  C158     1.0000 0.48933  0.74280  0.91155  Biso   1.000  C
  H132     1.0000 0.43777  0.71553  0.90423  Biso   1.000  H
  C159     1.0000 0.52368  0.71483  0.95663  Biso   1.000  C
  C160     1.0000 0.59983  0.75796  0.96387  Biso   1.000  C
  H133     1.0000 0.62607  0.74133  0.99323  Biso   1.000  H
  C161     1.0000 0.63626  0.82455  0.92816  Biso   1.000  C
  H134     1.0000 0.68767  0.85323  0.93463  Biso   1.000  H
  C162     1.0000 0.48130  0.64179  0.98943  Biso   1.000  C
  H135     1.0000 0.43117  0.61343  0.97603  Biso   1.000  H
  C163     1.0000 0.50790  0.61231  0.03651  Biso   1.000  C
  H136     1.0000 0.55717  0.64193  0.05233  Biso   1.000  H
  C164     1.0000 0.46702  0.53757  0.06594  Biso   1.000  C
  C165     1.0000 0.49993  0.51435  0.11859  Biso   1.000  C
  H137     1.0000 0.54767  0.54743  0.13673  Biso   1.000  H
  C166     1.0000 0.46267  0.44317  0.14399  Biso   1.000  C
  H138     1.0000 0.48587  0.42843  0.17993  Biso   1.000  H
  C167     1.0000 0.36276  0.41571  0.07008  Biso   1.000  C
  H139     1.0000 0.31507  0.38133  0.05283  Biso   1.000  H
  C168     1.0000 0.39621  0.48643  0.04269  Biso   1.000  C
  H140     1.0000 0.37117  0.50023  0.00813  Biso   1.000  H
  N27      1.0000 0.39526  0.39357  0.12055  Biso   1.000  N
  N28      1.0000 0.60328  0.85122  0.88481  Biso   1.000  N
  O14      1.0000 0.40308  0.32050  0.25457  Biso   1.000  O
  C169     1.0000 0.19686  0.14323  0.21103  Biso   1.000  C
  H141     1.0000 0.17203  0.16117  0.18107  Biso   1.000  H
  C170     1.0000 0.15599  0.07614  0.24489  Biso   1.000  C
  H142     1.0000 0.10443  0.04887  0.23757  Biso   1.000  H
  C171     1.0000 0.19034  0.04817  0.28997  Biso   1.000  C
  C172     1.0000 0.26649  0.09130  0.29721  Biso   1.000  C
  H143     1.0000 0.29273  0.07467  0.32657  Biso   1.000  H
  C173     1.0000 0.30292  0.15789  0.26150  Biso   1.000  C
  H144     1.0000 0.35433  0.18657  0.26797  Biso   1.000  H
  C174     1.0000 0.14796  0.97513  0.32277  Biso   1.000  C
  H145     1.0000 0.09783  0.94677  0.30937  Biso   1.000  H
  C175     1.0000 0.17456  0.94565  0.36985  Biso   1.000  C
  H146     1.0000 0.22383  0.97527  0.38567  Biso   1.000  H
  C176     1.0000 0.13368  0.87091  0.39928  Biso   1.000  C
  C177     1.0000 0.16659  0.84769  0.45193  Biso   1.000  C
  H147     1.0000 0.21433  0.88077  0.47007  Biso   1.000  H
  C178     1.0000 0.12933  0.77651  0.47733  Biso   1.000  C
  H148     1.0000 0.15253  0.76177  0.51327  Biso   1.000  H
  C179     1.0000 0.02942  0.74905  0.40342  Biso   1.000  C
  H149     1.0000 0.98173  0.71467  0.38617  Biso   1.000  H
  C180     1.0000 0.06287  0.81977  0.37603  Biso   1.000  C
  H150     1.0000 0.03783  0.83357  0.34147  Biso   1.000  H
  N29      1.0000 0.06192  0.72691  0.45389  Biso   1.000  N
  N30      1.0000 0.26994  0.18456  0.21815  Biso   1.000  N
  O15      1.0000 0.06974  0.65384  0.58791  Biso   1.000  O
  C181     1.0000 0.61303  0.13647  0.54436  Biso   1.000  C
  H151     1.0000 0.65580  0.16130  0.51440  Biso   1.000  H
  C182     1.0000 0.58681  0.17734  0.57822  Biso   1.000  C
  H152     1.0000 0.61110  0.22890  0.57090  Biso   1.000  H
  C183     1.0000 0.52449  0.14299  0.62330  Biso   1.000  C
  C184     1.0000 0.49147  0.06684  0.63054  Biso   1.000  C
  H153     1.0000 0.44860  0.04060  0.65990  Biso   1.000  H
  C185     1.0000 0.52163  0.03041  0.59483  Biso   1.000  C
  H154     1.0000 0.49890  0.97900  0.60130  Biso   1.000  H
  C186     1.0000 0.49383  0.18537  0.65610  Biso   1.000  C
  H155     1.0000 0.51560  0.23550  0.64270  Biso   1.000  H
  C187     1.0000 0.43775  0.15877  0.70318  Biso   1.000  C
  H156     1.0000 0.41810  0.10950  0.71900  Biso   1.000  H
  C188     1.0000 0.40389  0.19965  0.73261  Biso   1.000  C
  C189     1.0000 0.34776  0.16674  0.78526  Biso   1.000  C
  H157     1.0000 0.33310  0.11900  0.80340  Biso   1.000  H
  C190     1.0000 0.31384  0.20400  0.81066  Biso   1.000  C
  H158     1.0000 0.27590  0.18080  0.84660  Biso   1.000  H
  C191     1.0000 0.38629  0.30391  0.73675  Biso   1.000  C
  H159     1.0000 0.39960  0.35160  0.71950  Biso   1.000  H
  C192     1.0000 0.42356  0.27046  0.70936  Biso   1.000  C
  H160     1.0000 0.46240  0.29550  0.67480  Biso   1.000  H
  N31      1.0000 0.33165  0.27141  0.78722  Biso   1.000  N
  N32      1.0000 0.58128  0.06339  0.55148  Biso   1.000  N
  O16      1.0000 0.25076  0.26359  0.92124  Biso   1.000  O
  C193     1.0000 0.27970  0.46980  0.87769  Biso   1.000  C
  H161     1.0000 0.32247  0.49463  0.84773  Biso   1.000  H
  C194     1.0000 0.25348  0.51067  0.91155  Biso   1.000  C
  H162     1.0000 0.27777  0.56223  0.90423  Biso   1.000  H
  C195     1.0000 0.19116  0.47632  0.95663  Biso   1.000  C
  C196     1.0000 0.15814  0.40017  0.96387  Biso   1.000  C
  H163     1.0000 0.11527  0.37393  0.99323  Biso   1.000  H
  C197     1.0000 0.18830  0.36374  0.92816  Biso   1.000  C
  H164     1.0000 0.16557  0.31233  0.93463  Biso   1.000  H
  C198     1.0000 0.16050  0.51870  0.98943  Biso   1.000  C
  H165     1.0000 0.18227  0.56883  0.97603  Biso   1.000  H
  C199     1.0000 0.10442  0.49210  0.03651  Biso   1.000  C
  H166     1.0000 0.08477  0.44283  0.05233  Biso   1.000  H
  C200     1.0000 0.07056  0.53298  0.06594  Biso   1.000  C
  C201     1.0000 0.01443  0.50007  0.11859  Biso   1.000  C
  H167     1.0000 0.99977  0.45233  0.13673  Biso   1.000  H
  C202     1.0000 0.98051  0.53733  0.14399  Biso   1.000  C
  H168     1.0000 0.94257  0.51413  0.17993  Biso   1.000  H
  C203     1.0000 0.05296  0.63724  0.07008  Biso   1.000  C
  H169     1.0000 0.06627  0.68493  0.05283  Biso   1.000  H
  C204     1.0000 0.09023  0.60379  0.04269  Biso   1.000  C
  H170     1.0000 0.12907  0.62883  0.00813  Biso   1.000  H
  N33      1.0000 0.99832  0.60474  0.12055  Biso   1.000  N
  N34      1.0000 0.24795  0.39672  0.88481  Biso   1.000  N
  O17      1.0000 0.91743  0.59692  0.25457  Biso   1.000  O
  C205     1.0000 0.94636  0.80314  0.21103  Biso   1.000  C
  H171     1.0000 0.98913  0.82797  0.18107  Biso   1.000  H
  C206     1.0000 0.92014  0.84401  0.24489  Biso   1.000  C
  H172     1.0000 0.94443  0.89557  0.23757  Biso   1.000  H
  C207     1.0000 0.85782  0.80966  0.28997  Biso   1.000  C
  C208     1.0000 0.82480  0.73351  0.29721  Biso   1.000  C
  H173     1.0000 0.78193  0.70727  0.32657  Biso   1.000  H
  C209     1.0000 0.85496  0.69708  0.26150  Biso   1.000  C
  H174     1.0000 0.83223  0.64567  0.26797  Biso   1.000  H
  C210     1.0000 0.82716  0.85204  0.32277  Biso   1.000  C
  H175     1.0000 0.84893  0.90217  0.30937  Biso   1.000  H
  C211     1.0000 0.77108  0.82544  0.36985  Biso   1.000  C
  H176     1.0000 0.75143  0.77617  0.38567  Biso   1.000  H
  C212     1.0000 0.73722  0.86632  0.39928  Biso   1.000  C
  C213     1.0000 0.68109  0.83341  0.45193  Biso   1.000  C
  H177     1.0000 0.66643  0.78567  0.47007  Biso   1.000  H
  C214     1.0000 0.64717  0.87067  0.47733  Biso   1.000  C
  H178     1.0000 0.60923  0.84747  0.51327  Biso   1.000  H
  C215     1.0000 0.71962  0.97058  0.40342  Biso   1.000  C
  H179     1.0000 0.73293  0.01827  0.38617  Biso   1.000  H
  C216     1.0000 0.75689  0.93713  0.37603  Biso   1.000  C
  H180     1.0000 0.79573  0.96217  0.34147  Biso   1.000  H
  N35      1.0000 0.66498  0.93808  0.45389  Biso   1.000  N
  N36      1.0000 0.91461  0.73006  0.21815  Biso   1.000  N
  O18      1.0000 0.58409  0.93026  0.58791  Biso   1.000  O
  Mo1      1.0000 0.79167  0.00000  0.00000  Biso   1.000  Mo
  Mo2      1.0000 0.45833  0.33333  0.33333  Biso   1.000  Mo
  Mo3      1.0000 0.12500  0.66667  0.66667  Biso   1.000  Mo
  Mo4      1.0000 0.00000  0.79167  0.00000  Biso   1.000  Mo
  Mo5      1.0000 0.66667  0.12500  0.33333  Biso   1.000  Mo
  Mo6      1.0000 0.33333  0.45833  0.66667  Biso   1.000  Mo
  Mo7      1.0000 0.20833  0.20833  0.00000  Biso   1.000  Mo
  Mo8      1.0000 0.87500  0.54167  0.33333  Biso   1.000  Mo
  Mo9      1.0000 0.54167  0.87500  0.66667  Biso   1.000  Mo
  Ni1      1.0000 0.71263  0.04596  0.16667  Biso   1.000  Ni
  Ni2      1.0000 0.37930  0.37930  0.50000  Biso   1.000  Ni
  Ni3      1.0000 0.95404  0.66667  0.16667  Biso   1.000  Ni
  Ni4      1.0000 0.62070  0.00000  0.50000  Biso   1.000  Ni
  Ni5      1.0000 0.33333  0.28737  0.16667  Biso   1.000  Ni
  Ni6      1.0000 0.00000  0.62070  0.50000  Biso   1.000  Ni
  Ni7      1.0000 0.04596  0.71263  0.83333  Biso   1.000  Ni
  Ni8      1.0000 0.66667  0.95404  0.83333  Biso   1.000  Ni
  Ni9      1.0000 0.28737  0.33333  0.83333  Biso   1.000  Ni
