data_YEZKIZ_clean
_audit_creation_date              2014-07-02
_audit_creation_method            'Materials Studio'
_symmetry_space_group_name_H-M    'P1'
_symmetry_Int_Tables_number       1
_symmetry_cell_setting            triclinic
loop_
_symmetry_equiv_pos_as_xyz
  x,y,z
_cell_length_a                    13.5424
_cell_length_b                    13.5424
_cell_length_c                    13.5424
_cell_angle_alpha                 102.8580
_cell_angle_beta                  102.8580
_cell_angle_gamma                 102.8580
loop_
_atom_site_label
_atom_site_type_symbol
_atom_site_fract_x
_atom_site_fract_y
_atom_site_fract_z
_atom_site_U_iso_or_equiv
_atom_site_adp_type
_atom_site_occupancy
Cr1    Cr    1.00000   0.21030   0.78970   0.01267  Uiso   1.00
Cr2    Cr    0.78970  -0.00000   0.21030   0.01267  Uiso   1.00
Cr3    Cr    0.21030   0.78970   0.00000   0.01267  Uiso   1.00
Ni1    Ni    0.11593   0.50000   0.88407   0.01267  Uiso   1.00
Ni2    Ni    0.88407   0.11593   0.50000   0.01267  Uiso   1.00
Ni3    Ni    0.50000   0.88407   0.11593   0.01267  Uiso   1.00
H1     H     0.11860   0.37010   0.67550   0.01267  Uiso   1.00
H2     H     0.11740   0.66550   0.75810   0.01267  Uiso   1.00
H3     H     0.14160   0.38170   0.51550   0.01267  Uiso   1.00
H4     H     0.14980   0.34780   0.01860   0.01267  Uiso   1.00
H5     H     0.11330   0.63040   0.09290   0.01267  Uiso   1.00
H6     H     0.13690   0.68570   0.59900   0.01267  Uiso   1.00
H7     H     0.12660   0.62820   0.26420   0.01267  Uiso   1.00
H8     H     0.15040   0.40660   0.36480   0.01267  Uiso   1.00
H9     H     0.16480   0.33770   0.18800   0.01267  Uiso   1.00
H10    H     0.14950   0.61390   0.42270   0.01267  Uiso   1.00
H11    H     0.67550   0.11860   0.37010   0.01267  Uiso   1.00
H12    H     0.75810   0.11740   0.66550   0.01267  Uiso   1.00
H13    H     0.51550   0.14160   0.38170   0.01267  Uiso   1.00
H14    H     0.01860   0.14980   0.34780   0.01267  Uiso   1.00
H15    H     0.09290   0.11330   0.63040   0.01267  Uiso   1.00
H16    H     0.59900   0.13690   0.68570   0.01267  Uiso   1.00
H17    H     0.26420   0.12660   0.62820   0.01267  Uiso   1.00
H18    H     0.36480   0.15040   0.40660   0.01267  Uiso   1.00
H19    H     0.18800   0.16480   0.33770   0.01267  Uiso   1.00
H20    H     0.42270   0.14950   0.61390   0.01267  Uiso   1.00
H21    H     0.37010   0.67550   0.11860   0.01267  Uiso   1.00
H22    H     0.66550   0.75810   0.11740   0.01267  Uiso   1.00
H23    H     0.38170   0.51550   0.14160   0.01267  Uiso   1.00
H24    H     0.34780   0.01860   0.14980   0.01267  Uiso   1.00
H25    H     0.63040   0.09290   0.11330   0.01267  Uiso   1.00
H26    H     0.68570   0.59900   0.13690   0.01267  Uiso   1.00
H27    H     0.62820   0.26420   0.12660   0.01267  Uiso   1.00
H28    H     0.40660   0.36480   0.15040   0.01267  Uiso   1.00
H29    H     0.33770   0.18800   0.16480   0.01267  Uiso   1.00
H30    H     0.61390   0.42270   0.14950   0.01267  Uiso   1.00
H31    H     0.62990   0.88140   0.32450   0.01267  Uiso   1.00
H32    H     0.33450   0.88260   0.24190   0.01267  Uiso   1.00
H33    H     0.61830   0.85840   0.48450   0.01267  Uiso   1.00
H34    H     0.65220   0.85020   0.98140   0.01267  Uiso   1.00
H35    H     0.36960   0.88670   0.90710   0.01267  Uiso   1.00
H36    H     0.31430   0.86310   0.40100   0.01267  Uiso   1.00
H37    H     0.37180   0.87340   0.73580   0.01267  Uiso   1.00
H38    H     0.59340   0.84960   0.63520   0.01267  Uiso   1.00
H39    H     0.66230   0.83520   0.81200   0.01267  Uiso   1.00
H40    H     0.38610   0.85050   0.57730   0.01267  Uiso   1.00
H41    H     0.88140   0.32450   0.62990   0.01267  Uiso   1.00
H42    H     0.88260   0.24190   0.33450   0.01267  Uiso   1.00
H43    H     0.85840   0.48450   0.61830   0.01267  Uiso   1.00
H44    H     0.85020   0.98140   0.65220   0.01267  Uiso   1.00
H45    H     0.88670   0.90710   0.36960   0.01267  Uiso   1.00
H46    H     0.86310   0.40100   0.31430   0.01267  Uiso   1.00
H47    H     0.87340   0.73580   0.37180   0.01267  Uiso   1.00
H48    H     0.84960   0.63520   0.59340   0.01267  Uiso   1.00
H49    H     0.83520   0.81200   0.66230   0.01267  Uiso   1.00
H50    H     0.85050   0.57730   0.38610   0.01267  Uiso   1.00
H51    H     0.32450   0.62990   0.88140   0.01267  Uiso   1.00
H52    H     0.24190   0.33450   0.88260   0.01267  Uiso   1.00
H53    H     0.48450   0.61830   0.85840   0.01267  Uiso   1.00
H54    H     0.98140   0.65220   0.85020   0.01267  Uiso   1.00
H55    H     0.90710   0.36960   0.88670   0.01267  Uiso   1.00
H56    H     0.40100   0.31430   0.86310   0.01267  Uiso   1.00
H57    H     0.73580   0.37180   0.87340   0.01267  Uiso   1.00
H58    H     0.63520   0.59340   0.84960   0.01267  Uiso   1.00
H59    H     0.81200   0.66230   0.83520   0.01267  Uiso   1.00
H60    H     0.57730   0.38610   0.85050   0.01267  Uiso   1.00
C1     C     0.12210   0.43455   0.65924   0.01267  Uiso   1.00
C2     C     0.12094   0.60718   0.70764   0.01267  Uiso   1.00
C3     C     0.13527   0.44055   0.56309   0.01267  Uiso   1.00
C4     C     0.14480   0.40532   0.06898   0.01267  Uiso   1.00
C5     C     0.12350   0.57024   0.11256   0.01267  Uiso   1.00
C6     C     0.14460   0.48120   0.24650   0.01267  Uiso   1.00
C7     C     0.13920   0.53513   0.53628   0.01267  Uiso   1.00
C8     C     0.13300   0.61990   0.61260   0.01267  Uiso   1.00
C9     C     0.13080   0.56920   0.21520   0.01267  Uiso   1.00
C10    C     0.14730   0.47190   0.35270   0.01267  Uiso   1.00
C11    C     0.15320   0.39840   0.17040   0.01267  Uiso   1.00
C12    C     0.14590   0.54683   0.43277   0.01267  Uiso   1.00
C13    C     0.65924   0.12210   0.43455   0.01267  Uiso   1.00
C14    C     0.70764   0.12094   0.60718   0.01267  Uiso   1.00
C15    C     0.56309   0.13527   0.44055   0.01267  Uiso   1.00
C16    C     0.06898   0.14480   0.40532   0.01267  Uiso   1.00
C17    C     0.11256   0.12350   0.57024   0.01267  Uiso   1.00
C18    C     0.24650   0.14460   0.48120   0.01267  Uiso   1.00
C19    C     0.53628   0.13920   0.53513   0.01267  Uiso   1.00
C20    C     0.61260   0.13300   0.61990   0.01267  Uiso   1.00
C21    C     0.21520   0.13080   0.56920   0.01267  Uiso   1.00
C22    C     0.35270   0.14730   0.47190   0.01267  Uiso   1.00
C23    C     0.17040   0.15320   0.39840   0.01267  Uiso   1.00
C24    C     0.43277   0.14590   0.54683   0.01267  Uiso   1.00
C25    C     0.43455   0.65924   0.12210   0.01267  Uiso   1.00
C26    C     0.60718   0.70764   0.12094   0.01267  Uiso   1.00
C27    C     0.44055   0.56309   0.13527   0.01267  Uiso   1.00
C28    C     0.40532   0.06898   0.14480   0.01267  Uiso   1.00
C29    C     0.57024   0.11256   0.12350   0.01267  Uiso   1.00
C30    C     0.48120   0.24650   0.14460   0.01267  Uiso   1.00
C31    C     0.53513   0.53628   0.13920   0.01267  Uiso   1.00
C32    C     0.61990   0.61260   0.13300   0.01267  Uiso   1.00
C33    C     0.56920   0.21520   0.13080   0.01267  Uiso   1.00
C34    C     0.47190   0.35270   0.14730   0.01267  Uiso   1.00
C35    C     0.39840   0.17040   0.15320   0.01267  Uiso   1.00
C36    C     0.54683   0.43277   0.14590   0.01267  Uiso   1.00
C37    C     0.56545   0.87790   0.34076   0.01267  Uiso   1.00
C38    C     0.39282   0.87906   0.29236   0.01267  Uiso   1.00
C39    C     0.55945   0.86473   0.43691   0.01267  Uiso   1.00
C40    C     0.59468   0.85520   0.93102   0.01267  Uiso   1.00
C41    C     0.42976   0.87650   0.88744   0.01267  Uiso   1.00
C42    C     0.51880   0.85540   0.75350   0.01267  Uiso   1.00
C43    C     0.46487   0.86080   0.46372   0.01267  Uiso   1.00
C44    C     0.38010   0.86700   0.38740   0.01267  Uiso   1.00
C45    C     0.43080   0.86920   0.78480   0.01267  Uiso   1.00
C46    C     0.52810   0.85270   0.64730   0.01267  Uiso   1.00
C47    C     0.60160   0.84680   0.82960   0.01267  Uiso   1.00
C48    C     0.45317   0.85410   0.56723   0.01267  Uiso   1.00
C49    C     0.87790   0.34076   0.56545   0.01267  Uiso   1.00
C50    C     0.87906   0.29236   0.39282   0.01267  Uiso   1.00
C51    C     0.86473   0.43691   0.55945   0.01267  Uiso   1.00
C52    C     0.85520   0.93102   0.59468   0.01267  Uiso   1.00
C53    C     0.87650   0.88744   0.42976   0.01267  Uiso   1.00
C54    C     0.85540   0.75350   0.51880   0.01267  Uiso   1.00
C55    C     0.86080   0.46372   0.46487   0.01267  Uiso   1.00
C56    C     0.86700   0.38740   0.38010   0.01267  Uiso   1.00
C57    C     0.86920   0.78480   0.43080   0.01267  Uiso   1.00
C58    C     0.85270   0.64730   0.52810   0.01267  Uiso   1.00
C59    C     0.84680   0.82960   0.60160   0.01267  Uiso   1.00
C60    C     0.85410   0.56723   0.45317   0.01267  Uiso   1.00
C61    C     0.34076   0.56545   0.87790   0.01267  Uiso   1.00
C62    C     0.29236   0.39282   0.87906   0.01267  Uiso   1.00
C63    C     0.43691   0.55945   0.86473   0.01267  Uiso   1.00
C64    C     0.93102   0.59468   0.85520   0.01267  Uiso   1.00
C65    C     0.88744   0.42976   0.87650   0.01267  Uiso   1.00
C66    C     0.75350   0.51880   0.85540   0.01267  Uiso   1.00
C67    C     0.46372   0.46487   0.86080   0.01267  Uiso   1.00
C68    C     0.38740   0.38010   0.86700   0.01267  Uiso   1.00
C69    C     0.78480   0.43080   0.86920   0.01267  Uiso   1.00
C70    C     0.64730   0.52810   0.85270   0.01267  Uiso   1.00
C71    C     0.82960   0.60160   0.84680   0.01267  Uiso   1.00
C72    C     0.56723   0.45317   0.85410   0.01267  Uiso   1.00
N1     N     0.11406   0.51573   0.73148   0.01267  Uiso   1.00
N2     N     0.13002   0.48909   0.03902   0.01267  Uiso   1.00
N3     N     0.73148   0.11406   0.51573   0.01267  Uiso   1.00
N4     N     0.03902   0.13002   0.48909   0.01267  Uiso   1.00
N5     N     0.51573   0.73148   0.11406   0.01267  Uiso   1.00
N6     N     0.48909   0.03902   0.13002   0.01267  Uiso   1.00
N7     N     0.48427   0.88594   0.26852   0.01267  Uiso   1.00
N8     N     0.51091   0.86998   0.96098   0.01267  Uiso   1.00
N9     N     0.88594   0.26852   0.48427   0.01267  Uiso   1.00
N10    N     0.86998   0.96098   0.51091   0.01267  Uiso   1.00
N11    N     0.26852   0.48427   0.88594   0.01267  Uiso   1.00
N12    N     0.96098   0.51091   0.86998   0.01267  Uiso   1.00
O1     O     0.05718   0.33902   0.82770   0.01267  Uiso   1.00
O2     O     0.82770   0.05718   0.33902   0.01267  Uiso   1.00
O3     O     0.33902   0.82770   0.05718   0.01267  Uiso   1.00
O4     O     0.66098   0.94282   0.17230   0.01267  Uiso   1.00
O5     O     0.94282   0.17230   0.66098   0.01267  Uiso   1.00
O6     O     0.17230   0.66098   0.94282   0.01267  Uiso   1.00
