data_YEZKOF_clean
_audit_creation_date              2014-07-02
_audit_creation_method            'Materials Studio'
_symmetry_space_group_name_H-M    'P1'
_symmetry_Int_Tables_number       1
_symmetry_cell_setting            triclinic
loop_
_symmetry_equiv_pos_as_xyz
  x,y,z
_cell_length_a                    13.6822
_cell_length_b                    13.6822
_cell_length_c                    13.6822
_cell_angle_alpha                 102.3530
_cell_angle_beta                  102.3530
_cell_angle_gamma                 102.3530
loop_
_atom_site_label
_atom_site_type_symbol
_atom_site_fract_x
_atom_site_fract_y
_atom_site_fract_z
_atom_site_U_iso_or_equiv
_atom_site_adp_type
_atom_site_occupancy
Co1    Co    0.88292   0.50000   0.11708   0.01267  Uiso   1.00
Co2    Co    0.11708   0.88292   0.50000   0.01267  Uiso   1.00
Co3    Co    0.50000   0.11708   0.88292   0.01267  Uiso   1.00
Mo1    Mo    0.79279   0.20721   0.00000   0.01267  Uiso   1.00
Mo2    Mo    0.00000   0.79279   0.20721   0.01267  Uiso   1.00
Mo3    Mo    0.20721   0.00000   0.79279   0.01267  Uiso   1.00
H1     H     0.88160   0.33660   0.24830   0.01267  Uiso   1.00
H2     H     0.86560   0.31750   0.40730   0.01267  Uiso   1.00
H3     H     0.86040   0.61650   0.48700   0.01267  Uiso   1.00
H4     H     0.87930   0.62810   0.32720   0.01267  Uiso   1.00
H5     H     0.85750   0.38920   0.58190   0.01267  Uiso   1.00
H6     H     0.85120   0.59260   0.63620   0.01267  Uiso   1.00
H7     H     0.82350   0.65570   0.80630   0.01267  Uiso   1.00
H8     H     0.83520   0.64430   0.97370   0.01267  Uiso   1.00
H9     H     0.90100   0.37830   0.91080   0.01267  Uiso   1.00
H10    H     0.88960   0.38040   0.74190   0.01267  Uiso   1.00
H11    H     0.24830   0.88160   0.33660   0.01267  Uiso   1.00
H12    H     0.40730   0.86560   0.31750   0.01267  Uiso   1.00
H13    H     0.48700   0.86040   0.61650   0.01267  Uiso   1.00
H14    H     0.32720   0.87930   0.62810   0.01267  Uiso   1.00
H15    H     0.58190   0.85750   0.38920   0.01267  Uiso   1.00
H16    H     0.63620   0.85120   0.59260   0.01267  Uiso   1.00
H17    H     0.80630   0.82350   0.65570   0.01267  Uiso   1.00
H18    H     0.97370   0.83520   0.64430   0.01267  Uiso   1.00
H19    H     0.91080   0.90100   0.37830   0.01267  Uiso   1.00
H20    H     0.74190   0.88960   0.38040   0.01267  Uiso   1.00
H21    H     0.33660   0.24830   0.88160   0.01267  Uiso   1.00
H22    H     0.31750   0.40730   0.86560   0.01267  Uiso   1.00
H23    H     0.61650   0.48700   0.86040   0.01267  Uiso   1.00
H24    H     0.62810   0.32720   0.87930   0.01267  Uiso   1.00
H25    H     0.38920   0.58190   0.85750   0.01267  Uiso   1.00
H26    H     0.59260   0.63620   0.85120   0.01267  Uiso   1.00
H27    H     0.65570   0.80630   0.82350   0.01267  Uiso   1.00
H28    H     0.64430   0.97370   0.83520   0.01267  Uiso   1.00
H29    H     0.37830   0.91080   0.90100   0.01267  Uiso   1.00
H30    H     0.38040   0.74190   0.88960   0.01267  Uiso   1.00
H31    H     0.66340   0.11840   0.75170   0.01267  Uiso   1.00
H32    H     0.68250   0.13440   0.59270   0.01267  Uiso   1.00
H33    H     0.38350   0.13960   0.51300   0.01267  Uiso   1.00
H34    H     0.37190   0.12070   0.67280   0.01267  Uiso   1.00
H35    H     0.61080   0.14250   0.41810   0.01267  Uiso   1.00
H36    H     0.40740   0.14880   0.36380   0.01267  Uiso   1.00
H37    H     0.34430   0.17650   0.19370   0.01267  Uiso   1.00
H38    H     0.35570   0.16480   0.02630   0.01267  Uiso   1.00
H39    H     0.62170   0.09900   0.08920   0.01267  Uiso   1.00
H40    H     0.61960   0.11040   0.25810   0.01267  Uiso   1.00
H41    H     0.11840   0.75170   0.66340   0.01267  Uiso   1.00
H42    H     0.13440   0.59270   0.68250   0.01267  Uiso   1.00
H43    H     0.13960   0.51300   0.38350   0.01267  Uiso   1.00
H44    H     0.12070   0.67280   0.37190   0.01267  Uiso   1.00
H45    H     0.14250   0.41810   0.61080   0.01267  Uiso   1.00
H46    H     0.14880   0.36380   0.40740   0.01267  Uiso   1.00
H47    H     0.17650   0.19370   0.34430   0.01267  Uiso   1.00
H48    H     0.16480   0.02630   0.35570   0.01267  Uiso   1.00
H49    H     0.09900   0.08920   0.62170   0.01267  Uiso   1.00
H50    H     0.11040   0.25810   0.61960   0.01267  Uiso   1.00
H51    H     0.75170   0.66340   0.11840   0.01267  Uiso   1.00
H52    H     0.59270   0.68250   0.13440   0.01267  Uiso   1.00
H53    H     0.51300   0.38350   0.13960   0.01267  Uiso   1.00
H54    H     0.67280   0.37190   0.12070   0.01267  Uiso   1.00
H55    H     0.41810   0.61080   0.14250   0.01267  Uiso   1.00
H56    H     0.36380   0.40740   0.14880   0.01267  Uiso   1.00
H57    H     0.19370   0.34430   0.17650   0.01267  Uiso   1.00
H58    H     0.02630   0.35570   0.16480   0.01267  Uiso   1.00
H59    H     0.08920   0.62170   0.09900   0.01267  Uiso   1.00
H60    H     0.25810   0.61960   0.11040   0.01267  Uiso   1.00
C1     C     0.87853   0.39437   0.29782   0.01267  Uiso   1.00
C2     C     0.86876   0.38214   0.39290   0.01267  Uiso   1.00
C3     C     0.86369   0.46612   0.46753   0.01267  Uiso   1.00
C4     C     0.86609   0.55837   0.43984   0.01267  Uiso   1.00
C5     C     0.87677   0.56464   0.34381   0.01267  Uiso   1.00
C6     C     0.85860   0.45465   0.57055   0.01267  Uiso   1.00
C7     C     0.85530   0.52860   0.64900   0.01267  Uiso   1.00
C8     C     0.85750   0.51898   0.75452   0.01267  Uiso   1.00
C9     C     0.84000   0.59810   0.82610   0.01267  Uiso   1.00
C10    C     0.84714   0.59047   0.92619   0.01267  Uiso   1.00
C11    C     0.88520   0.43531   0.88948   0.01267  Uiso   1.00
C12    C     0.87910   0.43620   0.78810   0.01267  Uiso   1.00
C13    C     0.29782   0.87853   0.39437   0.01267  Uiso   1.00
C14    C     0.39290   0.86876   0.38214   0.01267  Uiso   1.00
C15    C     0.46753   0.86369   0.46612   0.01267  Uiso   1.00
C16    C     0.43984   0.86609   0.55837   0.01267  Uiso   1.00
C17    C     0.34381   0.87677   0.56464   0.01267  Uiso   1.00
C18    C     0.57055   0.85860   0.45465   0.01267  Uiso   1.00
C19    C     0.64900   0.85530   0.52860   0.01267  Uiso   1.00
C20    C     0.75452   0.85750   0.51898   0.01267  Uiso   1.00
C21    C     0.82610   0.84000   0.59810   0.01267  Uiso   1.00
C22    C     0.92619   0.84714   0.59047   0.01267  Uiso   1.00
C23    C     0.88948   0.88520   0.43531   0.01267  Uiso   1.00
C24    C     0.78810   0.87910   0.43620   0.01267  Uiso   1.00
C25    C     0.39437   0.29782   0.87853   0.01267  Uiso   1.00
C26    C     0.38214   0.39290   0.86876   0.01267  Uiso   1.00
C27    C     0.46612   0.46753   0.86369   0.01267  Uiso   1.00
C28    C     0.55837   0.43984   0.86609   0.01267  Uiso   1.00
C29    C     0.56464   0.34381   0.87677   0.01267  Uiso   1.00
C30    C     0.45465   0.57055   0.85860   0.01267  Uiso   1.00
C31    C     0.52860   0.64900   0.85530   0.01267  Uiso   1.00
C32    C     0.51898   0.75452   0.85750   0.01267  Uiso   1.00
C33    C     0.59810   0.82610   0.84000   0.01267  Uiso   1.00
C34    C     0.59047   0.92619   0.84714   0.01267  Uiso   1.00
C35    C     0.43531   0.88948   0.88520   0.01267  Uiso   1.00
C36    C     0.43620   0.78810   0.87910   0.01267  Uiso   1.00
C37    C     0.60563   0.12147   0.70218   0.01267  Uiso   1.00
C38    C     0.61786   0.13124   0.60710   0.01267  Uiso   1.00
C39    C     0.53388   0.13631   0.53247   0.01267  Uiso   1.00
C40    C     0.44163   0.13391   0.56016   0.01267  Uiso   1.00
C41    C     0.43536   0.12323   0.65619   0.01267  Uiso   1.00
C42    C     0.54535   0.14140   0.42945   0.01267  Uiso   1.00
C43    C     0.47140   0.14470   0.35100   0.01267  Uiso   1.00
C44    C     0.48102   0.14250   0.24548   0.01267  Uiso   1.00
C45    C     0.40190   0.16000   0.17390   0.01267  Uiso   1.00
C46    C     0.40953   0.15286   0.07381   0.01267  Uiso   1.00
C47    C     0.56469   0.11480   0.11052   0.01267  Uiso   1.00
C48    C     0.56380   0.12090   0.21190   0.01267  Uiso   1.00
C49    C     0.12147   0.70218   0.60563   0.01267  Uiso   1.00
C50    C     0.13124   0.60710   0.61786   0.01267  Uiso   1.00
C51    C     0.13631   0.53247   0.53388   0.01267  Uiso   1.00
C52    C     0.13391   0.56016   0.44163   0.01267  Uiso   1.00
C53    C     0.12323   0.65619   0.43536   0.01267  Uiso   1.00
C54    C     0.14140   0.42945   0.54535   0.01267  Uiso   1.00
C55    C     0.14470   0.35100   0.47140   0.01267  Uiso   1.00
C56    C     0.14250   0.24548   0.48102   0.01267  Uiso   1.00
C57    C     0.16000   0.17390   0.40190   0.01267  Uiso   1.00
C58    C     0.15286   0.07381   0.40953   0.01267  Uiso   1.00
C59    C     0.11480   0.11052   0.56469   0.01267  Uiso   1.00
C60    C     0.12090   0.21190   0.56380   0.01267  Uiso   1.00
C61    C     0.70218   0.60563   0.12147   0.01267  Uiso   1.00
C62    C     0.60710   0.61786   0.13124   0.01267  Uiso   1.00
C63    C     0.53247   0.53388   0.13631   0.01267  Uiso   1.00
C64    C     0.56016   0.44163   0.13391   0.01267  Uiso   1.00
C65    C     0.65619   0.43536   0.12323   0.01267  Uiso   1.00
C66    C     0.42945   0.54535   0.14140   0.01267  Uiso   1.00
C67    C     0.35100   0.47140   0.14470   0.01267  Uiso   1.00
C68    C     0.24548   0.48102   0.14250   0.01267  Uiso   1.00
C69    C     0.17390   0.40190   0.16000   0.01267  Uiso   1.00
C70    C     0.07381   0.40953   0.15286   0.01267  Uiso   1.00
C71    C     0.11052   0.56469   0.11480   0.01267  Uiso   1.00
C72    C     0.21190   0.56380   0.12090   0.01267  Uiso   1.00
N1     N     0.86985   0.51102   0.95935   0.01267  Uiso   1.00
N2     N     0.88379   0.48380   0.27225   0.01267  Uiso   1.00
N3     N     0.95935   0.86985   0.51102   0.01267  Uiso   1.00
N4     N     0.27225   0.88379   0.48380   0.01267  Uiso   1.00
N5     N     0.51102   0.95935   0.86985   0.01267  Uiso   1.00
N6     N     0.48380   0.27225   0.88379   0.01267  Uiso   1.00
N7     N     0.48898   0.13015   0.04065   0.01267  Uiso   1.00
N8     N     0.51620   0.11621   0.72775   0.01267  Uiso   1.00
N9     N     0.13015   0.04065   0.48898   0.01267  Uiso   1.00
N10    N     0.11621   0.72775   0.51620   0.01267  Uiso   1.00
N11    N     0.04065   0.48898   0.13015   0.01267  Uiso   1.00
N12    N     0.72775   0.51620   0.11621   0.01267  Uiso   1.00
O1     O     0.83125   0.34225   0.06134   0.01267  Uiso   1.00
O2     O     0.06134   0.83125   0.34225   0.01267  Uiso   1.00
O3     O     0.34225   0.06134   0.83125   0.01267  Uiso   1.00
O4     O     0.65775   0.16875   0.93866   0.01267  Uiso   1.00
O5     O     0.16875   0.93866   0.65775   0.01267  Uiso   1.00
O6     O     0.93866   0.65775   0.16875   0.01267  Uiso   1.00
