data_YEZKEV_clean
_audit_creation_date              2014-07-02
_audit_creation_method            'Materials Studio'
_symmetry_space_group_name_H-M    'P1'
_symmetry_Int_Tables_number       1
_symmetry_cell_setting            triclinic
loop_
_symmetry_equiv_pos_as_xyz
  x,y,z
_cell_length_a                    13.6618
_cell_length_b                    13.6618
_cell_length_c                    13.6618
_cell_angle_alpha                 103.2440
_cell_angle_beta                  103.2440
_cell_angle_gamma                 103.2440
loop_
_atom_site_label
_atom_site_type_symbol
_atom_site_fract_x
_atom_site_fract_y
_atom_site_fract_z
_atom_site_U_iso_or_equiv
_atom_site_adp_type
_atom_site_occupancy
Cr1    Cr    0.50000   0.28698   0.71302   0.01267  Uiso   1.00
Cr2    Cr    0.71302   0.50000   0.28698   0.01267  Uiso   1.00
Cr3    Cr    0.28698   0.71302   0.50000   0.01267  Uiso   1.00
Co1    Co    0.61809   0.38191  -0.00000   0.01267  Uiso   1.00
Co2    Co    0.00000   0.61809   0.38191   0.01267  Uiso   1.00
Co3    Co    0.38191  -0.00000   0.61809   0.01267  Uiso   1.00
H1     H     0.07940   0.34980   0.88720   0.01267  Uiso   1.00
H2     H     0.23690   0.36940   0.87330   0.01267  Uiso   1.00
H3     H     0.31440   0.33300   0.16070   0.01267  Uiso   1.00
H4     H     0.90440   0.36300   0.81530   0.01267  Uiso   1.00
H5     H     0.74530   0.37730   0.83560   0.01267  Uiso   1.00
H6     H     0.48300   0.35350   0.15340   0.01267  Uiso   1.00
H7     H     0.13800   0.35060   0.09240   0.01267  Uiso   1.00
H8     H     0.40430   0.37770   0.87010   0.01267  Uiso   1.00
H9     H     0.99030   0.35960   0.11860   0.01267  Uiso   1.00
H10    H     0.82880   0.38290   0.12990   0.01267  Uiso   1.00
H11    H     0.88720   0.07940   0.34980   0.01267  Uiso   1.00
H12    H     0.87330   0.23690   0.36940   0.01267  Uiso   1.00
H13    H     0.16070   0.31440   0.33300   0.01267  Uiso   1.00
H14    H     0.81530   0.90440   0.36300   0.01267  Uiso   1.00
H15    H     0.83560   0.74530   0.37730   0.01267  Uiso   1.00
H16    H     0.15340   0.48300   0.35350   0.01267  Uiso   1.00
H17    H     0.09240   0.13800   0.35060   0.01267  Uiso   1.00
H18    H     0.87010   0.40430   0.37770   0.01267  Uiso   1.00
H19    H     0.11860   0.99030   0.35960   0.01267  Uiso   1.00
H20    H     0.12990   0.82880   0.38290   0.01267  Uiso   1.00
H21    H     0.34980   0.88720   0.07940   0.01267  Uiso   1.00
H22    H     0.36940   0.87330   0.23690   0.01267  Uiso   1.00
H23    H     0.33300   0.16070   0.31440   0.01267  Uiso   1.00
H24    H     0.36300   0.81530   0.90440   0.01267  Uiso   1.00
H25    H     0.37730   0.83560   0.74530   0.01267  Uiso   1.00
H26    H     0.35350   0.15340   0.48300   0.01267  Uiso   1.00
H27    H     0.35060   0.09240   0.13800   0.01267  Uiso   1.00
H28    H     0.37770   0.87010   0.40430   0.01267  Uiso   1.00
H29    H     0.35960   0.11860   0.99030   0.01267  Uiso   1.00
H30    H     0.38290   0.12990   0.82880   0.01267  Uiso   1.00
H31    H     0.65020   0.92060   0.11280   0.01267  Uiso   1.00
H32    H     0.63060   0.76310   0.12670   0.01267  Uiso   1.00
H33    H     0.66700   0.68560   0.83930   0.01267  Uiso   1.00
H34    H     0.63700   0.09560   0.18470   0.01267  Uiso   1.00
H35    H     0.62270   0.25470   0.16440   0.01267  Uiso   1.00
H36    H     0.64650   0.51700   0.84660   0.01267  Uiso   1.00
H37    H     0.64940   0.86200   0.90760   0.01267  Uiso   1.00
H38    H     0.62230   0.59570   0.12990   0.01267  Uiso   1.00
H39    H     0.64040   0.00970   0.88140   0.01267  Uiso   1.00
H40    H     0.61710   0.17120   0.87010   0.01267  Uiso   1.00
H41    H     0.92060   0.11280   0.65020   0.01267  Uiso   1.00
H42    H     0.76310   0.12670   0.63060   0.01267  Uiso   1.00
H43    H     0.68560   0.83930   0.66700   0.01267  Uiso   1.00
H44    H     0.09560   0.18470   0.63700   0.01267  Uiso   1.00
H45    H     0.25470   0.16440   0.62270   0.01267  Uiso   1.00
H46    H     0.51700   0.84660   0.64650   0.01267  Uiso   1.00
H47    H     0.86200   0.90760   0.64940   0.01267  Uiso   1.00
H48    H     0.59570   0.12990   0.62230   0.01267  Uiso   1.00
H49    H     0.00970   0.88140   0.64040   0.01267  Uiso   1.00
H50    H     0.17120   0.87010   0.61710   0.01267  Uiso   1.00
H51    H     0.11280   0.65020   0.92060   0.01267  Uiso   1.00
H52    H     0.12670   0.63060   0.76310   0.01267  Uiso   1.00
H53    H     0.83930   0.66700   0.68560   0.01267  Uiso   1.00
H54    H     0.18470   0.63700   0.09560   0.01267  Uiso   1.00
H55    H     0.16440   0.62270   0.25470   0.01267  Uiso   1.00
H56    H     0.84660   0.64650   0.51700   0.01267  Uiso   1.00
H57    H     0.90760   0.64940   0.86200   0.01267  Uiso   1.00
H58    H     0.12990   0.62230   0.59570   0.01267  Uiso   1.00
H59    H     0.88140   0.64040   0.00970   0.01267  Uiso   1.00
H60    H     0.87010   0.61710   0.17120   0.01267  Uiso   1.00
C1     C     0.07000   0.35430   0.95390   0.01267  Uiso   1.00
C2     C     0.28560   0.36590   0.93220   0.01267  Uiso   1.00
C3     C     0.33170   0.34610   0.10120   0.01267  Uiso   1.00
C4     C     0.25520   0.35540   0.02020   0.01267  Uiso   1.00
C5     C     0.89160   0.36640   0.88050   0.01267  Uiso   1.00
C6     C     0.79660   0.37570   0.89390   0.01267  Uiso   1.00
C7     C     0.43190   0.35560   0.09530   0.01267  Uiso   1.00
C8     C     0.96840   0.36180   0.96490   0.01267  Uiso   1.00
C9     C     0.14990   0.35320   0.02780   0.01267  Uiso   1.00
C10    C     0.38620   0.37110   0.93110   0.01267  Uiso   1.00
C11    C     0.94250   0.36540   0.06010   0.01267  Uiso   1.00
C12    C     0.84470   0.37780   0.06600   0.01267  Uiso   1.00
C13    C     0.95390   0.07000   0.35430   0.01267  Uiso   1.00
C14    C     0.93220   0.28560   0.36590   0.01267  Uiso   1.00
C15    C     0.10120   0.33170   0.34610   0.01267  Uiso   1.00
C16    C     0.02020   0.25520   0.35540   0.01267  Uiso   1.00
C17    C     0.88050   0.89160   0.36640   0.01267  Uiso   1.00
C18    C     0.89390   0.79660   0.37570   0.01267  Uiso   1.00
C19    C     0.09530   0.43190   0.35560   0.01267  Uiso   1.00
C20    C     0.96490   0.96840   0.36180   0.01267  Uiso   1.00
C21    C     0.02780   0.14990   0.35320   0.01267  Uiso   1.00
C22    C     0.93110   0.38620   0.37110   0.01267  Uiso   1.00
C23    C     0.06010   0.94250   0.36540   0.01267  Uiso   1.00
C24    C     0.06600   0.84470   0.37780   0.01267  Uiso   1.00
C25    C     0.35430   0.95390   0.07000   0.01267  Uiso   1.00
C26    C     0.36590   0.93220   0.28560   0.01267  Uiso   1.00
C27    C     0.34610   0.10120   0.33170   0.01267  Uiso   1.00
C28    C     0.35540   0.02020   0.25520   0.01267  Uiso   1.00
C29    C     0.36640   0.88050   0.89160   0.01267  Uiso   1.00
C30    C     0.37570   0.89390   0.79660   0.01267  Uiso   1.00
C31    C     0.35560   0.09530   0.43190   0.01267  Uiso   1.00
C32    C     0.36180   0.96490   0.96840   0.01267  Uiso   1.00
C33    C     0.35320   0.02780   0.14990   0.01267  Uiso   1.00
C34    C     0.37110   0.93110   0.38620   0.01267  Uiso   1.00
C35    C     0.36540   0.06010   0.94250   0.01267  Uiso   1.00
C36    C     0.37780   0.06600   0.84470   0.01267  Uiso   1.00
C37    C     0.64570   0.93000   0.04610   0.01267  Uiso   1.00
C38    C     0.63410   0.71440   0.06780   0.01267  Uiso   1.00
C39    C     0.65390   0.66830   0.89880   0.01267  Uiso   1.00
C40    C     0.64460   0.74480   0.97980   0.01267  Uiso   1.00
C41    C     0.63360   0.10840   0.11950   0.01267  Uiso   1.00
C42    C     0.62430   0.20340   0.10610   0.01267  Uiso   1.00
C43    C     0.64440   0.56810   0.90470   0.01267  Uiso   1.00
C44    C     0.63820   0.03160   0.03510   0.01267  Uiso   1.00
C45    C     0.64680   0.85010   0.97220   0.01267  Uiso   1.00
C46    C     0.62890   0.61380   0.06890   0.01267  Uiso   1.00
C47    C     0.63460   0.05750   0.93990   0.01267  Uiso   1.00
C48    C     0.62220   0.15530   0.93400   0.01267  Uiso   1.00
C49    C     0.93000   0.04610   0.64570   0.01267  Uiso   1.00
C50    C     0.71440   0.06780   0.63410   0.01267  Uiso   1.00
C51    C     0.66830   0.89880   0.65390   0.01267  Uiso   1.00
C52    C     0.74480   0.97980   0.64460   0.01267  Uiso   1.00
C53    C     0.10840   0.11950   0.63360   0.01267  Uiso   1.00
C54    C     0.20340   0.10610   0.62430   0.01267  Uiso   1.00
C55    C     0.56810   0.90470   0.64440   0.01267  Uiso   1.00
C56    C     0.03160   0.03510   0.63820   0.01267  Uiso   1.00
C57    C     0.85010   0.97220   0.64680   0.01267  Uiso   1.00
C58    C     0.61380   0.06890   0.62890   0.01267  Uiso   1.00
C59    C     0.05750   0.93990   0.63460   0.01267  Uiso   1.00
C60    C     0.15530   0.93400   0.62220   0.01267  Uiso   1.00
C61    C     0.04610   0.64570   0.93000   0.01267  Uiso   1.00
C62    C     0.06780   0.63410   0.71440   0.01267  Uiso   1.00
C63    C     0.89880   0.65390   0.66830   0.01267  Uiso   1.00
C64    C     0.97980   0.64460   0.74480   0.01267  Uiso   1.00
C65    C     0.11950   0.63360   0.10840   0.01267  Uiso   1.00
C66    C     0.10610   0.62430   0.20340   0.01267  Uiso   1.00
C67    C     0.90470   0.64440   0.56810   0.01267  Uiso   1.00
C68    C     0.03510   0.63820   0.03160   0.01267  Uiso   1.00
C69    C     0.97220   0.64680   0.85010   0.01267  Uiso   1.00
C70    C     0.06890   0.62890   0.61380   0.01267  Uiso   1.00
C71    C     0.93990   0.63460   0.05750   0.01267  Uiso   1.00
C72    C     0.93400   0.62220   0.15530   0.01267  Uiso   1.00
N1     N     0.45992   0.36752   0.01132   0.01267  Uiso   1.00
N2     N     0.77313   0.38257   0.98310   0.01267  Uiso   1.00
N3     N     0.01132   0.45992   0.36752   0.01267  Uiso   1.00
N4     N     0.98310   0.77313   0.38257   0.01267  Uiso   1.00
N5     N     0.36752   0.01132   0.45992   0.01267  Uiso   1.00
N6     N     0.38257   0.98310   0.77313   0.01267  Uiso   1.00
N7     N     0.63248   0.54008   0.98868   0.01267  Uiso   1.00
N8     N     0.61743   0.22687   0.01690   0.01267  Uiso   1.00
N9     N     0.54008   0.98868   0.63248   0.01267  Uiso   1.00
N10    N     0.22687   0.01690   0.61743   0.01267  Uiso   1.00
N11    N     0.98868   0.63248   0.54008   0.01267  Uiso   1.00
N12    N     0.01690   0.61743   0.22687   0.01267  Uiso   1.00
O1     O     0.55842   0.32566   0.84018   0.01267  Uiso   1.00
O2     O     0.84018   0.55842   0.32566   0.01267  Uiso   1.00
O3     O     0.32566   0.84018   0.55842   0.01267  Uiso   1.00
O4     O     0.67434   0.44158   0.15982   0.01267  Uiso   1.00
O5     O     0.44158   0.15982   0.67434   0.01267  Uiso   1.00
O6     O     0.15982   0.67434   0.44158   0.01267  Uiso   1.00
