data_image0
_cell_length_a       13.9411
_cell_length_b       17.0817
_cell_length_c       7.668
_cell_angle_alpha    90
_cell_angle_beta     91.974
_cell_angle_gamma    90

_symmetry_space_group_name_H-M    "P 1"
_symmetry_int_tables_number       1

loop_
  _symmetry_equiv_pos_as_xyz
  'x, y, z'

loop_
  _atom_site_label
  _atom_site_occupancy
  _atom_site_fract_x
  _atom_site_fract_y
  _atom_site_fract_z
  _atom_site_thermal_displace_type
  _atom_site_B_iso_or_equiv
  _atom_site_type_symbol
  Cd1      1.0000 0.12674  0.52202  0.35893  Biso   1.000  Cd
  O1       1.0000 0.08620  0.47160  0.62470  Biso   1.000  O
  O2       1.0000 0.97690  0.38170  0.67320  Biso   1.000  O
  O3       1.0000 0.07330  0.10240  0.75020  Biso   1.000  O
  O4       1.0000 0.22370  0.07060  0.73140  Biso   1.000  O
  O5       1.0000 0.75960  0.38200  0.71130  Biso   1.000  O
  O6       1.0000 0.72620  0.44360  0.46670  Biso   1.000  O
  C1       1.0000 0.06390  0.40230  0.65110  Biso   1.000  C
  C2       1.0000 0.16010  0.12080  0.72050  Biso   1.000  C
  C3       1.0000 0.13880  0.34020  0.65420  Biso   1.000  C
  C4       1.0000 0.11390  0.26190  0.68050  Biso   1.000  C
  H1       1.0000 0.05000  0.24840  0.69450  Biso   1.000  H
  C5       1.0000 0.18460  0.20390  0.68580  Biso   1.000  C
  C6       1.0000 0.27950  0.22520  0.66270  Biso   1.000  C
  H2       1.0000 0.32660  0.18660  0.66360  Biso   1.000  H
  C7       1.0000 0.30590  0.30320  0.63820  Biso   1.000  C
  C8       1.0000 0.23380  0.35970  0.63420  Biso   1.000  C
  H3       1.0000 0.25020  0.41180  0.61770  Biso   1.000  H
  C9       1.0000 0.70140  0.40040  0.58710  Biso   1.000  C
  C10      1.0000 0.60110  0.37070  0.59320  Biso   1.000  C
  C11      1.0000 0.52950  0.40540  0.49130  Biso   1.000  C
  H4       1.0000 0.54620  0.44460  0.41380  Biso   1.000  H
  C12      1.0000 0.43360  0.38420  0.50000  Biso   1.000  C
  H5       1.0000 0.38670  0.40850  0.42980  Biso   1.000  H
  C13      1.0000 0.40930  0.32480  0.61810  Biso   1.000  C
  C14      1.0000 0.48090  0.28730  0.71660  Biso   1.000  C
  H6       1.0000 0.46510  0.24610  0.78950  Biso   1.000  H
  C15      1.0000 0.57550  0.31080  0.70700  Biso   1.000  C
  H7       1.0000 0.62250  0.28660  0.77690  Biso   1.000  H
  Cd2      1.0000 0.87326  0.02202  0.14107  Biso   1.000  Cd
  O7       1.0000 0.91380  0.97160  0.87530  Biso   1.000  O
  O8       1.0000 0.02310  0.88170  0.82680  Biso   1.000  O
  O9       1.0000 0.92670  0.60240  0.74980  Biso   1.000  O
  O10      1.0000 0.77630  0.57060  0.76860  Biso   1.000  O
  O11      1.0000 0.24040  0.88200  0.78870  Biso   1.000  O
  O12      1.0000 0.27380  0.94360  0.03330  Biso   1.000  O
  C16      1.0000 0.93610  0.90230  0.84890  Biso   1.000  C
  C17      1.0000 0.83990  0.62080  0.77950  Biso   1.000  C
  C18      1.0000 0.86120  0.84020  0.84580  Biso   1.000  C
  C19      1.0000 0.88610  0.76190  0.81950  Biso   1.000  C
  H8       1.0000 0.95000  0.74840  0.80550  Biso   1.000  H
  C20      1.0000 0.81540  0.70390  0.81420  Biso   1.000  C
  C21      1.0000 0.72050  0.72520  0.83730  Biso   1.000  C
  H9       1.0000 0.67340  0.68660  0.83640  Biso   1.000  H
  C22      1.0000 0.69410  0.80320  0.86180  Biso   1.000  C
  C23      1.0000 0.76620  0.85970  0.86580  Biso   1.000  C
  H10      1.0000 0.74980  0.91180  0.88230  Biso   1.000  H
  C24      1.0000 0.29860  0.90040  0.91290  Biso   1.000  C
  C25      1.0000 0.39890  0.87070  0.90680  Biso   1.000  C
  C26      1.0000 0.47050  0.90540  0.00870  Biso   1.000  C
  H11      1.0000 0.45380  0.94460  0.08620  Biso   1.000  H
  C27      1.0000 0.56640  0.88420  0.00000  Biso   1.000  C
  H12      1.0000 0.61330  0.90850  0.07020  Biso   1.000  H
  C28      1.0000 0.59070  0.82480  0.88190  Biso   1.000  C
  C29      1.0000 0.51910  0.78730  0.78340  Biso   1.000  C
  H13      1.0000 0.53490  0.74610  0.71050  Biso   1.000  H
  C30      1.0000 0.42450  0.81080  0.79300  Biso   1.000  C
  H14      1.0000 0.37750  0.78660  0.72310  Biso   1.000  H
  Cd3      1.0000 0.87326  0.47798  0.64107  Biso   1.000  Cd
  O13      1.0000 0.91380  0.52840  0.37530  Biso   1.000  O
  O14      1.0000 0.02310  0.61830  0.32680  Biso   1.000  O
  O15      1.0000 0.92670  0.89760  0.24980  Biso   1.000  O
  O16      1.0000 0.77630  0.92940  0.26860  Biso   1.000  O
  O17      1.0000 0.24040  0.61800  0.28870  Biso   1.000  O
  O18      1.0000 0.27380  0.55640  0.53330  Biso   1.000  O
  C31      1.0000 0.93610  0.59770  0.34890  Biso   1.000  C
  C32      1.0000 0.83990  0.87920  0.27950  Biso   1.000  C
  C33      1.0000 0.86120  0.65980  0.34580  Biso   1.000  C
  C34      1.0000 0.88610  0.73810  0.31950  Biso   1.000  C
  H15      1.0000 0.95000  0.75160  0.30550  Biso   1.000  H
  C35      1.0000 0.81540  0.79610  0.31420  Biso   1.000  C
  C36      1.0000 0.72050  0.77480  0.33730  Biso   1.000  C
  H16      1.0000 0.67340  0.81340  0.33640  Biso   1.000  H
  C37      1.0000 0.69410  0.69680  0.36180  Biso   1.000  C
  C38      1.0000 0.76620  0.64030  0.36580  Biso   1.000  C
  H17      1.0000 0.74980  0.58820  0.38230  Biso   1.000  H
  C39      1.0000 0.29860  0.59960  0.41290  Biso   1.000  C
  C40      1.0000 0.39890  0.62930  0.40680  Biso   1.000  C
  C41      1.0000 0.47050  0.59460  0.50870  Biso   1.000  C
  H18      1.0000 0.45380  0.55540  0.58620  Biso   1.000  H
  C42      1.0000 0.56640  0.61580  0.50000  Biso   1.000  C
  H19      1.0000 0.61330  0.59150  0.57020  Biso   1.000  H
  C43      1.0000 0.59070  0.67520  0.38190  Biso   1.000  C
  C44      1.0000 0.51910  0.71270  0.28340  Biso   1.000  C
  H20      1.0000 0.53490  0.75390  0.21050  Biso   1.000  H
  C45      1.0000 0.42450  0.68920  0.29300  Biso   1.000  C
  H21      1.0000 0.37750  0.71340  0.22310  Biso   1.000  H
  Cd4      1.0000 0.12674  0.97798  0.85893  Biso   1.000  Cd
  O19      1.0000 0.08620  0.02840  0.12470  Biso   1.000  O
  O20      1.0000 0.97690  0.11830  0.17320  Biso   1.000  O
  O21      1.0000 0.07330  0.39760  0.25020  Biso   1.000  O
  O22      1.0000 0.22370  0.42940  0.23140  Biso   1.000  O
  O23      1.0000 0.75960  0.11800  0.21130  Biso   1.000  O
  O24      1.0000 0.72620  0.05640  0.96670  Biso   1.000  O
  C46      1.0000 0.06390  0.09770  0.15110  Biso   1.000  C
  C47      1.0000 0.16010  0.37920  0.22050  Biso   1.000  C
  C48      1.0000 0.13880  0.15980  0.15420  Biso   1.000  C
  C49      1.0000 0.11390  0.23810  0.18050  Biso   1.000  C
  H22      1.0000 0.05000  0.25160  0.19450  Biso   1.000  H
  C50      1.0000 0.18460  0.29610  0.18580  Biso   1.000  C
  C51      1.0000 0.27950  0.27480  0.16270  Biso   1.000  C
  H23      1.0000 0.32660  0.31340  0.16360  Biso   1.000  H
  C52      1.0000 0.30590  0.19680  0.13820  Biso   1.000  C
  C53      1.0000 0.23380  0.14030  0.13420  Biso   1.000  C
  H24      1.0000 0.25020  0.08820  0.11770  Biso   1.000  H
  C54      1.0000 0.70140  0.09960  0.08710  Biso   1.000  C
  C55      1.0000 0.60110  0.12930  0.09320  Biso   1.000  C
  C56      1.0000 0.52950  0.09460  0.99130  Biso   1.000  C
  H25      1.0000 0.54620  0.05540  0.91380  Biso   1.000  H
  C57      1.0000 0.43360  0.11580  0.00000  Biso   1.000  C
  H26      1.0000 0.38670  0.09150  0.92980  Biso   1.000  H
  C58      1.0000 0.40930  0.17520  0.11810  Biso   1.000  C
  C59      1.0000 0.48090  0.21270  0.21660  Biso   1.000  C
  H27      1.0000 0.46510  0.25390  0.28950  Biso   1.000  H
  C60      1.0000 0.57550  0.18920  0.20700  Biso   1.000  C
  H28      1.0000 0.62250  0.21340  0.27690  Biso   1.000  H
