data_image0
_cell_length_a       13.656
_cell_length_b       16.807
_cell_length_c       8.237
_cell_angle_alpha    90
_cell_angle_beta     99.089
_cell_angle_gamma    90

_symmetry_space_group_name_H-M    "P 1"
_symmetry_int_tables_number       1

loop_
  _symmetry_equiv_pos_as_xyz
  'x, y, z'

loop_
  _atom_site_label
  _atom_site_occupancy
  _atom_site_fract_x
  _atom_site_fract_y
  _atom_site_fract_z
  _atom_site_thermal_displace_type
  _atom_site_B_iso_or_equiv
  _atom_site_type_symbol
  Zn1      1.0000 0.86331  0.02289  0.87141  Biso   1.000  Zn
  O1       1.0000 0.18070  0.42750  0.75210  Biso   1.000  O
  O2       1.0000 0.95800  0.10360  0.82160  Biso   1.000  O
  O3       1.0000 0.08250  0.02134  0.90610  Biso   1.000  O
  O4       1.0000 0.74280  0.06830  0.93710  Biso   1.000  O
  O5       1.0000 0.73600  0.12950  0.69690  Biso   1.000  O
  C1       1.0000 0.15570  0.29190  0.80350  Biso   1.000  C
  C2       1.0000 0.08900  0.23170  0.82150  Biso   1.000  C
  H1       1.0000 0.02220  0.24360  0.81840  Biso   1.000  H
  C3       1.0000 0.12140  0.15370  0.84410  Biso   1.000  C
  C4       1.0000 0.22200  0.13660  0.85320  Biso   1.000  C
  H2       1.0000 0.24400  0.08460  0.87280  Biso   1.000  H
  C5       1.0000 0.28970  0.19600  0.83360  Biso   1.000  C
  C6       1.0000 0.25550  0.27420  0.80870  Biso   1.000  C
  H3       1.0000 0.30000  0.31460  0.79540  Biso   1.000  H
  C7       1.0000 0.39590  0.17680  0.83560  Biso   1.000  C
  C8       1.0000 0.45050  0.21500  0.73020  Biso   1.000  C
  H4       1.0000 0.42090  0.25490  0.66120  Biso   1.000  H
  C9       1.0000 0.54850  0.19450  0.72610  Biso   1.000  C
  H5       1.0000 0.58290  0.21930  0.65130  Biso   1.000  H
  C10      1.0000 0.59530  0.13790  0.83210  Biso   1.000  C
  C11      1.0000 0.54340  0.10210  0.94280  Biso   1.000  C
  H6       1.0000 0.57520  0.06530  0.01740  Biso   1.000  H
  C12      1.0000 0.44350  0.12040  0.94450  Biso   1.000  C
  H7       1.0000 0.40890  0.09480  0.01820  Biso   1.000  H
  C13      1.0000 0.12000  0.37670  0.78050  Biso   1.000  C
  C14      1.0000 0.05020  0.08780  0.86230  Biso   1.000  C
  C15      1.0000 0.69890  0.11160  0.81900  Biso   1.000  C
  O6       1.0000 0.03380  0.39130  0.78620  Biso   1.000  O
  Zn2      1.0000 0.13669  0.52289  0.62859  Biso   1.000  Zn
  O7       1.0000 0.81930  0.92750  0.74790  Biso   1.000  O
  O8       1.0000 0.04200  0.60360  0.67840  Biso   1.000  O
  O9       1.0000 0.91750  0.52134  0.59390  Biso   1.000  O
  O10      1.0000 0.25720  0.56830  0.56290  Biso   1.000  O
  O11      1.0000 0.26400  0.62950  0.80310  Biso   1.000  O
  C16      1.0000 0.84430  0.79190  0.69650  Biso   1.000  C
  C17      1.0000 0.91100  0.73170  0.67850  Biso   1.000  C
  H8       1.0000 0.97780  0.74360  0.68160  Biso   1.000  H
  C18      1.0000 0.87860  0.65370  0.65590  Biso   1.000  C
  C19      1.0000 0.77800  0.63660  0.64680  Biso   1.000  C
  H9       1.0000 0.75600  0.58460  0.62720  Biso   1.000  H
  C20      1.0000 0.71030  0.69600  0.66640  Biso   1.000  C
  C21      1.0000 0.74450  0.77420  0.69130  Biso   1.000  C
  H10      1.0000 0.70000  0.81460  0.70460  Biso   1.000  H
  C22      1.0000 0.60410  0.67680  0.66440  Biso   1.000  C
  C23      1.0000 0.54950  0.71500  0.76980  Biso   1.000  C
  H11      1.0000 0.57910  0.75490  0.83880  Biso   1.000  H
  C24      1.0000 0.45150  0.69450  0.77390  Biso   1.000  C
  H12      1.0000 0.41710  0.71930  0.84870  Biso   1.000  H
  C25      1.0000 0.40470  0.63790  0.66790  Biso   1.000  C
  C26      1.0000 0.45660  0.60210  0.55720  Biso   1.000  C
  H13      1.0000 0.42480  0.56530  0.48260  Biso   1.000  H
  C27      1.0000 0.55650  0.62040  0.55550  Biso   1.000  C
  H14      1.0000 0.59110  0.59480  0.48180  Biso   1.000  H
  C28      1.0000 0.88000  0.87670  0.71950  Biso   1.000  C
  C29      1.0000 0.94980  0.58780  0.63770  Biso   1.000  C
  C30      1.0000 0.30110  0.61160  0.68100  Biso   1.000  C
  O12      1.0000 0.96620  0.89130  0.71380  Biso   1.000  O
  Zn3      1.0000 0.13669  0.97711  0.12859  Biso   1.000  Zn
  O13      1.0000 0.81930  0.57250  0.24790  Biso   1.000  O
  O14      1.0000 0.04200  0.89640  0.17840  Biso   1.000  O
  O15      1.0000 0.91750  0.97866  0.09390  Biso   1.000  O
  O16      1.0000 0.25720  0.93170  0.06290  Biso   1.000  O
  O17      1.0000 0.26400  0.87050  0.30310  Biso   1.000  O
  C31      1.0000 0.84430  0.70810  0.19650  Biso   1.000  C
  C32      1.0000 0.91100  0.76830  0.17850  Biso   1.000  C
  H15      1.0000 0.97780  0.75640  0.18160  Biso   1.000  H
  C33      1.0000 0.87860  0.84630  0.15590  Biso   1.000  C
  C34      1.0000 0.77800  0.86340  0.14680  Biso   1.000  C
  H16      1.0000 0.75600  0.91540  0.12720  Biso   1.000  H
  C35      1.0000 0.71030  0.80400  0.16640  Biso   1.000  C
  C36      1.0000 0.74450  0.72580  0.19130  Biso   1.000  C
  H17      1.0000 0.70000  0.68540  0.20460  Biso   1.000  H
  C37      1.0000 0.60410  0.82320  0.16440  Biso   1.000  C
  C38      1.0000 0.54950  0.78500  0.26980  Biso   1.000  C
  H18      1.0000 0.57910  0.74510  0.33880  Biso   1.000  H
  C39      1.0000 0.45150  0.80550  0.27390  Biso   1.000  C
  H19      1.0000 0.41710  0.78070  0.34870  Biso   1.000  H
  C40      1.0000 0.40470  0.86210  0.16790  Biso   1.000  C
  C41      1.0000 0.45660  0.89790  0.05720  Biso   1.000  C
  H20      1.0000 0.42480  0.93470  0.98260  Biso   1.000  H
  C42      1.0000 0.55650  0.87960  0.05550  Biso   1.000  C
  H21      1.0000 0.59110  0.90520  0.98180  Biso   1.000  H
  C43      1.0000 0.88000  0.62330  0.21950  Biso   1.000  C
  C44      1.0000 0.94980  0.91220  0.13770  Biso   1.000  C
  C45      1.0000 0.30110  0.88840  0.18100  Biso   1.000  C
  O18      1.0000 0.96620  0.60870  0.21380  Biso   1.000  O
  Zn4      1.0000 0.86331  0.47711  0.37141  Biso   1.000  Zn
  O19      1.0000 0.18070  0.07250  0.25210  Biso   1.000  O
  O20      1.0000 0.95800  0.39640  0.32160  Biso   1.000  O
  O21      1.0000 0.08250  0.47866  0.40610  Biso   1.000  O
  O22      1.0000 0.74280  0.43170  0.43710  Biso   1.000  O
  O23      1.0000 0.73600  0.37050  0.19690  Biso   1.000  O
  C46      1.0000 0.15570  0.20810  0.30350  Biso   1.000  C
  C47      1.0000 0.08900  0.26830  0.32150  Biso   1.000  C
  H22      1.0000 0.02220  0.25640  0.31840  Biso   1.000  H
  C48      1.0000 0.12140  0.34630  0.34410  Biso   1.000  C
  C49      1.0000 0.22200  0.36340  0.35320  Biso   1.000  C
  H23      1.0000 0.24400  0.41540  0.37280  Biso   1.000  H
  C50      1.0000 0.28970  0.30400  0.33360  Biso   1.000  C
  C51      1.0000 0.25550  0.22580  0.30870  Biso   1.000  C
  H24      1.0000 0.30000  0.18540  0.29540  Biso   1.000  H
  C52      1.0000 0.39590  0.32320  0.33560  Biso   1.000  C
  C53      1.0000 0.45050  0.28500  0.23020  Biso   1.000  C
  H25      1.0000 0.42090  0.24510  0.16120  Biso   1.000  H
  C54      1.0000 0.54850  0.30550  0.22610  Biso   1.000  C
  H26      1.0000 0.58290  0.28070  0.15130  Biso   1.000  H
  C55      1.0000 0.59530  0.36210  0.33210  Biso   1.000  C
  C56      1.0000 0.54340  0.39790  0.44280  Biso   1.000  C
  H27      1.0000 0.57520  0.43470  0.51740  Biso   1.000  H
  C57      1.0000 0.44350  0.37960  0.44450  Biso   1.000  C
  H28      1.0000 0.40890  0.40520  0.51820  Biso   1.000  H
  C58      1.0000 0.12000  0.12330  0.28050  Biso   1.000  C
  C59      1.0000 0.05020  0.41220  0.36230  Biso   1.000  C
  C60      1.0000 0.69890  0.38840  0.31900  Biso   1.000  C
  O24      1.0000 0.03380  0.10870  0.28620  Biso   1.000  O
