data_image0
_cell_length_a       27.384
_cell_length_b       27.384
_cell_length_c       9.114
_cell_angle_alpha    90
_cell_angle_beta     90
_cell_angle_gamma    120

_symmetry_space_group_name_H-M    "P 1"
_symmetry_int_tables_number       1

loop_
  _symmetry_equiv_pos_as_xyz
  'x, y, z'

loop_
  _atom_site_label
  _atom_site_occupancy
  _atom_site_fract_x
  _atom_site_fract_y
  _atom_site_fract_z
  _atom_site_thermal_displace_type
  _atom_site_B_iso_or_equiv
  _atom_site_type_symbol
  Mg1      1.0000 0.11046  0.12253  0.08540  Biso   1.000  Mg
  O1       1.0000 0.19447  0.14681  0.07900  Biso   1.000  O
  O2       1.0000 0.19285  0.06620  0.02810  Biso   1.000  O
  C1       1.0000 0.21726  0.11679  0.07100  Biso   1.000  C
  C2       1.0000 0.27708  0.14222  0.11780  Biso   1.000  C
  C3       1.0000 0.30527  0.19646  0.17440  Biso   1.000  C
  C4       1.0000 0.30559  0.11150  0.11040  Biso   1.000  C
  N1       1.0000 0.28300  0.05650  0.05160  Biso   1.000  N
  C5       1.0000 0.07726  0.00506  0.21660  Biso   1.000  C
  H1       1.0000 0.06560  0.98550  0.30490  Biso   1.000  H
  O3       1.0000 0.09599  0.05642  0.22200  Biso   1.000  O
  O4       1.0000 0.07236  0.97666  0.10390  Biso   1.000  O
  N2       1.0000 0.28200  0.22720  0.19700  Biso   1.000  N
  Mg2      1.0000 0.77713  0.45586  0.41873  Biso   1.000  Mg
  O5       1.0000 0.86114  0.48014  0.41233  Biso   1.000  O
  O6       1.0000 0.85952  0.39953  0.36143  Biso   1.000  O
  C6       1.0000 0.88393  0.45012  0.40433  Biso   1.000  C
  C7       1.0000 0.94375  0.47555  0.45113  Biso   1.000  C
  C8       1.0000 0.97194  0.52979  0.50773  Biso   1.000  C
  C9       1.0000 0.97226  0.44483  0.44373  Biso   1.000  C
  N3       1.0000 0.94967  0.38983  0.38493  Biso   1.000  N
  C10      1.0000 0.74393  0.33839  0.54993  Biso   1.000  C
  H2       1.0000 0.73227  0.31883  0.63823  Biso   1.000  H
  O7       1.0000 0.76266  0.38975  0.55533  Biso   1.000  O
  O8       1.0000 0.73903  0.30999  0.43723  Biso   1.000  O
  N4       1.0000 0.94867  0.56053  0.53033  Biso   1.000  N
  Mg3      1.0000 0.44379  0.78920  0.75207  Biso   1.000  Mg
  O9       1.0000 0.52780  0.81348  0.74567  Biso   1.000  O
  O10      1.0000 0.52618  0.73287  0.69477  Biso   1.000  O
  C11      1.0000 0.55059  0.78346  0.73767  Biso   1.000  C
  C12      1.0000 0.61041  0.80889  0.78447  Biso   1.000  C
  C13      1.0000 0.63860  0.86313  0.84107  Biso   1.000  C
  C14      1.0000 0.63892  0.77817  0.77707  Biso   1.000  C
  N5       1.0000 0.61633  0.72317  0.71827  Biso   1.000  N
  C15      1.0000 0.41059  0.67173  0.88327  Biso   1.000  C
  H3       1.0000 0.39893  0.65217  0.97157  Biso   1.000  H
  O11      1.0000 0.42932  0.72309  0.88867  Biso   1.000  O
  O12      1.0000 0.40569  0.64333  0.77057  Biso   1.000  O
  N6       1.0000 0.61533  0.89387  0.86367  Biso   1.000  N
  Mg4      1.0000 0.87747  0.98793  0.08540  Biso   1.000  Mg
  O13      1.0000 0.85319  0.04766  0.07900  Biso   1.000  O
  O14      1.0000 0.93380  0.12665  0.02810  Biso   1.000  O
  C16      1.0000 0.88321  0.10047  0.07100  Biso   1.000  C
  C17      1.0000 0.85778  0.13486  0.11780  Biso   1.000  C
  C18      1.0000 0.80354  0.10881  0.17440  Biso   1.000  C
  C19      1.0000 0.88850  0.19409  0.11040  Biso   1.000  C
  N7       1.0000 0.94350  0.22650  0.05160  Biso   1.000  N
  C20      1.0000 0.99494  0.07220  0.21660  Biso   1.000  C
  H4       1.0000 0.01450  0.08010  0.30490  Biso   1.000  H
  O15      1.0000 0.94358  0.03957  0.22200  Biso   1.000  O
  O16      1.0000 0.02334  0.09570  0.10390  Biso   1.000  O
  N8       1.0000 0.77280  0.05480  0.19700  Biso   1.000  N
  Mg5      1.0000 0.54414  0.32126  0.41873  Biso   1.000  Mg
  O17      1.0000 0.51986  0.38099  0.41233  Biso   1.000  O
  O18      1.0000 0.60047  0.45998  0.36143  Biso   1.000  O
  C21      1.0000 0.54988  0.43380  0.40433  Biso   1.000  C
  C22      1.0000 0.52445  0.46819  0.45113  Biso   1.000  C
  C23      1.0000 0.47021  0.44214  0.50773  Biso   1.000  C
  C24      1.0000 0.55517  0.52742  0.44373  Biso   1.000  C
  N9       1.0000 0.61017  0.55983  0.38493  Biso   1.000  N
  C25      1.0000 0.66161  0.40553  0.54993  Biso   1.000  C
  H5       1.0000 0.68117  0.41343  0.63823  Biso   1.000  H
  O19      1.0000 0.61025  0.37290  0.55533  Biso   1.000  O
  O20      1.0000 0.69001  0.42903  0.43723  Biso   1.000  O
  N10      1.0000 0.43947  0.38813  0.53033  Biso   1.000  N
  Mg6      1.0000 0.21080  0.65460  0.75207  Biso   1.000  Mg
  O21      1.0000 0.18652  0.71433  0.74567  Biso   1.000  O
  O22      1.0000 0.26713  0.79332  0.69477  Biso   1.000  O
  C26      1.0000 0.21654  0.76714  0.73767  Biso   1.000  C
  C27      1.0000 0.19111  0.80153  0.78447  Biso   1.000  C
  C28      1.0000 0.13687  0.77548  0.84107  Biso   1.000  C
  C29      1.0000 0.22183  0.86076  0.77707  Biso   1.000  C
  N11      1.0000 0.27683  0.89317  0.71827  Biso   1.000  N
  C30      1.0000 0.32827  0.73887  0.88327  Biso   1.000  C
  H6       1.0000 0.34783  0.74677  0.97157  Biso   1.000  H
  O23      1.0000 0.27691  0.70624  0.88867  Biso   1.000  O
  O24      1.0000 0.35667  0.76237  0.77057  Biso   1.000  O
  N12      1.0000 0.10613  0.72147  0.86367  Biso   1.000  N
  Mg7      1.0000 0.01207  0.88954  0.08540  Biso   1.000  Mg
  O25      1.0000 0.95234  0.80553  0.07900  Biso   1.000  O
  O26      1.0000 0.87335  0.80715  0.02810  Biso   1.000  O
  C31      1.0000 0.89953  0.78274  0.07100  Biso   1.000  C
  C32      1.0000 0.86514  0.72292  0.11780  Biso   1.000  C
  C33      1.0000 0.89119  0.69473  0.17440  Biso   1.000  C
  C34      1.0000 0.80591  0.69441  0.11040  Biso   1.000  C
  N13      1.0000 0.77350  0.71700  0.05160  Biso   1.000  N
  C35      1.0000 0.92780  0.92274  0.21660  Biso   1.000  C
  H7       1.0000 0.91990  0.93440  0.30490  Biso   1.000  H
  O27      1.0000 0.96043  0.90401  0.22200  Biso   1.000  O
  O28      1.0000 0.90430  0.92764  0.10390  Biso   1.000  O
  N14      1.0000 0.94520  0.71800  0.19700  Biso   1.000  N
  Mg8      1.0000 0.67874  0.22287  0.41873  Biso   1.000  Mg
  O29      1.0000 0.61901  0.13886  0.41233  Biso   1.000  O
  O30      1.0000 0.54002  0.14048  0.36143  Biso   1.000  O
  C36      1.0000 0.56620  0.11607  0.40433  Biso   1.000  C
  C37      1.0000 0.53181  0.05625  0.45113  Biso   1.000  C
  C38      1.0000 0.55786  0.02806  0.50773  Biso   1.000  C
  C39      1.0000 0.47258  0.02774  0.44373  Biso   1.000  C
  N15      1.0000 0.44017  0.05033  0.38493  Biso   1.000  N
  C40      1.0000 0.59447  0.25607  0.54993  Biso   1.000  C
  H8       1.0000 0.58657  0.26773  0.63823  Biso   1.000  H
  O31      1.0000 0.62710  0.23734  0.55533  Biso   1.000  O
  O32      1.0000 0.57097  0.26097  0.43723  Biso   1.000  O
  N16      1.0000 0.61187  0.05133  0.53033  Biso   1.000  N
  Mg9      1.0000 0.34540  0.55621  0.75207  Biso   1.000  Mg
  O33      1.0000 0.28567  0.47220  0.74567  Biso   1.000  O
  O34      1.0000 0.20668  0.47382  0.69477  Biso   1.000  O
  C41      1.0000 0.23286  0.44941  0.73767  Biso   1.000  C
  C42      1.0000 0.19847  0.38959  0.78447  Biso   1.000  C
  C43      1.0000 0.22452  0.36140  0.84107  Biso   1.000  C
  C44      1.0000 0.13924  0.36108  0.77707  Biso   1.000  C
  N17      1.0000 0.10683  0.38367  0.71827  Biso   1.000  N
  C45      1.0000 0.26113  0.58941  0.88327  Biso   1.000  C
  H9       1.0000 0.25323  0.60107  0.97157  Biso   1.000  H
  O35      1.0000 0.29376  0.57068  0.88867  Biso   1.000  O
  O36      1.0000 0.23763  0.59431  0.77057  Biso   1.000  O
  N18      1.0000 0.27853  0.38467  0.86367  Biso   1.000  N
  Mg10     1.0000 0.88954  0.87747  0.91460  Biso   1.000  Mg
  O37      1.0000 0.80553  0.85319  0.92100  Biso   1.000  O
  O38      1.0000 0.80715  0.93380  0.97190  Biso   1.000  O
  C46      1.0000 0.78274  0.88321  0.92900  Biso   1.000  C
  C47      1.0000 0.72292  0.85778  0.88220  Biso   1.000  C
  C48      1.0000 0.69473  0.80354  0.82560  Biso   1.000  C
  C49      1.0000 0.69441  0.88850  0.88960  Biso   1.000  C
  N19      1.0000 0.71700  0.94350  0.94840  Biso   1.000  N
  C50      1.0000 0.92274  0.99494  0.78340  Biso   1.000  C
  H10      1.0000 0.93440  0.01450  0.69510  Biso   1.000  H
  O39      1.0000 0.90401  0.94358  0.77800  Biso   1.000  O
  O40      1.0000 0.92764  0.02334  0.89610  Biso   1.000  O
  N20      1.0000 0.71800  0.77280  0.80300  Biso   1.000  N
  Mg11     1.0000 0.55621  0.21080  0.24793  Biso   1.000  Mg
  O41      1.0000 0.47220  0.18652  0.25433  Biso   1.000  O
  O42      1.0000 0.47382  0.26713  0.30523  Biso   1.000  O
  C51      1.0000 0.44941  0.21654  0.26233  Biso   1.000  C
  C52      1.0000 0.38959  0.19111  0.21553  Biso   1.000  C
  C53      1.0000 0.36140  0.13687  0.15893  Biso   1.000  C
  C54      1.0000 0.36108  0.22183  0.22293  Biso   1.000  C
  N21      1.0000 0.38367  0.27683  0.28173  Biso   1.000  N
  C55      1.0000 0.58941  0.32827  0.11673  Biso   1.000  C
  H11      1.0000 0.60107  0.34783  0.02843  Biso   1.000  H
  O43      1.0000 0.57068  0.27691  0.11133  Biso   1.000  O
  O44      1.0000 0.59431  0.35667  0.22943  Biso   1.000  O
  N22      1.0000 0.38467  0.10613  0.13633  Biso   1.000  N
  Mg12     1.0000 0.22287  0.54414  0.58127  Biso   1.000  Mg
  O45      1.0000 0.13886  0.51986  0.58767  Biso   1.000  O
  O46      1.0000 0.14048  0.60047  0.63857  Biso   1.000  O
  C56      1.0000 0.11607  0.54988  0.59567  Biso   1.000  C
  C57      1.0000 0.05625  0.52445  0.54887  Biso   1.000  C
  C58      1.0000 0.02806  0.47021  0.49227  Biso   1.000  C
  C59      1.0000 0.02774  0.55517  0.55627  Biso   1.000  C
  N23      1.0000 0.05033  0.61017  0.61507  Biso   1.000  N
  C60      1.0000 0.25607  0.66161  0.45007  Biso   1.000  C
  H12      1.0000 0.26773  0.68117  0.36177  Biso   1.000  H
  O47      1.0000 0.23734  0.61025  0.44467  Biso   1.000  O
  O48      1.0000 0.26097  0.69001  0.56277  Biso   1.000  O
  N24      1.0000 0.05133  0.43947  0.46967  Biso   1.000  N
  Mg13     1.0000 0.12253  0.01207  0.91460  Biso   1.000  Mg
  O49      1.0000 0.14681  0.95234  0.92100  Biso   1.000  O
  O50      1.0000 0.06620  0.87335  0.97190  Biso   1.000  O
  C61      1.0000 0.11679  0.89953  0.92900  Biso   1.000  C
  C62      1.0000 0.14222  0.86514  0.88220  Biso   1.000  C
  C63      1.0000 0.19646  0.89119  0.82560  Biso   1.000  C
  C64      1.0000 0.11150  0.80591  0.88960  Biso   1.000  C
  N25      1.0000 0.05650  0.77350  0.94840  Biso   1.000  N
  C65      1.0000 0.00506  0.92780  0.78340  Biso   1.000  C
  H13      1.0000 0.98550  0.91990  0.69510  Biso   1.000  H
  O51      1.0000 0.05642  0.96043  0.77800  Biso   1.000  O
  O52      1.0000 0.97666  0.90430  0.89610  Biso   1.000  O
  N26      1.0000 0.22720  0.94520  0.80300  Biso   1.000  N
  Mg14     1.0000 0.78920  0.34540  0.24793  Biso   1.000  Mg
  O53      1.0000 0.81348  0.28567  0.25433  Biso   1.000  O
  O54      1.0000 0.73287  0.20668  0.30523  Biso   1.000  O
  C66      1.0000 0.78346  0.23286  0.26233  Biso   1.000  C
  C67      1.0000 0.80889  0.19847  0.21553  Biso   1.000  C
  C68      1.0000 0.86313  0.22452  0.15893  Biso   1.000  C
  C69      1.0000 0.77817  0.13924  0.22293  Biso   1.000  C
  N27      1.0000 0.72317  0.10683  0.28173  Biso   1.000  N
  C70      1.0000 0.67173  0.26113  0.11673  Biso   1.000  C
  H14      1.0000 0.65217  0.25323  0.02843  Biso   1.000  H
  O55      1.0000 0.72309  0.29376  0.11133  Biso   1.000  O
  O56      1.0000 0.64333  0.23763  0.22943  Biso   1.000  O
  N28      1.0000 0.89387  0.27853  0.13633  Biso   1.000  N
  Mg15     1.0000 0.45586  0.67874  0.58127  Biso   1.000  Mg
  O57      1.0000 0.48014  0.61901  0.58767  Biso   1.000  O
  O58      1.0000 0.39953  0.54002  0.63857  Biso   1.000  O
  C71      1.0000 0.45012  0.56620  0.59567  Biso   1.000  C
  C72      1.0000 0.47555  0.53181  0.54887  Biso   1.000  C
  C73      1.0000 0.52979  0.55786  0.49227  Biso   1.000  C
  C74      1.0000 0.44483  0.47258  0.55627  Biso   1.000  C
  N29      1.0000 0.38983  0.44017  0.61507  Biso   1.000  N
  C75      1.0000 0.33839  0.59447  0.45007  Biso   1.000  C
  H15      1.0000 0.31883  0.58657  0.36177  Biso   1.000  H
  O59      1.0000 0.38975  0.62710  0.44467  Biso   1.000  O
  O60      1.0000 0.30999  0.57097  0.56277  Biso   1.000  O
  N30      1.0000 0.56053  0.61187  0.46967  Biso   1.000  N
  Mg16     1.0000 0.98793  0.11046  0.91460  Biso   1.000  Mg
  O61      1.0000 0.04766  0.19447  0.92100  Biso   1.000  O
  O62      1.0000 0.12665  0.19285  0.97190  Biso   1.000  O
  C76      1.0000 0.10047  0.21726  0.92900  Biso   1.000  C
  C77      1.0000 0.13486  0.27708  0.88220  Biso   1.000  C
  C78      1.0000 0.10881  0.30527  0.82560  Biso   1.000  C
  C79      1.0000 0.19409  0.30559  0.88960  Biso   1.000  C
  N31      1.0000 0.22650  0.28300  0.94840  Biso   1.000  N
  C80      1.0000 0.07220  0.07726  0.78340  Biso   1.000  C
  H16      1.0000 0.08010  0.06560  0.69510  Biso   1.000  H
  O63      1.0000 0.03957  0.09599  0.77800  Biso   1.000  O
  O64      1.0000 0.09570  0.07236  0.89610  Biso   1.000  O
  N32      1.0000 0.05480  0.28200  0.80300  Biso   1.000  N
  Mg17     1.0000 0.65460  0.44379  0.24793  Biso   1.000  Mg
  O65      1.0000 0.71433  0.52780  0.25433  Biso   1.000  O
  O66      1.0000 0.79332  0.52618  0.30523  Biso   1.000  O
  C81      1.0000 0.76714  0.55059  0.26233  Biso   1.000  C
  C82      1.0000 0.80153  0.61041  0.21553  Biso   1.000  C
  C83      1.0000 0.77548  0.63860  0.15893  Biso   1.000  C
  C84      1.0000 0.86076  0.63892  0.22293  Biso   1.000  C
  N33      1.0000 0.89317  0.61633  0.28173  Biso   1.000  N
  C85      1.0000 0.73887  0.41059  0.11673  Biso   1.000  C
  H17      1.0000 0.74677  0.39893  0.02843  Biso   1.000  H
  O67      1.0000 0.70624  0.42932  0.11133  Biso   1.000  O
  O68      1.0000 0.76237  0.40569  0.22943  Biso   1.000  O
  N34      1.0000 0.72147  0.61533  0.13633  Biso   1.000  N
  Mg18     1.0000 0.32126  0.77713  0.58127  Biso   1.000  Mg
  O69      1.0000 0.38099  0.86114  0.58767  Biso   1.000  O
  O70      1.0000 0.45998  0.85952  0.63857  Biso   1.000  O
  C86      1.0000 0.43380  0.88393  0.59567  Biso   1.000  C
  C87      1.0000 0.46819  0.94375  0.54887  Biso   1.000  C
  C88      1.0000 0.44214  0.97194  0.49227  Biso   1.000  C
  C89      1.0000 0.52742  0.97226  0.55627  Biso   1.000  C
  N35      1.0000 0.55983  0.94967  0.61507  Biso   1.000  N
  C90      1.0000 0.40553  0.74393  0.45007  Biso   1.000  C
  H18      1.0000 0.41343  0.73227  0.36177  Biso   1.000  H
  O71      1.0000 0.37290  0.76266  0.44467  Biso   1.000  O
  O72      1.0000 0.42903  0.73903  0.56277  Biso   1.000  O
  N36      1.0000 0.38813  0.94867  0.46967  Biso   1.000  N
