data_YICGOI_clean
_audit_creation_date              2014-07-02
_audit_creation_method            'Materials Studio'
_symmetry_space_group_name_H-M    'P1'
_symmetry_Int_Tables_number       1
_symmetry_cell_setting            triclinic
loop_
_symmetry_equiv_pos_as_xyz
  x,y,z
_cell_length_a                    9.9228
_cell_length_b                    17.5542
_cell_length_c                    23.9223
_cell_angle_alpha                 91.9200
_cell_angle_beta                  90.0000
_cell_angle_gamma                 90.0000
loop_
_atom_site_label
_atom_site_type_symbol
_atom_site_fract_x
_atom_site_fract_y
_atom_site_fract_z
_atom_site_U_iso_or_equiv
_atom_site_adp_type
_atom_site_occupancy
Co1    Co    0.68783   0.75949   0.63232   0.01267  Uiso   1.00
Co2    Co    0.18783   0.74051   0.86768   0.01267  Uiso   1.00
Co3    Co    0.31217   0.24051   0.36768   0.01267  Uiso   1.00
Co4    Co    0.81217   0.25949   0.13232   0.01267  Uiso   1.00
H1     H     0.64920   0.59740   0.48460   0.01267  Uiso   1.00
H2     H     0.62370   0.50060   0.41830   0.01267  Uiso   1.00
H3     H     0.70270   0.95110   0.52930   0.01267  Uiso   1.00
H4     H     0.30020   0.94610   0.52870   0.01267  Uiso   1.00
H5     H     0.69690   0.70880   0.75730   0.01267  Uiso   1.00
H6     H     0.74660   0.60480   0.80810   0.01267  Uiso   1.00
H7     H     0.89270   0.50460   0.66970   0.01267  Uiso   1.00
H8     H     0.84380   0.61230   0.62270   0.01267  Uiso   1.00
H9     H     0.86280   0.51620   0.85290   0.01267  Uiso   1.00
H10    H     0.92630   0.40860   0.89790   0.01267  Uiso   1.00
H11    H     0.91360   0.28870   0.75250   0.01267  Uiso   1.00
H12    H     0.85150   0.39690   0.70770   0.01267  Uiso   1.00
H13    H     0.59260   0.91560   0.67050   0.01267  Uiso   1.00
H14    H     0.64640   0.02430   0.71950   0.01267  Uiso   1.00
H15    H     0.96950   0.91790   0.77820   0.01267  Uiso   1.00
H16    H     0.90550   0.81180   0.72700   0.01267  Uiso   1.00
H17    H     0.66980   0.10530   0.78790   0.01267  Uiso   1.00
H18    H     0.72950   0.21860   0.83030   0.01267  Uiso   1.00
H19    H     0.11000   0.14920   0.83910   0.01267  Uiso   1.00
H20    H     0.04960   0.03370   0.79760   0.01267  Uiso   1.00
H21    H     0.72880   0.26860   0.01310   0.01267  Uiso   1.00
H22    H     0.55130   0.27570   0.95380   0.01267  Uiso   1.00
H23    H     0.30570   0.27400   0.08540   0.01267  Uiso   1.00
H24    H     0.48940   0.26180   0.14060   0.01267  Uiso   1.00
H25    H     0.15590   0.22340   0.02150   0.01267  Uiso   1.00
H26    H     0.97790   0.22080   0.95980   0.01267  Uiso   1.00
H27    H     0.19810   0.33680   0.85190   0.01267  Uiso   1.00
H28    H     0.37490   0.33860   0.91380   0.01267  Uiso   1.00
H29    H     0.14920   0.90260   0.01540   0.01267  Uiso   1.00
H30    H     0.12370   0.99940   0.08170   0.01267  Uiso   1.00
H31    H     0.20270   0.54890   0.97070   0.01267  Uiso   1.00
H32    H     0.80020   0.55390   0.97130   0.01267  Uiso   1.00
H33    H     0.19690   0.79120   0.74270   0.01267  Uiso   1.00
H34    H     0.24660   0.89520   0.69190   0.01267  Uiso   1.00
H35    H     0.39270   0.99540   0.83030   0.01267  Uiso   1.00
H36    H     0.34380   0.88770   0.87730   0.01267  Uiso   1.00
H37    H     0.36280   0.98380   0.64710   0.01267  Uiso   1.00
H38    H     0.42630   0.09140   0.60210   0.01267  Uiso   1.00
H39    H     0.41360   0.21130   0.74750   0.01267  Uiso   1.00
H40    H     0.35150   0.10310   0.79230   0.01267  Uiso   1.00
H41    H     0.09260   0.58440   0.82950   0.01267  Uiso   1.00
H42    H     0.14640   0.47570   0.78050   0.01267  Uiso   1.00
H43    H     0.46950   0.58210   0.72180   0.01267  Uiso   1.00
H44    H     0.40550   0.68820   0.77300   0.01267  Uiso   1.00
H45    H     0.16980   0.39470   0.71210   0.01267  Uiso   1.00
H46    H     0.22950   0.28140   0.66970   0.01267  Uiso   1.00
H47    H     0.61000   0.35080   0.66090   0.01267  Uiso   1.00
H48    H     0.54960   0.46630   0.70240   0.01267  Uiso   1.00
H49    H     0.22880   0.23140   0.48690   0.01267  Uiso   1.00
H50    H     0.05130   0.22430   0.54620   0.01267  Uiso   1.00
H51    H     0.80570   0.22600   0.41460   0.01267  Uiso   1.00
H52    H     0.98940   0.23820   0.35940   0.01267  Uiso   1.00
H53    H     0.65590   0.27660   0.47850   0.01267  Uiso   1.00
H54    H     0.47790   0.27920   0.54020   0.01267  Uiso   1.00
H55    H     0.69810   0.16320   0.64810   0.01267  Uiso   1.00
H56    H     0.87490   0.16140   0.58620   0.01267  Uiso   1.00
H57    H     0.35080   0.40260   0.51540   0.01267  Uiso   1.00
H58    H     0.37630   0.49940   0.58170   0.01267  Uiso   1.00
H59    H     0.29730   0.04890   0.47070   0.01267  Uiso   1.00
H60    H     0.69980   0.05390   0.47130   0.01267  Uiso   1.00
H61    H     0.30310   0.29120   0.24270   0.01267  Uiso   1.00
H62    H     0.25340   0.39520   0.19190   0.01267  Uiso   1.00
H63    H     0.10730   0.49540   0.33030   0.01267  Uiso   1.00
H64    H     0.15620   0.38770   0.37730   0.01267  Uiso   1.00
H65    H     0.13720   0.48380   0.14710   0.01267  Uiso   1.00
H66    H     0.07370   0.59140   0.10210   0.01267  Uiso   1.00
H67    H     0.08640   0.71130   0.24750   0.01267  Uiso   1.00
H68    H     0.14850   0.60310   0.29230   0.01267  Uiso   1.00
H69    H     0.40740   0.08440   0.32950   0.01267  Uiso   1.00
H70    H     0.35360   0.97570   0.28050   0.01267  Uiso   1.00
H71    H     0.03050   0.08210   0.22180   0.01267  Uiso   1.00
H72    H     0.09450   0.18820   0.27300   0.01267  Uiso   1.00
H73    H     0.33020   0.89470   0.21210   0.01267  Uiso   1.00
H74    H     0.27050   0.78140   0.16970   0.01267  Uiso   1.00
H75    H     0.89000   0.85080   0.16090   0.01267  Uiso   1.00
H76    H     0.95040   0.96630   0.20240   0.01267  Uiso   1.00
H77    H     0.27120   0.73140   0.98690   0.01267  Uiso   1.00
H78    H     0.44870   0.72430   0.04620   0.01267  Uiso   1.00
H79    H     0.69430   0.72600   0.91460   0.01267  Uiso   1.00
H80    H     0.51060   0.73820   0.85940   0.01267  Uiso   1.00
H81    H     0.84410   0.77660   0.97850   0.01267  Uiso   1.00
H82    H     0.02210   0.77920   0.04020   0.01267  Uiso   1.00
H83    H     0.80190   0.66320   0.14810   0.01267  Uiso   1.00
H84    H     0.62510   0.66140   0.08620   0.01267  Uiso   1.00
H85    H     0.85080   0.09740   0.98460   0.01267  Uiso   1.00
H86    H     0.87630   0.00060   0.91830   0.01267  Uiso   1.00
H87    H     0.79730   0.45110   0.02930   0.01267  Uiso   1.00
H88    H     0.19980   0.44610   0.02870   0.01267  Uiso   1.00
H89    H     0.80310   0.20880   0.25730   0.01267  Uiso   1.00
H90    H     0.75340   0.10480   0.30810   0.01267  Uiso   1.00
H91    H     0.60730   0.00460   0.16970   0.01267  Uiso   1.00
H92    H     0.65620   0.11230   0.12270   0.01267  Uiso   1.00
H93    H     0.63720   0.01620   0.35290   0.01267  Uiso   1.00
H94    H     0.57370   0.90860   0.39790   0.01267  Uiso   1.00
H95    H     0.58640   0.78870   0.25250   0.01267  Uiso   1.00
H96    H     0.64850   0.89690   0.20770   0.01267  Uiso   1.00
H97    H     0.90740   0.41560   0.17050   0.01267  Uiso   1.00
H98    H     0.85360   0.52430   0.21950   0.01267  Uiso   1.00
H99    H     0.53050   0.41790   0.27820   0.01267  Uiso   1.00
H100   H     0.59450   0.31180   0.22700   0.01267  Uiso   1.00
H101   H     0.83020   0.60530   0.28790   0.01267  Uiso   1.00
H102   H     0.77050   0.71860   0.33030   0.01267  Uiso   1.00
H103   H     0.39000   0.64920   0.33910   0.01267  Uiso   1.00
H104   H     0.45040   0.53370   0.29760   0.01267  Uiso   1.00
H105   H     0.77120   0.76860   0.51310   0.01267  Uiso   1.00
H106   H     0.94870   0.77570   0.45380   0.01267  Uiso   1.00
H107   H     0.19430   0.77400   0.58540   0.01267  Uiso   1.00
H108   H     0.01060   0.76180   0.64060   0.01267  Uiso   1.00
H109   H     0.34410   0.72340   0.52150   0.01267  Uiso   1.00
H110   H     0.52210   0.72080   0.45980   0.01267  Uiso   1.00
H111   H     0.30190   0.83680   0.35190   0.01267  Uiso   1.00
H112   H     0.12510   0.83860   0.41380   0.01267  Uiso   1.00
C1     C     0.52800   0.62410   0.58264   0.01267  Uiso   1.00
C2     C     0.51510   0.56001   0.53956   0.01267  Uiso   1.00
C3     C     0.58840   0.55831   0.49099   0.01267  Uiso   1.00
C4     C     0.57400   0.50000   0.45122   0.01267  Uiso   1.00
C5     C     0.50540   0.87238   0.57404   0.01267  Uiso   1.00
C6     C     0.62070   0.97059   0.51747   0.01267  Uiso   1.00
C7     C     0.50180   0.93763   0.53469   0.01267  Uiso   1.00
C8     C     0.38090   0.96749   0.51723   0.01267  Uiso   1.00
C9     C     0.73700   0.66704   0.73902   0.01267  Uiso   1.00
C10    C     0.76570   0.60409   0.76999   0.01267  Uiso   1.00
C11    C     0.82280   0.53967   0.74444   0.01267  Uiso   1.00
C12    C     0.85200   0.54544   0.68880   0.01267  Uiso   1.00
C13    C     0.82200   0.61076   0.66043   0.01267  Uiso   1.00
C14    C     0.85390   0.46947   0.77487   0.01267  Uiso   1.00
C15    C     0.87420   0.47074   0.83241   0.01267  Uiso   1.00
C16    C     0.91090   0.40604   0.85958   0.01267  Uiso   1.00
C17    C     0.92510   0.33702   0.83019   0.01267  Uiso   1.00
C18    C     0.90360   0.33439   0.77288   0.01267  Uiso   1.00
C19    C     0.86740   0.39960   0.74606   0.01267  Uiso   1.00
C20    C     0.67120   0.91630   0.69174   0.01267  Uiso   1.00
C21    C     0.70230   0.98199   0.72165   0.01267  Uiso   1.00
C22    C     0.81650   0.98599   0.75513   0.01267  Uiso   1.00
C23    C     0.89240   0.91950   0.75623   0.01267  Uiso   1.00
C24    C     0.85340   0.85562   0.72456   0.01267  Uiso   1.00
C25    C     0.85390   0.05694   0.78596   0.01267  Uiso   1.00
C26    C     0.75950   0.11379   0.79746   0.01267  Uiso   1.00
C27    C     0.79540   0.18212   0.82260   0.01267  Uiso   1.00
C28    C     0.92730   0.19764   0.83668   0.01267  Uiso   1.00
C29    C     0.02120   0.14095   0.82809   0.01267  Uiso   1.00
C30    C     0.98460   0.07141   0.80302   0.01267  Uiso   1.00
C31    C     0.64220   0.26880   0.02804   0.01267  Uiso   1.00
C32    C     0.53560   0.27380   0.99202   0.01267  Uiso   1.00
C33    C     0.40470   0.27606   0.01195   0.01267  Uiso   1.00
C34    C     0.39100   0.27220   0.06931   0.01267  Uiso   1.00
C35    C     0.50250   0.26560   0.10232   0.01267  Uiso   1.00
C36    C     0.28640   0.27888   0.97403   0.01267  Uiso   1.00
C37    C     0.16580   0.24550   0.98691   0.01267  Uiso   1.00
C38    C     0.05860   0.24380   0.94994   0.01267  Uiso   1.00
C39    C     0.07170   0.27624   0.89843   0.01267  Uiso   1.00
C40    C     0.18960   0.31270   0.88573   0.01267  Uiso   1.00
C41    C     0.29550   0.31380   0.92303   0.01267  Uiso   1.00
C42    C     0.02800   0.87590   0.91736   0.01267  Uiso   1.00
C43    C     0.01510   0.93999   0.96044   0.01267  Uiso   1.00
C44    C     0.08840   0.94169   0.00901   0.01267  Uiso   1.00
C45    C     0.07400   0.00000   0.04878   0.01267  Uiso   1.00
C46    C     0.00540   0.62762   0.92596   0.01267  Uiso   1.00
C47    C     0.12070   0.52941   0.98253   0.01267  Uiso   1.00
C48    C     0.00180   0.56237   0.96531   0.01267  Uiso   1.00
C49    C     0.88090   0.53251   0.98277   0.01267  Uiso   1.00
C50    C     0.23700   0.83296   0.76098   0.01267  Uiso   1.00
C51    C     0.26570   0.89591   0.73001   0.01267  Uiso   1.00
C52    C     0.32280   0.96033   0.75556   0.01267  Uiso   1.00
C53    C     0.35200   0.95456   0.81120   0.01267  Uiso   1.00
C54    C     0.32200   0.88924   0.83957   0.01267  Uiso   1.00
C55    C     0.35390   0.03053   0.72513   0.01267  Uiso   1.00
C56    C     0.37420   0.02926   0.66759   0.01267  Uiso   1.00
C57    C     0.41090   0.09396   0.64042   0.01267  Uiso   1.00
C58    C     0.42510   0.16298   0.66981   0.01267  Uiso   1.00
C59    C     0.40360   0.16561   0.72712   0.01267  Uiso   1.00
C60    C     0.36740   0.10040   0.75394   0.01267  Uiso   1.00
C61    C     0.17120   0.58370   0.80826   0.01267  Uiso   1.00
C62    C     0.20230   0.51801   0.77835   0.01267  Uiso   1.00
C63    C     0.31650   0.51401   0.74487   0.01267  Uiso   1.00
C64    C     0.39240   0.58050   0.74377   0.01267  Uiso   1.00
C65    C     0.35340   0.64438   0.77544   0.01267  Uiso   1.00
C66    C     0.35390   0.44306   0.71404   0.01267  Uiso   1.00
C67    C     0.25950   0.38621   0.70254   0.01267  Uiso   1.00
C68    C     0.29540   0.31788   0.67740   0.01267  Uiso   1.00
C69    C     0.42730   0.30236   0.66332   0.01267  Uiso   1.00
C70    C     0.52120   0.35905   0.67191   0.01267  Uiso   1.00
C71    C     0.48460   0.42859   0.69698   0.01267  Uiso   1.00
C72    C     0.14220   0.23120   0.47196   0.01267  Uiso   1.00
C73    C     0.03560   0.22620   0.50798   0.01267  Uiso   1.00
C74    C     0.90470   0.22394   0.48805   0.01267  Uiso   1.00
C75    C     0.89100   0.22780   0.43069   0.01267  Uiso   1.00
C76    C     0.00250   0.23440   0.39768   0.01267  Uiso   1.00
C77    C     0.78640   0.22112   0.52597   0.01267  Uiso   1.00
C78    C     0.66580   0.25450   0.51309   0.01267  Uiso   1.00
C79    C     0.55860   0.25620   0.55006   0.01267  Uiso   1.00
C80    C     0.57170   0.22376   0.60157   0.01267  Uiso   1.00
C81    C     0.68960   0.18730   0.61427   0.01267  Uiso   1.00
C82    C     0.79550   0.18620   0.57697   0.01267  Uiso   1.00
C83    C     0.47200   0.37590   0.41736   0.01267  Uiso   1.00
C84    C     0.48490   0.43999   0.46044   0.01267  Uiso   1.00
C85    C     0.41160   0.44169   0.50901   0.01267  Uiso   1.00
C86    C     0.42600   0.50000   0.54878   0.01267  Uiso   1.00
C87    C     0.49460   0.12762   0.42596   0.01267  Uiso   1.00
C88    C     0.37930   0.02941   0.48253   0.01267  Uiso   1.00
C89    C     0.49820   0.06237   0.46531   0.01267  Uiso   1.00
C90    C     0.61910   0.03251   0.48277   0.01267  Uiso   1.00
C91    C     0.26300   0.33296   0.26098   0.01267  Uiso   1.00
C92    C     0.23430   0.39591   0.23001   0.01267  Uiso   1.00
C93    C     0.17720   0.46033   0.25556   0.01267  Uiso   1.00
C94    C     0.14800   0.45456   0.31120   0.01267  Uiso   1.00
C95    C     0.17800   0.38924   0.33957   0.01267  Uiso   1.00
C96    C     0.14610   0.53053   0.22513   0.01267  Uiso   1.00
C97    C     0.12580   0.52926   0.16759   0.01267  Uiso   1.00
C98    C     0.08910   0.59396   0.14042   0.01267  Uiso   1.00
C99    C     0.07490   0.66298   0.16981   0.01267  Uiso   1.00
C100   C     0.09640   0.66561   0.22712   0.01267  Uiso   1.00
C101   C     0.13260   0.60040   0.25394   0.01267  Uiso   1.00
C102   C     0.32880   0.08370   0.30826   0.01267  Uiso   1.00
C103   C     0.29770   0.01801   0.27835   0.01267  Uiso   1.00
C104   C     0.18350   0.01401   0.24487   0.01267  Uiso   1.00
C105   C     0.10760   0.08050   0.24377   0.01267  Uiso   1.00
C106   C     0.14660   0.14438   0.27544   0.01267  Uiso   1.00
C107   C     0.14610   0.94306   0.21404   0.01267  Uiso   1.00
C108   C     0.24050   0.88621   0.20254   0.01267  Uiso   1.00
C109   C     0.20460   0.81788   0.17740   0.01267  Uiso   1.00
C110   C     0.07270   0.80236   0.16332   0.01267  Uiso   1.00
C111   C     0.97880   0.85905   0.17191   0.01267  Uiso   1.00
C112   C     0.01540   0.92859   0.19698   0.01267  Uiso   1.00
C113   C     0.35780   0.73120   0.97196   0.01267  Uiso   1.00
C114   C     0.46440   0.72620   0.00798   0.01267  Uiso   1.00
C115   C     0.59530   0.72394   0.98805   0.01267  Uiso   1.00
C116   C     0.60900   0.72780   0.93069   0.01267  Uiso   1.00
C117   C     0.49750   0.73440   0.89768   0.01267  Uiso   1.00
C118   C     0.71360   0.72112   0.02597   0.01267  Uiso   1.00
C119   C     0.83420   0.75450   0.01309   0.01267  Uiso   1.00
C120   C     0.94140   0.75620   0.05006   0.01267  Uiso   1.00
C121   C     0.92830   0.72376   0.10157   0.01267  Uiso   1.00
C122   C     0.81040   0.68730   0.11427   0.01267  Uiso   1.00
C123   C     0.70450   0.68620   0.07697   0.01267  Uiso   1.00
C124   C     0.97200   0.12410   0.08264   0.01267  Uiso   1.00
C125   C     0.98490   0.06001   0.03956   0.01267  Uiso   1.00
C126   C     0.91160   0.05831   0.99099   0.01267  Uiso   1.00
C127   C     0.92600   0.00000   0.95122   0.01267  Uiso   1.00
C128   C     0.99460   0.37238   0.07404   0.01267  Uiso   1.00
C129   C     0.87930   0.47059   0.01747   0.01267  Uiso   1.00
C130   C     0.99820   0.43763   0.03469   0.01267  Uiso   1.00
C131   C     0.11910   0.46749   0.01723   0.01267  Uiso   1.00
C132   C     0.76300   0.16704   0.23902   0.01267  Uiso   1.00
C133   C     0.73430   0.10409   0.26999   0.01267  Uiso   1.00
C134   C     0.67720   0.03967   0.24444   0.01267  Uiso   1.00
C135   C     0.64800   0.04544   0.18880   0.01267  Uiso   1.00
C136   C     0.67800   0.11076   0.16043   0.01267  Uiso   1.00
C137   C     0.64610   0.96947   0.27487   0.01267  Uiso   1.00
C138   C     0.62580   0.97074   0.33241   0.01267  Uiso   1.00
C139   C     0.58910   0.90604   0.35958   0.01267  Uiso   1.00
C140   C     0.57490   0.83702   0.33019   0.01267  Uiso   1.00
C141   C     0.59640   0.83439   0.27288   0.01267  Uiso   1.00
C142   C     0.63260   0.89960   0.24606   0.01267  Uiso   1.00
C143   C     0.82880   0.41630   0.19174   0.01267  Uiso   1.00
C144   C     0.79770   0.48199   0.22165   0.01267  Uiso   1.00
C145   C     0.68350   0.48599   0.25513   0.01267  Uiso   1.00
C146   C     0.60760   0.41950   0.25623   0.01267  Uiso   1.00
C147   C     0.64660   0.35562   0.22456   0.01267  Uiso   1.00
C148   C     0.64610   0.55694   0.28596   0.01267  Uiso   1.00
C149   C     0.74050   0.61379   0.29746   0.01267  Uiso   1.00
C150   C     0.70460   0.68212   0.32260   0.01267  Uiso   1.00
C151   C     0.57270   0.69764   0.33668   0.01267  Uiso   1.00
C152   C     0.47880   0.64095   0.32809   0.01267  Uiso   1.00
C153   C     0.51540   0.57141   0.30302   0.01267  Uiso   1.00
C154   C     0.85780   0.76880   0.52804   0.01267  Uiso   1.00
C155   C     0.96440   0.77380   0.49202   0.01267  Uiso   1.00
C156   C     0.09530   0.77606   0.51195   0.01267  Uiso   1.00
C157   C     0.10900   0.77220   0.56931   0.01267  Uiso   1.00
C158   C     0.99750   0.76560   0.60232   0.01267  Uiso   1.00
C159   C     0.21360   0.77888   0.47403   0.01267  Uiso   1.00
C160   C     0.33420   0.74550   0.48691   0.01267  Uiso   1.00
C161   C     0.44140   0.74380   0.44994   0.01267  Uiso   1.00
C162   C     0.42830   0.77624   0.39843   0.01267  Uiso   1.00
C163   C     0.31040   0.81270   0.38573   0.01267  Uiso   1.00
C164   C     0.20450   0.81380   0.42303   0.01267  Uiso   1.00
N1     N     0.76320   0.67169   0.68484   0.01267  Uiso   1.00
N2     N     0.74740   0.85285   0.69124   0.01267  Uiso   1.00
N3     N     0.62890   0.26417   0.08316   0.01267  Uiso   1.00
N4     N     0.96340   0.27064   0.85892   0.01267  Uiso   1.00
N5     N     0.26320   0.82831   0.81516   0.01267  Uiso   1.00
N6     N     0.24740   0.64715   0.80876   0.01267  Uiso   1.00
N7     N     0.12890   0.23583   0.41684   0.01267  Uiso   1.00
N8     N     0.46340   0.22936   0.64108   0.01267  Uiso   1.00
N9     N     0.23680   0.32831   0.31516   0.01267  Uiso   1.00
N10    N     0.25260   0.14715   0.30876   0.01267  Uiso   1.00
N11    N     0.37110   0.73583   0.91684   0.01267  Uiso   1.00
N12    N     0.03660   0.72936   0.14108   0.01267  Uiso   1.00
N13    N     0.73680   0.17169   0.18484   0.01267  Uiso   1.00
N14    N     0.75260   0.35285   0.19124   0.01267  Uiso   1.00
N15    N     0.87110   0.76417   0.58316   0.01267  Uiso   1.00
N16    N     0.53660   0.77064   0.35892   0.01267  Uiso   1.00
O1     O     0.44430   0.62746   0.62094   0.01267  Uiso   1.00
O2     O     0.62330   0.67068   0.57623   0.01267  Uiso   1.00
O3     O     0.61671   0.83927   0.57842   0.01267  Uiso   1.00
O4     O     0.40107   0.85768   0.60109   0.01267  Uiso   1.00
O5     O     0.94430   0.87254   0.87906   0.01267  Uiso   1.00
O6     O     0.12330   0.82932   0.92377   0.01267  Uiso   1.00
O7     O     0.11671   0.66073   0.92158   0.01267  Uiso   1.00
O8     O     0.90107   0.64232   0.89891   0.01267  Uiso   1.00
O9     O     0.55570   0.37254   0.37906   0.01267  Uiso   1.00
O10    O     0.37670   0.32932   0.42377   0.01267  Uiso   1.00
O11    O     0.38329   0.16073   0.42158   0.01267  Uiso   1.00
O12    O     0.59893   0.14232   0.39891   0.01267  Uiso   1.00
O13    O     0.05570   0.12746   0.12094   0.01267  Uiso   1.00
O14    O     0.87670   0.17068   0.07623   0.01267  Uiso   1.00
O15    O     0.88329   0.33927   0.07842   0.01267  Uiso   1.00
O16    O     0.09893   0.35768   0.10109   0.01267  Uiso   1.00
