data_YIGFIF_clean
_audit_creation_date              2014-07-02
_audit_creation_method            'Materials Studio'
_symmetry_space_group_name_H-M    'P1'
_symmetry_Int_Tables_number       1
_symmetry_cell_setting            triclinic
loop_
_symmetry_equiv_pos_as_xyz
  x,y,z
_cell_length_a                    8.1600
_cell_length_b                    10.7150
_cell_length_c                    22.9120
_cell_angle_alpha                 90.0000
_cell_angle_beta                  90.0000
_cell_angle_gamma                 102.5830
loop_
_atom_site_label
_atom_site_type_symbol
_atom_site_fract_x
_atom_site_fract_y
_atom_site_fract_z
_atom_site_U_iso_or_equiv
_atom_site_adp_type
_atom_site_occupancy
Na1    Na    0.54230   0.51610   0.57274   0.01267  Uiso   1.00
Na2    Na    0.45770   0.48390   0.07274   0.01267  Uiso   1.00
Na3    Na    0.45770   0.48390   0.42726   0.01267  Uiso   1.00
Na4    Na    0.54230   0.51610   0.92726   0.01267  Uiso   1.00
Mo1    Mo    0.87824   0.76122   0.67081   0.01267  Uiso   1.00
Mo2    Mo    0.15415   0.99520   0.59975   0.01267  Uiso   1.00
Mo3    Mo    0.42651   0.24834   0.67650   0.01267  Uiso   1.00
Mo4    Mo    0.12176   0.23878   0.17081   0.01267  Uiso   1.00
Mo5    Mo    0.84585   0.00480   0.09975   0.01267  Uiso   1.00
Mo6    Mo    0.57349   0.75166   0.17650   0.01267  Uiso   1.00
Mo7    Mo    0.12176   0.23878   0.32919   0.01267  Uiso   1.00
Mo8    Mo    0.84585   0.00480   0.40025   0.01267  Uiso   1.00
Mo9    Mo    0.57349   0.75166   0.32350   0.01267  Uiso   1.00
Mo10   Mo    0.87824   0.76122   0.82919   0.01267  Uiso   1.00
Mo11   Mo    0.15415   0.99520   0.90025   0.01267  Uiso   1.00
Mo12   Mo    0.42651   0.24834   0.82350   0.01267  Uiso   1.00
P1     P     0.26040   0.69941   0.63052   0.01267  Uiso   1.00
P2     P     0.73960   0.30059   0.13052   0.01267  Uiso   1.00
P3     P     0.73960   0.30059   0.36948   0.01267  Uiso   1.00
P4     P     0.26040   0.69941   0.86948   0.01267  Uiso   1.00
P5     P     0.21050   0.96920   0.75000   0.01267  Uiso   1.00
P6     P     0.78950   0.03080   0.25000   0.01267  Uiso   1.00
H1     H     0.37670   0.59220   0.70300   0.01267  Uiso   1.00
H2     H     0.49880   0.72330   0.68940   0.01267  Uiso   1.00
H3     H     0.46880   0.90670   0.78520   0.01267  Uiso   1.00
H4     H     0.62330   0.40780   0.20300   0.01267  Uiso   1.00
H5     H     0.50120   0.27670   0.18940   0.01267  Uiso   1.00
H6     H     0.53120   0.09330   0.28520   0.01267  Uiso   1.00
H7     H     0.62330   0.40780   0.29700   0.01267  Uiso   1.00
H8     H     0.50120   0.27670   0.31060   0.01267  Uiso   1.00
H9     H     0.53120   0.09330   0.21480   0.01267  Uiso   1.00
H10    H     0.37670   0.59220   0.79700   0.01267  Uiso   1.00
H11    H     0.49880   0.72330   0.81060   0.01267  Uiso   1.00
H12    H     0.46880   0.90670   0.71480   0.01267  Uiso   1.00
C1     C     0.38220   0.68230   0.69620   0.01267  Uiso   1.00
C2     C     0.61780   0.31770   0.19620   0.01267  Uiso   1.00
C3     C     0.61780   0.31770   0.30380   0.01267  Uiso   1.00
C4     C     0.38220   0.68230   0.80380   0.01267  Uiso   1.00
C5     C     0.37990   0.88520   0.75000   0.01267  Uiso   1.00
C6     C     0.71070   0.14260   0.75000   0.01267  Uiso   1.00
C7     C     0.89190   0.13740   0.75000   0.01267  Uiso   1.00
C8     C     0.62010   0.11480   0.25000   0.01267  Uiso   1.00
C9     C     0.28930   0.85740   0.25000   0.01267  Uiso   1.00
C10    C     0.10810   0.86260   0.25000   0.01267  Uiso   1.00
N1     N     0.32160   0.73930   0.75000   0.01267  Uiso   1.00
N2     N     0.67840   0.26070   0.25000   0.01267  Uiso   1.00
O1     O     0.73920   0.63210   0.64410   0.01267  Uiso   1.00
O2     O     0.96860   0.84650   0.59920   0.01267  Uiso   1.00
O3     O     0.10700   0.92900   0.69510   0.01267  Uiso   1.00
O4     O     0.08130   0.66270   0.65410   0.01267  Uiso   1.00
O5     O     0.35650   0.09450   0.63310   0.01267  Uiso   1.00
O6     O     0.30350   0.83690   0.60870   0.01267  Uiso   1.00
O7     O     0.57190   0.33820   0.63050   0.01267  Uiso   1.00
O8     O     0.63730   0.14790   0.70120   0.01267  Uiso   1.00
O9     O     0.30230   0.60320   0.58810   0.01267  Uiso   1.00
O10    O     0.39830   0.34550   0.50860   0.01267  Uiso   1.00
O11    O     0.26080   0.36790   0.14410   0.01267  Uiso   1.00
O12    O     0.03140   0.15350   0.09920   0.01267  Uiso   1.00
O13    O     0.89300   0.07100   0.19510   0.01267  Uiso   1.00
O14    O     0.91870   0.33730   0.15410   0.01267  Uiso   1.00
O15    O     0.64350   0.90550   0.13310   0.01267  Uiso   1.00
O16    O     0.69650   0.16310   0.10870   0.01267  Uiso   1.00
O17    O     0.42810   0.66180   0.13050   0.01267  Uiso   1.00
O18    O     0.36270   0.85210   0.20120   0.01267  Uiso   1.00
O19    O     0.69770   0.39680   0.08810   0.01267  Uiso   1.00
O20    O     0.60170   0.65450   0.00860   0.01267  Uiso   1.00
O21    O     0.26080   0.36790   0.35590   0.01267  Uiso   1.00
O22    O     0.03140   0.15350   0.40080   0.01267  Uiso   1.00
O23    O     0.89300   0.07100   0.30490   0.01267  Uiso   1.00
O24    O     0.91870   0.33730   0.34590   0.01267  Uiso   1.00
O25    O     0.64350   0.90550   0.36690   0.01267  Uiso   1.00
O26    O     0.69650   0.16310   0.39130   0.01267  Uiso   1.00
O27    O     0.42810   0.66180   0.36950   0.01267  Uiso   1.00
O28    O     0.36270   0.85210   0.29880   0.01267  Uiso   1.00
O29    O     0.69770   0.39680   0.41190   0.01267  Uiso   1.00
O30    O     0.60170   0.65450   0.49140   0.01267  Uiso   1.00
O31    O     0.73920   0.63210   0.85590   0.01267  Uiso   1.00
O32    O     0.96860   0.84650   0.90080   0.01267  Uiso   1.00
O33    O     0.10700   0.92900   0.80490   0.01267  Uiso   1.00
O34    O     0.08130   0.66270   0.84590   0.01267  Uiso   1.00
O35    O     0.35650   0.09450   0.86690   0.01267  Uiso   1.00
O36    O     0.30350   0.83690   0.89130   0.01267  Uiso   1.00
O37    O     0.57190   0.33820   0.86950   0.01267  Uiso   1.00
O38    O     0.63730   0.14790   0.79880   0.01267  Uiso   1.00
O39    O     0.30230   0.60320   0.91190   0.01267  Uiso   1.00
O40    O     0.39830   0.34550   0.99140   0.01267  Uiso   1.00
O41    O     0.91640   0.71160   0.75000   0.01267  Uiso   1.00
O42    O     0.50050   0.33070   0.75000   0.01267  Uiso   1.00
O43    O     0.29420   0.11240   0.75000   0.01267  Uiso   1.00
O44    O     0.08360   0.28840   0.25000   0.01267  Uiso   1.00
O45    O     0.49950   0.66930   0.25000   0.01267  Uiso   1.00
O46    O     0.70580   0.88760   0.25000   0.01267  Uiso   1.00
