data_image0
_cell_length_a       8.7
_cell_length_b       11.4517
_cell_length_c       23.0491
_cell_angle_alpha    90
_cell_angle_beta     90
_cell_angle_gamma    90

_symmetry_space_group_name_H-M    "P 1"
_symmetry_int_tables_number       1

loop_
  _symmetry_equiv_pos_as_xyz
  'x, y, z'

loop_
  _atom_site_label
  _atom_site_occupancy
  _atom_site_fract_x
  _atom_site_fract_y
  _atom_site_fract_z
  _atom_site_thermal_displace_type
  _atom_site_B_iso_or_equiv
  _atom_site_type_symbol
  Zn1      1.0000 0.15229  0.82596  0.72796  Biso   1.000  Zn
  Zn2      1.0000 0.63304  0.79067  0.65885  Biso   1.000  Zn
  N1       1.0000 0.14640  0.95300  0.66740  Biso   1.000  N
  N2       1.0000 0.12840  0.55570  0.39110  Biso   1.000  N
  O1       1.0000 0.56670  0.60140  0.68010  Biso   1.000  O
  O2       1.0000 0.47830  0.69600  0.60630  Biso   1.000  O
  O3       1.0000 0.16960  0.65840  0.71590  Biso   1.000  O
  O4       1.0000 0.10440  0.66510  0.62370  Biso   1.000  O
  O5       1.0000 0.69150  0.34670  0.70980  Biso   1.000  O
  O6       1.0000 0.53710  0.35090  0.78500  Biso   1.000  O
  O7       1.0000 0.18290  0.31480  0.78800  Biso   1.000  O
  O8       1.0000 0.02310  0.37870  0.72300  Biso   1.000  O
  C1       1.0000 0.45280  0.38750  0.62690  Biso   1.000  C
  H1       1.0000 0.56290  0.39510  0.62140  Biso   1.000  H
  H2       1.0000 0.41430  0.32930  0.60000  Biso   1.000  H
  C2       1.0000 0.37430  0.50300  0.61690  Biso   1.000  C
  H3       1.0000 0.34470  0.51210  0.57620  Biso   1.000  H
  C3       1.0000 0.23210  0.49650  0.65620  Biso   1.000  C
  H4       1.0000 0.15480  0.44850  0.63660  Biso   1.000  H
  C4       1.0000 0.28560  0.43010  0.71080  Biso   1.000  C
  H5       1.0000 0.33020  0.48770  0.73740  Biso   1.000  H
  C5       1.0000 0.41680  0.35140  0.69000  Biso   1.000  C
  H6       1.0000 0.37780  0.27110  0.68900  Biso   1.000  H
  C6       1.0000 0.48430  0.60410  0.63660  Biso   1.000  C
  C7       1.0000 0.16480  0.61610  0.66520  Biso   1.000  C
  C8       1.0000 0.15680  0.37090  0.74250  Biso   1.000  C
  C9       1.0000 0.55740  0.35300  0.72980  Biso   1.000  C
  C10      1.0000 0.18440  0.93840  0.61290  Biso   1.000  C
  H7       1.0000 0.22070  0.86550  0.60160  Biso   1.000  H
  C11      1.0000 0.17390  0.02610  0.57030  Biso   1.000  C
  H8       1.0000 0.20260  0.01140  0.53210  Biso   1.000  H
  C12      1.0000 0.12020  0.13390  0.58670  Biso   1.000  C
  C13      1.0000 0.07960  0.15180  0.64330  Biso   1.000  C
  H9       1.0000 0.04270  0.22400  0.65540  Biso   1.000  H
  C14      1.0000 0.09440  0.06000  0.68260  Biso   1.000  C
  H10      1.0000 0.06730  0.07290  0.72110  Biso   1.000  H
  C15      1.0000 0.09760  0.23990  0.54640  Biso   1.000  C
  H11      1.0000 0.03970  0.30230  0.56020  Biso   1.000  H
  C16      1.0000 0.15140  0.24690  0.49750  Biso   1.000  C
  H12      1.0000 0.20420  0.18320  0.48240  Biso   1.000  H
  C17      1.0000 0.13550  0.35260  0.46160  Biso   1.000  C
  C18      1.0000 0.19580  0.35130  0.40600  Biso   1.000  C
  H13      1.0000 0.24240  0.28440  0.39140  Biso   1.000  H
  C19      1.0000 0.18550  0.45100  0.37240  Biso   1.000  C
  H14      1.0000 0.22010  0.44660  0.33430  Biso   1.000  H
  C20      1.0000 0.07230  0.55380  0.44690  Biso   1.000  C
  H15      1.0000 0.02910  0.62240  0.46100  Biso   1.000  H
  C21      1.0000 0.07470  0.45750  0.48400  Biso   1.000  C
  H16      1.0000 0.03780  0.46220  0.52180  Biso   1.000  H
  Zn3      1.0000 0.34771  0.17404  0.22796  Biso   1.000  Zn
  Zn4      1.0000 0.86696  0.20933  0.15885  Biso   1.000  Zn
  N3       1.0000 0.35360  0.04700  0.16740  Biso   1.000  N
  N4       1.0000 0.37160  0.44430  0.89110  Biso   1.000  N
  O9       1.0000 0.93330  0.39860  0.18010  Biso   1.000  O
  O10      1.0000 0.02170  0.30400  0.10630  Biso   1.000  O
  O11      1.0000 0.33040  0.34160  0.21590  Biso   1.000  O
  O12      1.0000 0.39560  0.33490  0.12370  Biso   1.000  O
  O13      1.0000 0.80850  0.65330  0.20980  Biso   1.000  O
  O14      1.0000 0.96290  0.64910  0.28500  Biso   1.000  O
  O15      1.0000 0.31710  0.68520  0.28800  Biso   1.000  O
  O16      1.0000 0.47690  0.62130  0.22300  Biso   1.000  O
  C22      1.0000 0.04720  0.61250  0.12690  Biso   1.000  C
  H17      1.0000 0.93710  0.60490  0.12140  Biso   1.000  H
  H18      1.0000 0.08570  0.67070  0.10000  Biso   1.000  H
  C23      1.0000 0.12570  0.49700  0.11690  Biso   1.000  C
  H19      1.0000 0.15530  0.48790  0.07620  Biso   1.000  H
  C24      1.0000 0.26790  0.50350  0.15620  Biso   1.000  C
  H20      1.0000 0.34520  0.55150  0.13660  Biso   1.000  H
  C25      1.0000 0.21440  0.56990  0.21080  Biso   1.000  C
  H21      1.0000 0.16980  0.51230  0.23740  Biso   1.000  H
  C26      1.0000 0.08320  0.64860  0.19000  Biso   1.000  C
  H22      1.0000 0.12220  0.72890  0.18900  Biso   1.000  H
  C27      1.0000 0.01570  0.39590  0.13660  Biso   1.000  C
  C28      1.0000 0.33520  0.38390  0.16520  Biso   1.000  C
  C29      1.0000 0.34320  0.62910  0.24250  Biso   1.000  C
  C30      1.0000 0.94260  0.64700  0.22980  Biso   1.000  C
  C31      1.0000 0.31560  0.06160  0.11290  Biso   1.000  C
  H23      1.0000 0.27930  0.13450  0.10160  Biso   1.000  H
  C32      1.0000 0.32610  0.97390  0.07030  Biso   1.000  C
  H24      1.0000 0.29740  0.98860  0.03210  Biso   1.000  H
  C33      1.0000 0.37980  0.86610  0.08670  Biso   1.000  C
  C34      1.0000 0.42040  0.84820  0.14330  Biso   1.000  C
  H25      1.0000 0.45730  0.77600  0.15540  Biso   1.000  H
  C35      1.0000 0.40560  0.94000  0.18260  Biso   1.000  C
  H26      1.0000 0.43270  0.92710  0.22110  Biso   1.000  H
  C36      1.0000 0.40240  0.76010  0.04640  Biso   1.000  C
  H27      1.0000 0.46030  0.69770  0.06020  Biso   1.000  H
  C37      1.0000 0.34860  0.75310  0.99750  Biso   1.000  C
  H28      1.0000 0.29580  0.81680  0.98240  Biso   1.000  H
  C38      1.0000 0.36450  0.64740  0.96160  Biso   1.000  C
  C39      1.0000 0.30420  0.64870  0.90600  Biso   1.000  C
  H29      1.0000 0.25760  0.71560  0.89140  Biso   1.000  H
  C40      1.0000 0.31450  0.54900  0.87240  Biso   1.000  C
  H30      1.0000 0.27990  0.55340  0.83430  Biso   1.000  H
  C41      1.0000 0.42770  0.44620  0.94690  Biso   1.000  C
  H31      1.0000 0.47090  0.37760  0.96100  Biso   1.000  H
  C42      1.0000 0.42530  0.54250  0.98400  Biso   1.000  C
  H32      1.0000 0.46220  0.53780  0.02180  Biso   1.000  H
  Zn5      1.0000 0.84771  0.32596  0.77204  Biso   1.000  Zn
  Zn6      1.0000 0.36696  0.29067  0.84115  Biso   1.000  Zn
  N5       1.0000 0.85360  0.45300  0.83260  Biso   1.000  N
  N6       1.0000 0.87160  0.05570  0.10890  Biso   1.000  N
  O17      1.0000 0.43330  0.10140  0.81990  Biso   1.000  O
  O18      1.0000 0.52170  0.19600  0.89370  Biso   1.000  O
  O19      1.0000 0.83040  0.15840  0.78410  Biso   1.000  O
  O20      1.0000 0.89560  0.16510  0.87630  Biso   1.000  O
  O21      1.0000 0.30850  0.84670  0.79020  Biso   1.000  O
  O22      1.0000 0.46290  0.85090  0.71500  Biso   1.000  O
  O23      1.0000 0.81710  0.81480  0.71200  Biso   1.000  O
  O24      1.0000 0.97690  0.87870  0.77700  Biso   1.000  O
  C43      1.0000 0.54720  0.88750  0.87310  Biso   1.000  C
  H33      1.0000 0.43710  0.89510  0.87860  Biso   1.000  H
  H34      1.0000 0.58570  0.82930  0.90000  Biso   1.000  H
  C44      1.0000 0.62570  0.00300  0.88310  Biso   1.000  C
  H35      1.0000 0.65530  0.01210  0.92380  Biso   1.000  H
  C45      1.0000 0.76790  0.99650  0.84380  Biso   1.000  C
  H36      1.0000 0.84520  0.94850  0.86340  Biso   1.000  H
  C46      1.0000 0.71440  0.93010  0.78920  Biso   1.000  C
  H37      1.0000 0.66980  0.98770  0.76260  Biso   1.000  H
  C47      1.0000 0.58320  0.85140  0.81000  Biso   1.000  C
  H38      1.0000 0.62220  0.77110  0.81100  Biso   1.000  H
  C48      1.0000 0.51570  0.10410  0.86340  Biso   1.000  C
  C49      1.0000 0.83520  0.11610  0.83480  Biso   1.000  C
  C50      1.0000 0.84320  0.87090  0.75750  Biso   1.000  C
  C51      1.0000 0.44260  0.85300  0.77020  Biso   1.000  C
  C52      1.0000 0.81560  0.43840  0.88710  Biso   1.000  C
  H39      1.0000 0.77930  0.36550  0.89840  Biso   1.000  H
  C53      1.0000 0.82610  0.52610  0.92970  Biso   1.000  C
  H40      1.0000 0.79740  0.51140  0.96790  Biso   1.000  H
  C54      1.0000 0.87980  0.63390  0.91330  Biso   1.000  C
  C55      1.0000 0.92040  0.65180  0.85670  Biso   1.000  C
  H41      1.0000 0.95730  0.72400  0.84460  Biso   1.000  H
  C56      1.0000 0.90560  0.56000  0.81740  Biso   1.000  C
  H42      1.0000 0.93270  0.57290  0.77890  Biso   1.000  H
  C57      1.0000 0.90240  0.73990  0.95360  Biso   1.000  C
  H43      1.0000 0.96030  0.80230  0.93980  Biso   1.000  H
  C58      1.0000 0.84860  0.74690  0.00250  Biso   1.000  C
  H44      1.0000 0.79580  0.68320  0.01760  Biso   1.000  H
  C59      1.0000 0.86450  0.85260  0.03840  Biso   1.000  C
  C60      1.0000 0.80420  0.85130  0.09400  Biso   1.000  C
  H45      1.0000 0.75760  0.78440  0.10860  Biso   1.000  H
  C61      1.0000 0.81450  0.95100  0.12760  Biso   1.000  C
  H46      1.0000 0.77990  0.94660  0.16570  Biso   1.000  H
  C62      1.0000 0.92770  0.05380  0.05310  Biso   1.000  C
  H47      1.0000 0.97090  0.12240  0.03900  Biso   1.000  H
  C63      1.0000 0.92530  0.95750  0.01600  Biso   1.000  C
  H48      1.0000 0.96220  0.96220  0.97820  Biso   1.000  H
  Zn7      1.0000 0.65229  0.67404  0.27204  Biso   1.000  Zn
  Zn8      1.0000 0.13304  0.70933  0.34115  Biso   1.000  Zn
  N7       1.0000 0.64640  0.54700  0.33260  Biso   1.000  N
  N8       1.0000 0.62840  0.94430  0.60890  Biso   1.000  N
  O25      1.0000 0.06670  0.89860  0.31990  Biso   1.000  O
  O26      1.0000 0.97830  0.80400  0.39370  Biso   1.000  O
  O27      1.0000 0.66960  0.84160  0.28410  Biso   1.000  O
  O28      1.0000 0.60440  0.83490  0.37630  Biso   1.000  O
  O29      1.0000 0.19150  0.15330  0.29020  Biso   1.000  O
  O30      1.0000 0.03710  0.14910  0.21500  Biso   1.000  O
  O31      1.0000 0.68290  0.18520  0.21200  Biso   1.000  O
  O32      1.0000 0.52310  0.12130  0.27700  Biso   1.000  O
  C64      1.0000 0.95280  0.11250  0.37310  Biso   1.000  C
  H49      1.0000 0.06290  0.10490  0.37860  Biso   1.000  H
  H50      1.0000 0.91430  0.17070  0.40000  Biso   1.000  H
  C65      1.0000 0.87430  0.99700  0.38310  Biso   1.000  C
  H51      1.0000 0.84470  0.98790  0.42380  Biso   1.000  H
  C66      1.0000 0.73210  0.00350  0.34380  Biso   1.000  C
  H52      1.0000 0.65480  0.05150  0.36340  Biso   1.000  H
  C67      1.0000 0.78560  0.06990  0.28920  Biso   1.000  C
  H53      1.0000 0.83020  0.01230  0.26260  Biso   1.000  H
  C68      1.0000 0.91680  0.14860  0.31000  Biso   1.000  C
  H54      1.0000 0.87780  0.22890  0.31100  Biso   1.000  H
  C69      1.0000 0.98430  0.89590  0.36340  Biso   1.000  C
  C70      1.0000 0.66480  0.88390  0.33480  Biso   1.000  C
  C71      1.0000 0.65680  0.12910  0.25750  Biso   1.000  C
  C72      1.0000 0.05740  0.14700  0.27020  Biso   1.000  C
  C73      1.0000 0.68440  0.56160  0.38710  Biso   1.000  C
  H55      1.0000 0.72070  0.63450  0.39840  Biso   1.000  H
  C74      1.0000 0.67390  0.47390  0.42970  Biso   1.000  C
  H56      1.0000 0.70260  0.48860  0.46790  Biso   1.000  H
  C75      1.0000 0.62020  0.36610  0.41330  Biso   1.000  C
  C76      1.0000 0.57960  0.34820  0.35670  Biso   1.000  C
  H57      1.0000 0.54270  0.27600  0.34460  Biso   1.000  H
  C77      1.0000 0.59440  0.44000  0.31740  Biso   1.000  C
  H58      1.0000 0.56730  0.42710  0.27890  Biso   1.000  H
  C78      1.0000 0.59760  0.26010  0.45360  Biso   1.000  C
  H59      1.0000 0.53970  0.19770  0.43980  Biso   1.000  H
  C79      1.0000 0.65140  0.25310  0.50250  Biso   1.000  C
  H60      1.0000 0.70420  0.31680  0.51760  Biso   1.000  H
  C80      1.0000 0.63550  0.14740  0.53840  Biso   1.000  C
  C81      1.0000 0.69580  0.14870  0.59400  Biso   1.000  C
  H61      1.0000 0.74240  0.21560  0.60860  Biso   1.000  H
  C82      1.0000 0.68550  0.04900  0.62760  Biso   1.000  C
  H62      1.0000 0.72010  0.05340  0.66570  Biso   1.000  H
  C83      1.0000 0.57230  0.94620  0.55310  Biso   1.000  C
  H63      1.0000 0.52910  0.87760  0.53900  Biso   1.000  H
  C84      1.0000 0.57470  0.04250  0.51600  Biso   1.000  C
  H64      1.0000 0.53780  0.03780  0.47820  Biso   1.000  H
