data_YIKLUZ_clean
_audit_creation_date              2015-05-19
_audit_creation_method            'Materials Studio'
_symmetry_space_group_name_H-M    'P1'
_symmetry_Int_Tables_number       1
_symmetry_cell_setting            triclinic
loop_
_symmetry_equiv_pos_as_xyz
  x,y,z
_cell_length_a                    9.8850
_cell_length_b                    10.0200
_cell_length_c                    16.4380
_cell_angle_alpha                 90.0000
_cell_angle_beta                  90.0000
_cell_angle_gamma                 90.0000
loop_
_atom_site_label
_atom_site_type_symbol
_atom_site_fract_x
_atom_site_fract_y
_atom_site_fract_z
_atom_site_U_iso_or_equiv
_atom_site_adp_type
_atom_site_occupancy
Zn1    Zn    0.14380   0.59660   0.29665   0.01267  Uiso   1.00
P2     P     0.42710   0.63730   0.21280   0.01267  Uiso   1.00
C3     C     0.35900   0.58800   0.11780   0.01267  Uiso   1.00
C4     C     0.41600   0.65900   0.04520   0.01267  Uiso   1.00
C5     C     0.13900   0.61100   0.46160   0.01267  Uiso   1.00
O6     O     0.33800   0.58140   0.27980   0.01267  Uiso   1.00
O7     O     0.07110   0.41740   0.28090   0.01267  Uiso   1.00
O8     O     0.06640   0.71070   0.21240   0.01267  Uiso   1.00
O9     O     0.08400   0.66600   0.40130   0.01267  Uiso   1.00
O10    O     0.22700   0.52600   0.45860   0.01267  Uiso   1.00
H11    H     0.74498   0.39509   0.38082   0.00000  Uiso   1.00
H12    H     0.87873   0.52290   0.39214   0.00000  Uiso   1.00
H13    H     0.03061   0.35367   0.45449   0.00000  Uiso   1.00
H14    H     0.89178   0.23000   0.45038   0.00000  Uiso   1.00
Zn15   Zn    0.35620   0.90340   0.29665   0.01267  Uiso   1.00
P16    P     0.07290   0.86270   0.21280   0.01267  Uiso   1.00
C17    C     0.14100   0.91200   0.11780   0.01267  Uiso   1.00
C18    C     0.08400   0.84100   0.04520   0.01267  Uiso   1.00
C19    C     0.36100   0.88900   0.46160   0.01267  Uiso   1.00
O20    O     0.16200   0.91860   0.27980   0.01267  Uiso   1.00
O21    O     0.42890   0.08260   0.28090   0.01267  Uiso   1.00
O22    O     0.43360   0.78930   0.21240   0.01267  Uiso   1.00
O23    O     0.41600   0.83400   0.40130   0.01267  Uiso   1.00
O24    O     0.27300   0.97400   0.45860   0.01267  Uiso   1.00
H25    H     0.75502   0.10491   0.38082   0.00000  Uiso   1.00
H26    H     0.62127   0.97710   0.39214   0.00000  Uiso   1.00
H27    H     0.46939   0.14633   0.45449   0.00000  Uiso   1.00
H28    H     0.60822   0.27000   0.45038   0.00000  Uiso   1.00
Zn29   Zn    0.85620   0.09660   0.20335   0.01267  Uiso   1.00
P30    P     0.57290   0.13730   0.28720   0.01267  Uiso   1.00
C31    C     0.64100   0.08800   0.38220   0.01267  Uiso   1.00
C32    C     0.58400   0.15900   0.45480   0.01267  Uiso   1.00
C33    C     0.86100   0.11100   0.03840   0.01267  Uiso   1.00
O34    O     0.66200   0.08140   0.22020   0.01267  Uiso   1.00
O35    O     0.92890   0.91740   0.21910   0.01267  Uiso   1.00
O36    O     0.93360   0.21070   0.28760   0.01267  Uiso   1.00
O37    O     0.91600   0.16600   0.09870   0.01267  Uiso   1.00
O38    O     0.77300   0.02600   0.04140   0.01267  Uiso   1.00
H39    H     0.25502   0.89509   0.11918   0.00000  Uiso   1.00
H40    H     0.12127   0.02290   0.10786   0.00000  Uiso   1.00
H41    H     0.96939   0.85367   0.04551   0.00000  Uiso   1.00
H42    H     0.10822   0.73000   0.04962   0.00000  Uiso   1.00
Zn43   Zn    0.64380   0.40340   0.20335   0.01267  Uiso   1.00
P44    P     0.92710   0.36270   0.28720   0.01267  Uiso   1.00
C45    C     0.85900   0.41200   0.38220   0.01267  Uiso   1.00
C46    C     0.91600   0.34100   0.45480   0.01267  Uiso   1.00
C47    C     0.63900   0.38900   0.03840   0.01267  Uiso   1.00
O48    O     0.83800   0.41860   0.22020   0.01267  Uiso   1.00
O49    O     0.57110   0.58260   0.21910   0.01267  Uiso   1.00
O50    O     0.56640   0.28930   0.28760   0.01267  Uiso   1.00
O51    O     0.58400   0.33400   0.09870   0.01267  Uiso   1.00
O52    O     0.72700   0.47400   0.04140   0.01267  Uiso   1.00
H53    H     0.24498   0.60491   0.11918   0.00000  Uiso   1.00
H54    H     0.37873   0.47710   0.10786   0.00000  Uiso   1.00
H55    H     0.53061   0.64633   0.04551   0.00000  Uiso   1.00
H56    H     0.39178   0.77000   0.04962   0.00000  Uiso   1.00
Zn57   Zn    0.85620   0.40340   0.70335   0.01267  Uiso   1.00
P58    P     0.57290   0.36270   0.78720   0.01267  Uiso   1.00
C59    C     0.64100   0.41200   0.88220   0.01267  Uiso   1.00
C60    C     0.58400   0.34100   0.95480   0.01267  Uiso   1.00
C61    C     0.86100   0.38900   0.53840   0.01267  Uiso   1.00
O62    O     0.66200   0.41860   0.72020   0.01267  Uiso   1.00
O63    O     0.92890   0.58260   0.71910   0.01267  Uiso   1.00
O64    O     0.93360   0.28930   0.78760   0.01267  Uiso   1.00
O65    O     0.91600   0.33400   0.59870   0.01267  Uiso   1.00
O66    O     0.77300   0.47400   0.54140   0.01267  Uiso   1.00
H67    H     0.25502   0.60491   0.61918   0.00000  Uiso   1.00
H68    H     0.12127   0.47710   0.60786   0.00000  Uiso   1.00
H69    H     0.96939   0.64633   0.54551   0.00000  Uiso   1.00
H70    H     0.10822   0.77000   0.54962   0.00000  Uiso   1.00
Zn71   Zn    0.64380   0.09660   0.70335   0.01267  Uiso   1.00
P72    P     0.92710   0.13730   0.78720   0.01267  Uiso   1.00
C73    C     0.85900   0.08800   0.88220   0.01267  Uiso   1.00
C74    C     0.91600   0.15900   0.95480   0.01267  Uiso   1.00
C75    C     0.63900   0.11100   0.53840   0.01267  Uiso   1.00
O76    O     0.83800   0.08140   0.72020   0.01267  Uiso   1.00
O77    O     0.57110   0.91740   0.71910   0.01267  Uiso   1.00
O78    O     0.56640   0.21070   0.78760   0.01267  Uiso   1.00
O79    O     0.58400   0.16600   0.59870   0.01267  Uiso   1.00
O80    O     0.72700   0.02600   0.54140   0.01267  Uiso   1.00
H81    H     0.24498   0.89509   0.61918   0.00000  Uiso   1.00
H82    H     0.37873   0.02290   0.60786   0.00000  Uiso   1.00
H83    H     0.53061   0.85367   0.54551   0.00000  Uiso   1.00
H84    H     0.39178   0.73000   0.54962   0.00000  Uiso   1.00
Zn85   Zn    0.14380   0.90340   0.79665   0.01267  Uiso   1.00
P86    P     0.42710   0.86270   0.71280   0.01267  Uiso   1.00
C87    C     0.35900   0.91200   0.61780   0.01267  Uiso   1.00
C88    C     0.41600   0.84100   0.54520   0.01267  Uiso   1.00
C89    C     0.13900   0.88900   0.96160   0.01267  Uiso   1.00
O90    O     0.33800   0.91860   0.77980   0.01267  Uiso   1.00
O91    O     0.07110   0.08260   0.78090   0.01267  Uiso   1.00
O92    O     0.06640   0.78930   0.71240   0.01267  Uiso   1.00
O93    O     0.08400   0.83400   0.90130   0.01267  Uiso   1.00
O94    O     0.22700   0.97400   0.95860   0.01267  Uiso   1.00
H95    H     0.74498   0.10491   0.88082   0.00000  Uiso   1.00
H96    H     0.87873   0.97710   0.89214   0.00000  Uiso   1.00
H97    H     0.03061   0.14633   0.95449   0.00000  Uiso   1.00
H98    H     0.89178   0.27000   0.95038   0.00000  Uiso   1.00
Zn99   Zn    0.35620   0.59660   0.79665   0.01267  Uiso   1.00
P100   P     0.07290   0.63730   0.71280   0.01267  Uiso   1.00
C101   C     0.14100   0.58800   0.61780   0.01267  Uiso   1.00
C102   C     0.08400   0.65900   0.54520   0.01267  Uiso   1.00
C103   C     0.36100   0.61100   0.96160   0.01267  Uiso   1.00
O104   O     0.16200   0.58140   0.77980   0.01267  Uiso   1.00
O105   O     0.42890   0.41740   0.78090   0.01267  Uiso   1.00
O106   O     0.43360   0.71070   0.71240   0.01267  Uiso   1.00
O107   O     0.41600   0.66600   0.90130   0.01267  Uiso   1.00
O108   O     0.27300   0.52600   0.95860   0.01267  Uiso   1.00
H109   H     0.75502   0.39509   0.88082   0.00000  Uiso   1.00
H110   H     0.62127   0.52290   0.89214   0.00000  Uiso   1.00
H111   H     0.46939   0.35367   0.95449   0.00000  Uiso   1.00
H112   H     0.60822   0.23000   0.95038   0.00000  Uiso   1.00
