data_image0
_cell_length_a       13.4158
_cell_length_b       21.8551
_cell_length_c       14.4779
_cell_angle_alpha    90
_cell_angle_beta     92.291
_cell_angle_gamma    90

_symmetry_space_group_name_H-M    "P 1"
_symmetry_int_tables_number       1

loop_
  _symmetry_equiv_pos_as_xyz
  'x, y, z'

loop_
  _atom_site_label
  _atom_site_occupancy
  _atom_site_fract_x
  _atom_site_fract_y
  _atom_site_fract_z
  _atom_site_thermal_displace_type
  _atom_site_B_iso_or_equiv
  _atom_site_type_symbol
  Cd1      1.0000 0.67501  0.01922  0.82615  Biso   1.000  Cd
  O1       1.0000 0.67270  0.98717  0.98000  Biso   1.000  O
  O2       1.0000 0.79400  0.94882  0.74583  Biso   1.000  O
  O3       1.0000 0.74680  0.03878  0.69267  Biso   1.000  O
  C1       1.0000 0.75960  0.00878  0.99980  Biso   1.000  C
  C2       1.0000 0.53530  0.11528  0.86180  Biso   1.000  C
  C3       1.0000 0.83790  0.97537  0.59290  Biso   1.000  C
  O4       1.0000 0.02680  0.42972  0.60581  Biso   1.000  O
  O5       1.0000 0.62090  0.11893  0.83380  Biso   1.000  O
  C4       1.0000 0.47620  0.17474  0.86890  Biso   1.000  C
  C5       1.0000 0.80710  0.99261  0.09230  Biso   1.000  C
  C6       1.0000 0.79100  0.98852  0.68360  Biso   1.000  C
  O6       1.0000 0.95080  0.93539  0.33719  Biso   1.000  O
  O7       1.0000 0.49280  0.06720  0.88170  Biso   1.000  O
  C7       1.0000 0.95570  0.98320  0.19010  Biso   1.000  C
  H1       1.0000 0.02410  0.98860  0.19970  Biso   1.000  H
  C8       1.0000 0.90100  0.95709  0.25740  Biso   1.000  C
  C9       1.0000 0.75310  0.96592  0.16120  Biso   1.000  C
  H2       1.0000 0.68490  0.95960  0.15140  Biso   1.000  H
  C10      1.0000 0.88030  0.91925  0.57560  Biso   1.000  C
  H3       1.0000 0.88430  0.88990  0.62220  Biso   1.000  H
  C11      1.0000 0.83450  0.01930  0.52350  Biso   1.000  C
  H4       1.0000 0.80730  0.05760  0.53480  Biso   1.000  H
  C12      1.0000 0.79870  0.94866  0.24390  Biso   1.000  C
  H5       1.0000 0.76150  0.93160  0.29030  Biso   1.000  H
  O8       1.0000 0.80570  0.03859  0.94255  Biso   1.000  O
  C13      1.0000 0.09810  0.40337  0.75110  Biso   1.000  C
  C14      1.0000 0.37420  0.28210  0.89430  Biso   1.000  C
  C15      1.0000 0.51380  0.22996  0.83960  Biso   1.000  C
  H6       1.0000 0.57460  0.23080  0.81100  Biso   1.000  H
  O9       1.0000 0.94080  0.45231  0.73056  Biso   1.000  O
  C16      1.0000 0.33310  0.22770  0.92130  Biso   1.000  C
  H7       1.0000 0.27080  0.22710  0.94720  Biso   1.000  H
  C17      1.0000 0.91690  0.90593  0.48950  Biso   1.000  C
  H8       1.0000 0.94500  0.86790  0.47800  Biso   1.000  H
  C18      1.0000 0.87110  0.00650  0.43770  Biso   1.000  C
  H9       1.0000 0.86880  0.03600  0.39140  Biso   1.000  H
  O10      1.0000 0.33040  0.33670  0.91990  Biso   1.000  O
  C19      1.0000 0.01430  0.43136  0.69160  Biso   1.000  C
  C20      1.0000 0.26650  0.36710  0.76620  Biso   1.000  C
  H10      1.0000 0.32770  0.35970  0.74040  Biso   1.000  H
  C21      1.0000 0.46330  0.28326  0.85200  Biso   1.000  C
  H11      1.0000 0.48940  0.32010  0.83170  Biso   1.000  H
  C22      1.0000 0.18840  0.39098  0.71330  Biso   1.000  C
  H12      1.0000 0.19680  0.39890  0.65100  Biso   1.000  H
  C23      1.0000 0.90880  0.00150  0.10790  Biso   1.000  C
  H13      1.0000 0.94580  0.01990  0.06260  Biso   1.000  H
  C24      1.0000 0.91100  0.94980  0.42170  Biso   1.000  C
  C25      1.0000 0.16430  0.36700  0.89700  Biso   1.000  C
  H14      1.0000 0.15640  0.35940  0.95950  Biso   1.000  H
  C26      1.0000 0.25250  0.35440  0.85770  Biso   1.000  C
  C27      1.0000 0.38410  0.17449  0.91020  Biso   1.000  C
  H15      1.0000 0.35740  0.13780  0.93020  Biso   1.000  H
  C28      1.0000 0.08710  0.39100  0.84330  Biso   1.000  C
  H16      1.0000 0.02640  0.39900  0.86970  Biso   1.000  H
  Cd2      1.0000 0.82499  0.51922  0.67385  Biso   1.000  Cd
  O11      1.0000 0.82730  0.48717  0.52000  Biso   1.000  O
  O12      1.0000 0.70600  0.44882  0.75417  Biso   1.000  O
  O13      1.0000 0.75320  0.53878  0.80733  Biso   1.000  O
  C29      1.0000 0.74040  0.50878  0.50020  Biso   1.000  C
  C30      1.0000 0.96470  0.61528  0.63820  Biso   1.000  C
  C31      1.0000 0.66210  0.47537  0.90710  Biso   1.000  C
  O14      1.0000 0.47320  0.92972  0.89419  Biso   1.000  O
  O15      1.0000 0.87910  0.61893  0.66620  Biso   1.000  O
  C32      1.0000 0.02380  0.67474  0.63110  Biso   1.000  C
  C33      1.0000 0.69290  0.49261  0.40770  Biso   1.000  C
  C34      1.0000 0.70900  0.48852  0.81640  Biso   1.000  C
  O16      1.0000 0.54920  0.43539  0.16281  Biso   1.000  O
  O17      1.0000 0.00720  0.56720  0.61830  Biso   1.000  O
  C35      1.0000 0.54430  0.48320  0.30990  Biso   1.000  C
  H17      1.0000 0.47590  0.48860  0.30030  Biso   1.000  H
  C36      1.0000 0.59900  0.45709  0.24260  Biso   1.000  C
  C37      1.0000 0.74690  0.46592  0.33880  Biso   1.000  C
  H18      1.0000 0.81510  0.45960  0.34860  Biso   1.000  H
  C38      1.0000 0.61970  0.41925  0.92440  Biso   1.000  C
  H19      1.0000 0.61570  0.38990  0.87780  Biso   1.000  H
  C39      1.0000 0.66550  0.51930  0.97650  Biso   1.000  C
  H20      1.0000 0.69270  0.55760  0.96520  Biso   1.000  H
  C40      1.0000 0.70130  0.44866  0.25610  Biso   1.000  C
  H21      1.0000 0.73850  0.43160  0.20970  Biso   1.000  H
  O18      1.0000 0.69430  0.53859  0.55745  Biso   1.000  O
  C41      1.0000 0.40190  0.90337  0.74890  Biso   1.000  C
  C42      1.0000 0.12580  0.78210  0.60570  Biso   1.000  C
  C43      1.0000 0.98620  0.72996  0.66040  Biso   1.000  C
  H22      1.0000 0.92540  0.73080  0.68900  Biso   1.000  H
  O19      1.0000 0.55920  0.95231  0.76944  Biso   1.000  O
  C44      1.0000 0.16690  0.72770  0.57870  Biso   1.000  C
  H23      1.0000 0.22920  0.72710  0.55280  Biso   1.000  H
  C45      1.0000 0.58310  0.40593  0.01050  Biso   1.000  C
  H24      1.0000 0.55500  0.36790  0.02200  Biso   1.000  H
  C46      1.0000 0.62890  0.50650  0.06230  Biso   1.000  C
  H25      1.0000 0.63120  0.53600  0.10860  Biso   1.000  H
  O20      1.0000 0.16960  0.83670  0.58010  Biso   1.000  O
  C47      1.0000 0.48570  0.93136  0.80840  Biso   1.000  C
  C48      1.0000 0.23350  0.86710  0.73380  Biso   1.000  C
  H26      1.0000 0.17230  0.85970  0.75960  Biso   1.000  H
  C49      1.0000 0.03670  0.78326  0.64800  Biso   1.000  C
  H27      1.0000 0.01060  0.82010  0.66830  Biso   1.000  H
  C50      1.0000 0.31160  0.89098  0.78670  Biso   1.000  C
  H28      1.0000 0.30320  0.89890  0.84900  Biso   1.000  H
  C51      1.0000 0.59120  0.50150  0.39210  Biso   1.000  C
  H29      1.0000 0.55420  0.51990  0.43740  Biso   1.000  H
  C52      1.0000 0.58900  0.44980  0.07830  Biso   1.000  C
  C53      1.0000 0.33570  0.86700  0.60300  Biso   1.000  C
  H30      1.0000 0.34360  0.85940  0.54050  Biso   1.000  H
  C54      1.0000 0.24750  0.85440  0.64230  Biso   1.000  C
  C55      1.0000 0.11590  0.67449  0.58980  Biso   1.000  C
  H31      1.0000 0.14260  0.63780  0.56980  Biso   1.000  H
  C56      1.0000 0.41290  0.89100  0.65670  Biso   1.000  C
  H32      1.0000 0.47360  0.89900  0.63030  Biso   1.000  H
  Cd3      1.0000 0.32499  0.98078  0.17385  Biso   1.000  Cd
  O21      1.0000 0.32730  0.01283  0.02000  Biso   1.000  O
  O22      1.0000 0.20600  0.05118  0.25417  Biso   1.000  O
  O23      1.0000 0.25320  0.96122  0.30733  Biso   1.000  O
  C57      1.0000 0.24040  0.99122  0.00020  Biso   1.000  C
  C58      1.0000 0.46470  0.88472  0.13820  Biso   1.000  C
  C59      1.0000 0.16210  0.02463  0.40710  Biso   1.000  C
  O24      1.0000 0.97320  0.57028  0.39419  Biso   1.000  O
  O25      1.0000 0.37910  0.88107  0.16620  Biso   1.000  O
  C60      1.0000 0.52380  0.82526  0.13110  Biso   1.000  C
  C61      1.0000 0.19290  0.00739  0.90770  Biso   1.000  C
  C62      1.0000 0.20900  0.01148  0.31640  Biso   1.000  C
  O26      1.0000 0.04920  0.06461  0.66281  Biso   1.000  O
  O27      1.0000 0.50720  0.93280  0.11830  Biso   1.000  O
  C63      1.0000 0.04430  0.01680  0.80990  Biso   1.000  C
  H33      1.0000 0.97590  0.01140  0.80030  Biso   1.000  H
  C64      1.0000 0.09900  0.04291  0.74260  Biso   1.000  C
  C65      1.0000 0.24690  0.03408  0.83880  Biso   1.000  C
  H34      1.0000 0.31510  0.04040  0.84860  Biso   1.000  H
  C66      1.0000 0.11970  0.08075  0.42440  Biso   1.000  C
  H35      1.0000 0.11570  0.11010  0.37780  Biso   1.000  H
  C67      1.0000 0.16550  0.98070  0.47650  Biso   1.000  C
  H36      1.0000 0.19270  0.94240  0.46520  Biso   1.000  H
  C68      1.0000 0.20130  0.05134  0.75610  Biso   1.000  C
  H37      1.0000 0.23850  0.06840  0.70970  Biso   1.000  H
  O28      1.0000 0.19430  0.96141  0.05745  Biso   1.000  O
  C69      1.0000 0.90190  0.59663  0.24890  Biso   1.000  C
  C70      1.0000 0.62580  0.71790  0.10570  Biso   1.000  C
  C71      1.0000 0.48620  0.77004  0.16040  Biso   1.000  C
  H38      1.0000 0.42540  0.76920  0.18900  Biso   1.000  H
  O29      1.0000 0.05920  0.54769  0.26944  Biso   1.000  O
  C72      1.0000 0.66690  0.77230  0.07870  Biso   1.000  C
  H39      1.0000 0.72920  0.77290  0.05280  Biso   1.000  H
  C73      1.0000 0.08310  0.09407  0.51050  Biso   1.000  C
  H40      1.0000 0.05500  0.13210  0.52200  Biso   1.000  H
  C74      1.0000 0.12890  0.99350  0.56230  Biso   1.000  C
  H41      1.0000 0.13120  0.96400  0.60860  Biso   1.000  H
  O30      1.0000 0.66960  0.66330  0.08010  Biso   1.000  O
  C75      1.0000 0.98570  0.56864  0.30840  Biso   1.000  C
  C76      1.0000 0.73350  0.63290  0.23380  Biso   1.000  C
  H42      1.0000 0.67230  0.64030  0.25960  Biso   1.000  H
  C77      1.0000 0.53670  0.71674  0.14800  Biso   1.000  C
  H43      1.0000 0.51060  0.67990  0.16830  Biso   1.000  H
  C78      1.0000 0.81160  0.60902  0.28670  Biso   1.000  C
  H44      1.0000 0.80320  0.60110  0.34900  Biso   1.000  H
  C79      1.0000 0.09120  0.99850  0.89210  Biso   1.000  C
  H45      1.0000 0.05420  0.98010  0.93740  Biso   1.000  H
  C80      1.0000 0.08900  0.05020  0.57830  Biso   1.000  C
  C81      1.0000 0.83570  0.63300  0.10300  Biso   1.000  C
  H46      1.0000 0.84360  0.64060  0.04050  Biso   1.000  H
  C82      1.0000 0.74750  0.64560  0.14230  Biso   1.000  C
  C83      1.0000 0.61590  0.82551  0.08980  Biso   1.000  C
  H47      1.0000 0.64260  0.86220  0.06980  Biso   1.000  H
  C84      1.0000 0.91290  0.60900  0.15670  Biso   1.000  C
  H48      1.0000 0.97360  0.60100  0.13030  Biso   1.000  H
  Cd4      1.0000 0.17501  0.48078  0.32615  Biso   1.000  Cd
  O31      1.0000 0.17270  0.51283  0.48000  Biso   1.000  O
  O32      1.0000 0.29400  0.55118  0.24583  Biso   1.000  O
  O33      1.0000 0.24680  0.46122  0.19267  Biso   1.000  O
  C85      1.0000 0.25960  0.49122  0.49980  Biso   1.000  C
  C86      1.0000 0.03530  0.38472  0.36180  Biso   1.000  C
  C87      1.0000 0.33790  0.52463  0.09290  Biso   1.000  C
  O34      1.0000 0.52680  0.07028  0.10581  Biso   1.000  O
  O35      1.0000 0.12090  0.38107  0.33380  Biso   1.000  O
  C88      1.0000 0.97620  0.32526  0.36890  Biso   1.000  C
  C89      1.0000 0.30710  0.50739  0.59230  Biso   1.000  C
  C90      1.0000 0.29100  0.51148  0.18360  Biso   1.000  C
  O36      1.0000 0.45080  0.56461  0.83719  Biso   1.000  O
  O37      1.0000 0.99280  0.43280  0.38170  Biso   1.000  O
  C91      1.0000 0.45570  0.51680  0.69010  Biso   1.000  C
  H49      1.0000 0.52410  0.51140  0.69970  Biso   1.000  H
  C92      1.0000 0.40100  0.54291  0.75740  Biso   1.000  C
  C93      1.0000 0.25310  0.53408  0.66120  Biso   1.000  C
  H50      1.0000 0.18490  0.54040  0.65140  Biso   1.000  H
  C94      1.0000 0.38030  0.58075  0.07560  Biso   1.000  C
  H51      1.0000 0.38430  0.61010  0.12220  Biso   1.000  H
  C95      1.0000 0.33450  0.48070  0.02350  Biso   1.000  C
  H52      1.0000 0.30730  0.44240  0.03480  Biso   1.000  H
  C96      1.0000 0.29870  0.55134  0.74390  Biso   1.000  C
  H53      1.0000 0.26150  0.56840  0.79030  Biso   1.000  H
  O38      1.0000 0.30570  0.46141  0.44255  Biso   1.000  O
  C97      1.0000 0.59810  0.09663  0.25110  Biso   1.000  C
  C98      1.0000 0.87420  0.21790  0.39430  Biso   1.000  C
  C99      1.0000 0.01380  0.27004  0.33960  Biso   1.000  C
  H54      1.0000 0.07460  0.26920  0.31100  Biso   1.000  H
  O39      1.0000 0.44080  0.04769  0.23056  Biso   1.000  O
  C100     1.0000 0.83310  0.27230  0.42130  Biso   1.000  C
  H55      1.0000 0.77080  0.27290  0.44720  Biso   1.000  H
  C101     1.0000 0.41690  0.59407  0.98950  Biso   1.000  C
  H56      1.0000 0.44500  0.63210  0.97800  Biso   1.000  H
  C102     1.0000 0.37110  0.49350  0.93770  Biso   1.000  C
  H57      1.0000 0.36880  0.46400  0.89140  Biso   1.000  H
  O40      1.0000 0.83040  0.16330  0.41990  Biso   1.000  O
  C103     1.0000 0.51430  0.06864  0.19160  Biso   1.000  C
  C104     1.0000 0.76650  0.13290  0.26620  Biso   1.000  C
  H58      1.0000 0.82770  0.14030  0.24040  Biso   1.000  H
  C105     1.0000 0.96330  0.21674  0.35200  Biso   1.000  C
  H59      1.0000 0.98940  0.17990  0.33170  Biso   1.000  H
  C106     1.0000 0.68840  0.10902  0.21330  Biso   1.000  C
  H60      1.0000 0.69680  0.10110  0.15100  Biso   1.000  H
  C107     1.0000 0.40880  0.49850  0.60790  Biso   1.000  C
  H61      1.0000 0.44580  0.48010  0.56260  Biso   1.000  H
  C108     1.0000 0.41100  0.55020  0.92170  Biso   1.000  C
  C109     1.0000 0.66430  0.13300  0.39700  Biso   1.000  C
  H62      1.0000 0.65640  0.14060  0.45950  Biso   1.000  H
  C110     1.0000 0.75250  0.14560  0.35770  Biso   1.000  C
  C111     1.0000 0.88410  0.32551  0.41020  Biso   1.000  C
  H63      1.0000 0.85740  0.36220  0.43020  Biso   1.000  H
  C112     1.0000 0.58710  0.10900  0.34330  Biso   1.000  C
  H64      1.0000 0.52640  0.10100  0.36970  Biso   1.000  H
  Cd5      1.0000 0.50000  0.00000  0.00000  Biso   1.000  Cd
  Cd6      1.0000 0.00000  0.50000  0.50000  Biso   1.000  Cd
