data_image0
_cell_length_a       15.1394
_cell_length_b       16.567
_cell_length_c       17.868
_cell_angle_alpha    95.399
_cell_angle_beta     97.074
_cell_angle_gamma    102.332

_symmetry_space_group_name_H-M    "P 1"
_symmetry_int_tables_number       1

loop_
  _symmetry_equiv_pos_as_xyz
  'x, y, z'

loop_
  _atom_site_label
  _atom_site_occupancy
  _atom_site_fract_x
  _atom_site_fract_y
  _atom_site_fract_z
  _atom_site_thermal_displace_type
  _atom_site_B_iso_or_equiv
  _atom_site_type_symbol
  Cd1      1.0000 0.31397  0.01764  0.36623  Biso   1.000  Cd
  Cd2      1.0000 0.86837  0.63416  0.07436  Biso   1.000  Cd
  C1       1.0000 0.57390  0.68680  0.14180  Biso   1.000  C
  H1       1.0000 0.57770  0.63480  0.15570  Biso   1.000  H
  C2       1.0000 0.51380  0.38540  0.61520  Biso   1.000  C
  C3       1.0000 0.76890  0.47730  0.77240  Biso   1.000  C
  H2       1.0000 0.82620  0.46870  0.76540  Biso   1.000  H
  C4       1.0000 0.49490  0.72040  0.15290  Biso   1.000  C
  H3       1.0000 0.44620  0.68880  0.17210  Biso   1.000  H
  C5       1.0000 0.69410  0.45710  0.71320  Biso   1.000  C
  H4       1.0000 0.70040  0.42970  0.66700  Biso   1.000  H
  C6       1.0000 0.59310  0.50130  0.79470  Biso   1.000  C
  H5       1.0000 0.53450  0.50390  0.80350  Biso   1.000  H
  C7       1.0000 0.61320  0.47690  0.72230  Biso   1.000  C
  C8       1.0000 0.47210  0.38810  0.54100  Biso   1.000  C
  H6       1.0000 0.46740  0.43890  0.52480  Biso   1.000  H
  C9       1.0000 0.53250  0.31110  0.63240  Biso   1.000  C
  H7       1.0000 0.56920  0.31000  0.67780  Biso   1.000  H
  C10      1.0000 0.49200  0.79740  0.13560  Biso   1.000  C
  C11      1.0000 0.66170  0.51950  0.84720  Biso   1.000  C
  H8       1.0000 0.65260  0.54120  0.89480  Biso   1.000  H
  C12      1.0000 0.30020  0.73080  0.07960  Biso   1.000  C
  H9       1.0000 0.33930  0.71110  0.05000  Biso   1.000  H
  C13      1.0000 0.55890  0.83970  0.10430  Biso   1.000  C
  H10      1.0000 0.55630  0.89260  0.09200  Biso   1.000  H
  C14      1.0000 0.64220  0.73280  0.11060  Biso   1.000  C
  C15      1.0000 0.75240  0.50930  0.83880  Biso   1.000  C
  C16      1.0000 0.07960  0.54760  0.71850  Biso   1.000  C
  H11      1.0000 0.09280  0.49930  0.69640  Biso   1.000  H
  C17      1.0000 0.81990  0.53050  0.90760  Biso   1.000  C
  C18      1.0000 0.43750  0.31400  0.49110  Biso   1.000  C
  H12      1.0000 0.40570  0.31560  0.44350  Biso   1.000  H
  C19      1.0000 0.06420  0.60800  0.67440  Biso   1.000  C
  H13      1.0000 0.06520  0.59980  0.62230  Biso   1.000  H
  C20      1.0000 0.21000  0.69830  0.06530  Biso   1.000  C
  H14      1.0000 0.18690  0.65370  0.02730  Biso   1.000  H
  C21      1.0000 0.07220  0.80180  0.55740  Biso   1.000  C
  H15      1.0000 0.01000  0.79410  0.54040  Biso   1.000  H
  C22      1.0000 0.09320  0.49150  0.84180  Biso   1.000  C
  C23      1.0000 0.33500  0.79470  0.13960  Biso   1.000  C
  C24      1.0000 0.49780  0.23730  0.58330  Biso   1.000  C
  H16      1.0000 0.50640  0.18690  0.59820  Biso   1.000  H
  C25      1.0000 0.18670  0.79460  0.16580  Biso   1.000  C
  H17      1.0000 0.14720  0.81610  0.19370  Biso   1.000  H
  C26      1.0000 0.72670  0.70030  0.09650  Biso   1.000  C
  C27      1.0000 0.45050  0.23940  0.51230  Biso   1.000  C
  C28      1.0000 0.15170  0.73010  0.10590  Biso   1.000  C
  C29      1.0000 0.07540  0.55790  0.79560  Biso   1.000  C
  C30      1.0000 0.04740  0.68080  0.70730  Biso   1.000  C
  C31      1.0000 0.05420  0.69760  0.08580  Biso   1.000  C
  C32      1.0000 0.27660  0.82480  0.18250  Biso   1.000  C
  H18      1.0000 0.30000  0.86630  0.22320  Biso   1.000  H
  C33      1.0000 0.04370  0.69170  0.78540  Biso   1.000  C
  H19      1.0000 0.03280  0.74090  0.80800  Biso   1.000  H
  C34      1.0000 0.09990  0.77470  0.62220  Biso   1.000  C
  C35      1.0000 0.63220  0.80790  0.08960  Biso   1.000  C
  H20      1.0000 0.67620  0.83820  0.06470  Biso   1.000  H
  C36      1.0000 0.05620  0.63010  0.82850  Biso   1.000  C
  H21      1.0000 0.05170  0.63660  0.88010  Biso   1.000  H
  C37      1.0000 0.13560  0.84130  0.51550  Biso   1.000  C
  H22      1.0000 0.11600  0.86040  0.47050  Biso   1.000  H
  C38      1.0000 0.65010  0.04510  0.17990  Biso   1.000  C
  H23      1.0000 0.65990  0.07480  0.13890  Biso   1.000  H
  C39      1.0000 0.19300  0.78530  0.64890  Biso   1.000  C
  H24      1.0000 0.21160  0.76580  0.69400  Biso   1.000  H
  C40      1.0000 0.99220  0.04900  0.29840  Biso   1.000  C
  H25      1.0000 0.01770  0.08410  0.34310  Biso   1.000  H
  C41      1.0000 0.69770  0.95590  0.26890  Biso   1.000  C
  H26      1.0000 0.73890  0.92520  0.28650  Biso   1.000  H
  C42      1.0000 0.57380  0.04620  0.21550  Biso   1.000  C
  H27      1.0000 0.53280  0.07720  0.19820  Biso   1.000  H
  C43      1.0000 0.25680  0.82490  0.60770  Biso   1.000  C
  H28      1.0000 0.31880  0.83290  0.62530  Biso   1.000  H
  C44      1.0000 0.40680  0.15970  0.46210  Biso   1.000  C
  C45      1.0000 0.29820  0.89690  0.49630  Biso   1.000  C
  C46      1.0000 0.71150  0.99930  0.20590  Biso   1.000  C
  C47      1.0000 0.22890  0.85250  0.54060  Biso   1.000  C
  C48      1.0000 0.00570  0.94850  0.19790  Biso   1.000  C
  H29      1.0000 0.04030  0.91610  0.17470  Biso   1.000  H
  C49      1.0000 0.86650  0.99360  0.19990  Biso   1.000  C
  C50      1.0000 0.62250  0.95930  0.30430  Biso   1.000  C
  H30      1.0000 0.61490  0.93270  0.34740  Biso   1.000  H
  C51      1.0000 0.91620  0.94430  0.16490  Biso   1.000  C
  H31      1.0000 0.89060  0.90900  0.12040  Biso   1.000  H
  C52      1.0000 0.90260  0.04590  0.26640  Biso   1.000  C
  H32      1.0000 0.86800  0.07840  0.28930  Biso   1.000  H
  C53      1.0000 0.55780  0.00170  0.27700  Biso   1.000  C
  C54      1.0000 0.04370  0.00010  0.26440  Biso   1.000  C
  C55      1.0000 0.47400  0.00010  0.31180  Biso   1.000  C
  C56      1.0000 0.13930  0.00370  0.30100  Biso   1.000  C
  O1       1.0000 0.55500  0.46330  0.64890  Biso   1.000  O
  O2       1.0000 0.73330  0.63220  0.12090  Biso   1.000  O
  O3       1.0000 0.10230  0.42360  0.80980  Biso   1.000  O
  O4       1.0000 0.42410  0.83390  0.15760  Biso   1.000  O
  O5       1.0000 0.80320  0.58000  0.95970  Biso   1.000  O
  O6       1.0000 0.99970  0.72790  0.12480  Biso   1.000  O
  O7       1.0000 0.03310  0.74220  0.66500  Biso   1.000  O
  O8       1.0000 0.01960  0.64110  0.03030  Biso   1.000  O
  O9       1.0000 0.36780  0.16450  0.39710  Biso   1.000  O
  O10      1.0000 0.10190  0.50530  0.91400  Biso   1.000  O
  O11      1.0000 0.17060  0.05240  0.36060  Biso   1.000  O
  O12      1.0000 0.77970  0.73780  0.06310  Biso   1.000  O
  O13      1.0000 0.26690  0.91880  0.43370  Biso   1.000  O
  O14      1.0000 0.89020  0.50220  0.90700  Biso   1.000  O
  O15      1.0000 0.40650  0.09340  0.48710  Biso   1.000  O
  O16      1.0000 0.46130  0.96260  0.36960  Biso   1.000  O
  O17      1.0000 0.18660  0.96200  0.26940  Biso   1.000  O
  O18      1.0000 0.41340  0.03370  0.28100  Biso   1.000  O
  O19      1.0000 0.78020  0.99200  0.16320  Biso   1.000  O
  O20      1.0000 0.38130  0.90830  0.52290  Biso   1.000  O
  Cd3      1.0000 0.68603  0.98236  0.63377  Biso   1.000  Cd
  Cd4      1.0000 0.13163  0.36584  0.92564  Biso   1.000  Cd
  C57      1.0000 0.42610  0.31320  0.85820  Biso   1.000  C
  H33      1.0000 0.42230  0.36520  0.84430  Biso   1.000  H
  C58      1.0000 0.48620  0.61460  0.38480  Biso   1.000  C
  C59      1.0000 0.23110  0.52270  0.22760  Biso   1.000  C
  H34      1.0000 0.17380  0.53130  0.23460  Biso   1.000  H
  C60      1.0000 0.50510  0.27960  0.84710  Biso   1.000  C
  H35      1.0000 0.55380  0.31120  0.82790  Biso   1.000  H
  C61      1.0000 0.30590  0.54290  0.28680  Biso   1.000  C
  H36      1.0000 0.29960  0.57030  0.33300  Biso   1.000  H
  C62      1.0000 0.40690  0.49870  0.20530  Biso   1.000  C
  H37      1.0000 0.46550  0.49610  0.19650  Biso   1.000  H
  C63      1.0000 0.38680  0.52310  0.27770  Biso   1.000  C
  C64      1.0000 0.52790  0.61190  0.45900  Biso   1.000  C
  H38      1.0000 0.53260  0.56110  0.47520  Biso   1.000  H
  C65      1.0000 0.46750  0.68890  0.36760  Biso   1.000  C
  H39      1.0000 0.43080  0.69000  0.32220  Biso   1.000  H
  C66      1.0000 0.50800  0.20260  0.86440  Biso   1.000  C
  C67      1.0000 0.33830  0.48050  0.15280  Biso   1.000  C
  H40      1.0000 0.34740  0.45880  0.10520  Biso   1.000  H
  C68      1.0000 0.69980  0.26920  0.92040  Biso   1.000  C
  H41      1.0000 0.66070  0.28890  0.95000  Biso   1.000  H
  C69      1.0000 0.44110  0.16030  0.89570  Biso   1.000  C
  H42      1.0000 0.44370  0.10740  0.90800  Biso   1.000  H
  C70      1.0000 0.35780  0.26720  0.88940  Biso   1.000  C
  C71      1.0000 0.24760  0.49070  0.16120  Biso   1.000  C
  C72      1.0000 0.92040  0.45240  0.28150  Biso   1.000  C
  H43      1.0000 0.90720  0.50070  0.30360  Biso   1.000  H
  C73      1.0000 0.18010  0.46950  0.09240  Biso   1.000  C
  C74      1.0000 0.56250  0.68600  0.50890  Biso   1.000  C
  H44      1.0000 0.59430  0.68440  0.55650  Biso   1.000  H
  C75      1.0000 0.93580  0.39200  0.32560  Biso   1.000  C
  H45      1.0000 0.93480  0.40020  0.37770  Biso   1.000  H
  C76      1.0000 0.79000  0.30170  0.93470  Biso   1.000  C
  H46      1.0000 0.81310  0.34630  0.97270  Biso   1.000  H
  C77      1.0000 0.92780  0.19820  0.44260  Biso   1.000  C
  H47      1.0000 0.99000  0.20590  0.45960  Biso   1.000  H
  C78      1.0000 0.90680  0.50850  0.15820  Biso   1.000  C
  C79      1.0000 0.66500  0.20530  0.86040  Biso   1.000  C
  C80      1.0000 0.50220  0.76270  0.41670  Biso   1.000  C
  H48      1.0000 0.49360  0.81310  0.40180  Biso   1.000  H
  C81      1.0000 0.81330  0.20540  0.83420  Biso   1.000  C
  H49      1.0000 0.85280  0.18390  0.80630  Biso   1.000  H
  C82      1.0000 0.27330  0.29970  0.90350  Biso   1.000  C
  C83      1.0000 0.54950  0.76060  0.48770  Biso   1.000  C
  C84      1.0000 0.84830  0.26990  0.89410  Biso   1.000  C
  C85      1.0000 0.92460  0.44210  0.20440  Biso   1.000  C
  C86      1.0000 0.95260  0.31920  0.29270  Biso   1.000  C
  C87      1.0000 0.94580  0.30240  0.91420  Biso   1.000  C
  C88      1.0000 0.72340  0.17520  0.81750  Biso   1.000  C
  H50      1.0000 0.70000  0.13370  0.77680  Biso   1.000  H
  C89      1.0000 0.95630  0.30830  0.21460  Biso   1.000  C
  H51      1.0000 0.96720  0.25910  0.19200  Biso   1.000  H
  C90      1.0000 0.90010  0.22530  0.37780  Biso   1.000  C
  C91      1.0000 0.36780  0.19210  0.91040  Biso   1.000  C
  H52      1.0000 0.32380  0.16180  0.93530  Biso   1.000  H
  C92      1.0000 0.94380  0.36990  0.17150  Biso   1.000  C
  H53      1.0000 0.94830  0.36340  0.11990  Biso   1.000  H
  C93      1.0000 0.86440  0.15870  0.48450  Biso   1.000  C
  H54      1.0000 0.88400  0.13960  0.52950  Biso   1.000  H
  C94      1.0000 0.34990  0.95490  0.82010  Biso   1.000  C
  H55      1.0000 0.34010  0.92520  0.86110  Biso   1.000  H
  C95      1.0000 0.80700  0.21470  0.35110  Biso   1.000  C
  H56      1.0000 0.78840  0.23420  0.30600  Biso   1.000  H
  C96      1.0000 0.00780  0.95100  0.70160  Biso   1.000  C
  H57      1.0000 0.98230  0.91590  0.65690  Biso   1.000  H
  C97      1.0000 0.30230  0.04410  0.73110  Biso   1.000  C
  H58      1.0000 0.26110  0.07480  0.71350  Biso   1.000  H
  C98      1.0000 0.42620  0.95380  0.78450  Biso   1.000  C
  H59      1.0000 0.46720  0.92280  0.80180  Biso   1.000  H
  C99      1.0000 0.74320  0.17510  0.39230  Biso   1.000  C
  H60      1.0000 0.68120  0.16710  0.37470  Biso   1.000  H
  C100     1.0000 0.59320  0.84030  0.53790  Biso   1.000  C
  C101     1.0000 0.70180  0.10310  0.50370  Biso   1.000  C
  C102     1.0000 0.28850  0.00070  0.79410  Biso   1.000  C
  C103     1.0000 0.77110  0.14750  0.45940  Biso   1.000  C
  C104     1.0000 0.99430  0.05150  0.80210  Biso   1.000  C
  H61      1.0000 0.95970  0.08390  0.82530  Biso   1.000  H
  C105     1.0000 0.13350  0.00640  0.80010  Biso   1.000  C
  C106     1.0000 0.37750  0.04070  0.69570  Biso   1.000  C
  H62      1.0000 0.38510  0.06730  0.65260  Biso   1.000  H
  C107     1.0000 0.08380  0.05570  0.83510  Biso   1.000  C
  H63      1.0000 0.10940  0.09100  0.87960  Biso   1.000  H
  C108     1.0000 0.09740  0.95410  0.73360  Biso   1.000  C
  H64      1.0000 0.13200  0.92160  0.71070  Biso   1.000  H
  C109     1.0000 0.44220  0.99830  0.72300  Biso   1.000  C
  C110     1.0000 0.95630  0.99990  0.73560  Biso   1.000  C
  C111     1.0000 0.52600  0.99990  0.68820  Biso   1.000  C
  C112     1.0000 0.86070  0.99630  0.69900  Biso   1.000  C
  O21      1.0000 0.44500  0.53670  0.35110  Biso   1.000  O
  O22      1.0000 0.26670  0.36780  0.87910  Biso   1.000  O
  O23      1.0000 0.89770  0.57640  0.19020  Biso   1.000  O
  O24      1.0000 0.57590  0.16610  0.84240  Biso   1.000  O
  O25      1.0000 0.19680  0.42000  0.04030  Biso   1.000  O
  O26      1.0000 0.00030  0.27210  0.87520  Biso   1.000  O
  O27      1.0000 0.96690  0.25780  0.33500  Biso   1.000  O
  O28      1.0000 0.98040  0.35890  0.96970  Biso   1.000  O
  O29      1.0000 0.63220  0.83550  0.60290  Biso   1.000  O
  O30      1.0000 0.89810  0.49470  0.08600  Biso   1.000  O
  O31      1.0000 0.82940  0.94760  0.63940  Biso   1.000  O
  O32      1.0000 0.22030  0.26220  0.93690  Biso   1.000  O
  O33      1.0000 0.73310  0.08120  0.56630  Biso   1.000  O
  O34      1.0000 0.10980  0.49780  0.09300  Biso   1.000  O
  O35      1.0000 0.59350  0.90660  0.51290  Biso   1.000  O
  O36      1.0000 0.53870  0.03740  0.63040  Biso   1.000  O
  O37      1.0000 0.81340  0.03800  0.73060  Biso   1.000  O
  O38      1.0000 0.58660  0.96630  0.71900  Biso   1.000  O
  O39      1.0000 0.21980  0.00800  0.83680  Biso   1.000  O
  O40      1.0000 0.61870  0.09170  0.47710  Biso   1.000  O
  Cd5      1.0000 0.50000  0.00000  0.50000  Biso   1.000  Cd
  Cd6      1.0000 0.00000  0.50000  0.00000  Biso   1.000  Cd
