data_YINCEF_clean
_audit_creation_date              2015-10-16
_audit_creation_method            'Materials Studio'
_symmetry_space_group_name_H-M    'P1'
_symmetry_Int_Tables_number       1
_symmetry_cell_setting            triclinic
loop_
_symmetry_equiv_pos_as_xyz
  x,y,z
_cell_length_a                    9.5237
_cell_length_b                    17.6727
_cell_length_c                    17.6727
_cell_angle_alpha                 103.4720
_cell_angle_beta                  103.7990
_cell_angle_gamma                 76.2008
loop_
_atom_site_label
_atom_site_type_symbol
_atom_site_fract_x
_atom_site_fract_y
_atom_site_fract_z
_atom_site_U_iso_or_equiv
_atom_site_adp_type
_atom_site_occupancy
Mn1    Mn    0.93578   0.67770   0.18726   0.01267  Uiso   1.00
Mn2    Mn    0.00000   0.50000   0.00000   0.01267  Uiso   1.00
Mn3    Mn    0.43578   0.81274   0.32230   0.01267  Uiso   1.00
Mn4    Mn    0.50000   0.00000   0.50000   0.01267  Uiso   1.00
Mn5    Mn    0.56422   0.18726   0.67770   0.01267  Uiso   1.00
Mn6    Mn    0.06422   0.32230   0.81274   0.01267  Uiso   1.00
H1     H     0.93930   0.33910   0.12870   0.01267  Uiso   1.00
H2     H     0.03100   0.97910   0.21450   0.01267  Uiso   1.00
H3     H     0.18810   0.21790   0.29690   0.01267  Uiso   1.00
H4     H     0.67520   0.89180   0.65180   0.01267  Uiso   1.00
H5     H     0.41580   0.68290   0.48550   0.01267  Uiso   1.00
H6     H     0.82480   0.65180   0.89180   0.01267  Uiso   1.00
H7     H     0.18180   0.35230   0.43610   0.01267  Uiso   1.00
H8     H     0.68810   0.70310   0.78210   0.01267  Uiso   1.00
H9     H     0.81190   0.78210   0.70310   0.01267  Uiso   1.00
H10    H     0.06940   0.70820   0.66200   0.01267  Uiso   1.00
H11    H     0.68180   0.56390   0.64770   0.01267  Uiso   1.00
H12    H     0.96900   0.02090   0.78550   0.01267  Uiso   1.00
H13    H     0.69840   0.71980   0.46740   0.01267  Uiso   1.00
H14    H     0.88610   0.09060   0.17000   0.01267  Uiso   1.00
H15    H     0.61390   0.17000   0.09060   0.01267  Uiso   1.00
H16    H     0.08420   0.48550   0.68290   0.01267  Uiso   1.00
H17    H     0.38610   0.83000   0.90940   0.01267  Uiso   1.00
H18    H     0.30160   0.28020   0.53260   0.01267  Uiso   1.00
H19    H     0.32230   0.46630   0.58350   0.01267  Uiso   1.00
H20    H     0.58420   0.31710   0.51450   0.01267  Uiso   1.00
H21    H     0.11390   0.90940   0.83000   0.01267  Uiso   1.00
H22    H     0.06070   0.66090   0.87130   0.01267  Uiso   1.00
H23    H     0.93060   0.29180   0.33800   0.01267  Uiso   1.00
H24    H     0.43930   0.87130   0.66090   0.01267  Uiso   1.00
H25    H     0.55630   0.63220   0.34580   0.01267  Uiso   1.00
H26    H     0.17520   0.34820   0.10820   0.01267  Uiso   1.00
H27    H     0.82230   0.41650   0.53370   0.01267  Uiso   1.00
H28    H     0.46900   0.21450   0.97910   0.01267  Uiso   1.00
H29    H     0.43060   0.66200   0.70820   0.01267  Uiso   1.00
H30    H     0.19840   0.53260   0.28020   0.01267  Uiso   1.00
H31    H     0.56940   0.33800   0.29180   0.01267  Uiso   1.00
H32    H     0.44370   0.36780   0.65420   0.01267  Uiso   1.00
H33    H     0.31190   0.29690   0.21790   0.01267  Uiso   1.00
H34    H     0.56070   0.12870   0.33910   0.01267  Uiso   1.00
H35    H     0.31820   0.43610   0.35230   0.01267  Uiso   1.00
H36    H     0.67770   0.53370   0.41650   0.01267  Uiso   1.00
H37    H     0.17770   0.58350   0.46630   0.01267  Uiso   1.00
H38    H     0.80160   0.46740   0.71980   0.01267  Uiso   1.00
H39    H     0.91580   0.51450   0.31710   0.01267  Uiso   1.00
H40    H     0.94370   0.34580   0.63220   0.01267  Uiso   1.00
H41    H     0.32480   0.10820   0.34820   0.01267  Uiso   1.00
H42    H     0.53100   0.78550   0.02090   0.01267  Uiso   1.00
H43    H     0.05630   0.65420   0.36780   0.01267  Uiso   1.00
H44    H     0.81820   0.64770   0.56390   0.01267  Uiso   1.00
C1     C     0.63400   0.52447   0.64973   0.01267  Uiso   1.00
C2     C     0.41870   0.46608   0.61092   0.01267  Uiso   1.00
C3     C     0.20590   0.30821   0.53339   0.01267  Uiso   1.00
C4     C     0.78320   0.73643   0.33997   0.01267  Uiso   1.00
C5     C     0.57490   0.34111   0.40749   0.01267  Uiso   1.00
C6     C     0.00910   0.61033   0.52507   0.01267  Uiso   1.00
C7     C     0.50830   0.59268   0.34732   0.01267  Uiso   1.00
C8     C     0.71330   0.04193   0.68627   0.01267  Uiso   1.00
C9     C     0.47570   0.79521   0.90639   0.01267  Uiso   1.00
C10    C     0.07000   0.67195   0.69265   0.01267  Uiso   1.00
C11    C     0.57380   0.16602   0.49538   0.01267  Uiso   1.00
C12    C     0.86370   0.69281   0.40579   0.01267  Uiso   1.00
C13    C     0.71680   0.33997   0.73643   0.01267  Uiso   1.00
C14    C     0.42510   0.65889   0.59251   0.01267  Uiso   1.00
C15    C     0.02430   0.90639   0.79521   0.01267  Uiso   1.00
C16    C     0.29410   0.53339   0.30821   0.01267  Uiso   1.00
C17    C     0.13630   0.30719   0.59421   0.01267  Uiso   1.00
C18    C     0.57470   0.21518   0.43582   0.01267  Uiso   1.00
C19    C     0.43400   0.77144   0.69636   0.01267  Uiso   1.00
C20    C     0.99090   0.38967   0.47493   0.01267  Uiso   1.00
C21    C     0.91870   0.38908   0.53392   0.01267  Uiso   1.00
C22    C     0.93000   0.32805   0.30735   0.01267  Uiso   1.00
C23    C     0.86600   0.64973   0.52447   0.01267  Uiso   1.00
C24    C     0.49090   0.52507   0.61033   0.01267  Uiso   1.00
C25    C     0.92530   0.43582   0.21518   0.01267  Uiso   1.00
C26    C     0.47590   0.22934   0.16426   0.01267  Uiso   1.00
C27    C     0.84460   0.82989   0.71831   0.01267  Uiso   1.00
C28    C     0.56600   0.22856   0.30364   0.01267  Uiso   1.00
C29    C     0.63630   0.40579   0.69281   0.01267  Uiso   1.00
C30    C     0.42530   0.78482   0.56418   0.01267  Uiso   1.00
C31    C     0.93380   0.35673   0.18187   0.01267  Uiso   1.00
C32    C     0.93400   0.30364   0.22856   0.01267  Uiso   1.00
C33    C     0.28670   0.95807   0.31373   0.01267  Uiso   1.00
C34    C     0.50910   0.47493   0.38967   0.01267  Uiso   1.00
C35    C     0.15540   0.17011   0.28169   0.01267  Uiso   1.00
C36    C     0.52430   0.20479   0.09361   0.01267  Uiso   1.00
C37    C     0.19280   0.03139   0.28681   0.01267  Uiso   1.00
C38    C     0.06600   0.69636   0.77144   0.01267  Uiso   1.00
C39    C     0.00830   0.65268   0.40732   0.01267  Uiso   1.00
C40    C     0.49170   0.40732   0.65268   0.01267  Uiso   1.00
C41    C     0.97570   0.09361   0.20479   0.01267  Uiso   1.00
C42    C     0.97590   0.83574   0.77066   0.01267  Uiso   1.00
C43    C     0.36370   0.59421   0.30719   0.01267  Uiso   1.00
C44    C     0.58130   0.53392   0.38908   0.01267  Uiso   1.00
C45    C     0.21330   0.31373   0.95807   0.01267  Uiso   1.00
C46    C     0.42120   0.70533   0.53887   0.01267  Uiso   1.00
C47    C     0.56620   0.18187   0.35673   0.01267  Uiso   1.00
C48    C     0.76220   0.89606   0.68874   0.01267  Uiso   1.00
C49    C     0.57880   0.29467   0.46113   0.01267  Uiso   1.00
C50    C     0.07380   0.50462   0.83398   0.01267  Uiso   1.00
C51    C     0.28320   0.66003   0.26357   0.01267  Uiso   1.00
C52    C     0.30720   0.28681   0.03139   0.01267  Uiso   1.00
C53    C     0.26220   0.31126   0.10394   0.01267  Uiso   1.00
C54    C     0.07470   0.56418   0.78482   0.01267  Uiso   1.00
C55    C     0.13400   0.35027   0.47553   0.01267  Uiso   1.00
C56    C     0.02410   0.16426   0.22934   0.01267  Uiso   1.00
C57    C     0.92620   0.49538   0.16602   0.01267  Uiso   1.00
C58    C     0.21680   0.26357   0.66003   0.01267  Uiso   1.00
C59    C     0.08130   0.61092   0.46608   0.01267  Uiso   1.00
C60    C     0.34460   0.28169   0.17011   0.01267  Uiso   1.00
C61    C     0.42620   0.83398   0.50462   0.01267  Uiso   1.00
C62    C     0.80720   0.96861   0.71319   0.01267  Uiso   1.00
C63    C     0.99170   0.34732   0.59268   0.01267  Uiso   1.00
C64    C     0.57000   0.30735   0.32805   0.01267  Uiso   1.00
C65    C     0.92510   0.40749   0.34111   0.01267  Uiso   1.00
C66    C     0.23780   0.10394   0.31126   0.01267  Uiso   1.00
C67    C     0.65540   0.71831   0.82989   0.01267  Uiso   1.00
C68    C     0.07490   0.59251   0.65889   0.01267  Uiso   1.00
C69    C     0.93840   0.97255   0.76745   0.01267  Uiso   1.00
C70    C     0.79410   0.69179   0.46661   0.01267  Uiso   1.00
C71    C     0.52410   0.77066   0.83574   0.01267  Uiso   1.00
C72    C     0.06160   0.02745   0.23255   0.01267  Uiso   1.00
C73    C     0.07880   0.53887   0.70533   0.01267  Uiso   1.00
C74    C     0.73780   0.68874   0.89606   0.01267  Uiso   1.00
C75    C     0.92120   0.46113   0.29467   0.01267  Uiso   1.00
C76    C     0.43000   0.69265   0.67195   0.01267  Uiso   1.00
C77    C     0.78670   0.68627   0.04193   0.01267  Uiso   1.00
C78    C     0.36600   0.47553   0.35027   0.01267  Uiso   1.00
C79    C     0.70590   0.46661   0.69179   0.01267  Uiso   1.00
C80    C     0.43840   0.23255   0.02745   0.01267  Uiso   1.00
C81    C     0.06620   0.64327   0.81813   0.01267  Uiso   1.00
C82    C     0.56160   0.76745   0.97255   0.01267  Uiso   1.00
C83    C     0.69280   0.71319   0.96861   0.01267  Uiso   1.00
C84    C     0.43380   0.81813   0.64327   0.01267  Uiso   1.00
O1     O     0.41170   0.80020   0.43368   0.01267  Uiso   1.00
O2     O     0.09470   0.36460   0.95954   0.01267  Uiso   1.00
O3     O     0.40530   0.95954   0.36460   0.01267  Uiso   1.00
O4     O     0.91650   0.43630   0.41936   0.01267  Uiso   1.00
O5     O     0.43960   0.90445   0.53155   0.01267  Uiso   1.00
O6     O     0.84530   0.34470   0.77158   0.01267  Uiso   1.00
O7     O     0.74390   0.71778   0.10638   0.01267  Uiso   1.00
O8     O     0.56040   0.09555   0.46845   0.01267  Uiso   1.00
O9     O     0.43570   0.80839   0.77525   0.01267  Uiso   1.00
O10    O     0.84470   0.73805   0.28603   0.01267  Uiso   1.00
O11    O     0.41650   0.58064   0.56370   0.01267  Uiso   1.00
O12    O     0.08830   0.43368   0.80020   0.01267  Uiso   1.00
O13    O     0.15470   0.65530   0.22842   0.01267  Uiso   1.00
O14    O     0.06430   0.77525   0.80839   0.01267  Uiso   1.00
O15    O     0.24390   0.89362   0.28222   0.01267  Uiso   1.00
O16    O     0.56430   0.19161   0.22475   0.01267  Uiso   1.00
O17    O     0.34470   0.71397   0.26195   0.01267  Uiso   1.00
O18    O     0.75610   0.10638   0.71778   0.01267  Uiso   1.00
O19    O     0.08350   0.56370   0.58064   0.01267  Uiso   1.00
O20    O     0.25610   0.28222   0.89362   0.01267  Uiso   1.00
O21    O     0.93570   0.22475   0.19161   0.01267  Uiso   1.00
O22    O     0.65530   0.28603   0.73805   0.01267  Uiso   1.00
O23    O     0.91170   0.56632   0.19980   0.01267  Uiso   1.00
O24    O     0.34530   0.22842   0.65530   0.01267  Uiso   1.00
O25    O     0.90530   0.63540   0.04046   0.01267  Uiso   1.00
O26    O     0.65470   0.77158   0.34470   0.01267  Uiso   1.00
O27    O     0.06040   0.53155   0.90445   0.01267  Uiso   1.00
O28    O     0.58350   0.41936   0.43630   0.01267  Uiso   1.00
O29    O     0.59470   0.04046   0.63540   0.01267  Uiso   1.00
O30    O     0.93960   0.46845   0.09555   0.01267  Uiso   1.00
O31    O     0.58830   0.19980   0.56632   0.01267  Uiso   1.00
O32    O     0.15530   0.26195   0.71397   0.01267  Uiso   1.00
