data_YINCIJ_clean
_audit_creation_date              2015-10-16
_audit_creation_method            'Materials Studio'
_symmetry_space_group_name_H-M    'P1'
_symmetry_Int_Tables_number       1
_symmetry_cell_setting            triclinic
loop_
_symmetry_equiv_pos_as_xyz
  x,y,z
_cell_length_a                    9.5150
_cell_length_b                    17.5466
_cell_length_c                    17.5466
_cell_angle_alpha                 103.6040
_cell_angle_beta                  102.7730
_cell_angle_gamma                 77.2266
loop_
_atom_site_label
_atom_site_type_symbol
_atom_site_fract_x
_atom_site_fract_y
_atom_site_fract_z
_atom_site_U_iso_or_equiv
_atom_site_adp_type
_atom_site_occupancy
Mn1    Mn    0.06499   0.82066   0.31296   0.01267  Uiso   1.00
Mn2    Mn    0.50000   0.50000   0.00000   0.01267  Uiso   1.00
Mn3    Mn    0.93501   0.17934   0.68704   0.01267  Uiso   1.00
Mn4    Mn    0.56499   0.68704   0.17934   0.01267  Uiso   1.00
Mn5    Mn    0.00000   0.00000   0.50000   0.01267  Uiso   1.00
Mn6    Mn    0.43501   0.31296   0.82066   0.01267  Uiso   1.00
H1     H     0.93380   0.83730   0.63110   0.01267  Uiso   1.00
H2     H     0.63090   0.68220   0.58960   0.01267  Uiso   1.00
H3     H     0.17690   0.84500   0.60600   0.01267  Uiso   1.00
H4     H     0.36910   0.31780   0.41040   0.01267  Uiso   1.00
H5     H     0.67920   0.03760   0.91020   0.01267  Uiso   1.00
H6     H     0.81510   0.28320   0.20640   0.01267  Uiso   1.00
H7     H     0.01810   0.47740   0.72740   0.01267  Uiso   1.00
H8     H     0.68490   0.20640   0.28320   0.01267  Uiso   1.00
H9     H     0.81940   0.14330   0.06170   0.01267  Uiso   1.00
H10    H     0.43380   0.36890   0.16270   0.01267  Uiso   1.00
H11    H     0.31940   0.93830   0.85670   0.01267  Uiso   1.00
H12    H     0.48190   0.72740   0.47740   0.01267  Uiso   1.00
H13    H     0.07350   0.21000   0.15860   0.01267  Uiso   1.00
H14    H     0.82310   0.15500   0.39400   0.01267  Uiso   1.00
H15    H     0.32310   0.60600   0.84500   0.01267  Uiso   1.00
H16    H     0.19700   0.03450   0.78350   0.01267  Uiso   1.00
H17    H     0.42650   0.15860   0.21000   0.01267  Uiso   1.00
H18    H     0.08230   0.98480   0.17800   0.01267  Uiso   1.00
H19    H     0.44430   0.86440   0.16000   0.01267  Uiso   1.00
H20    H     0.31510   0.79360   0.71680   0.01267  Uiso   1.00
H21    H     0.18490   0.71680   0.79360   0.01267  Uiso   1.00
H22    H     0.06620   0.16270   0.36890   0.01267  Uiso   1.00
H23    H     0.57350   0.84140   0.79000   0.01267  Uiso   1.00
H24    H     0.68060   0.06170   0.14330   0.01267  Uiso   1.00
H25    H     0.30300   0.78350   0.03450   0.01267  Uiso   1.00
H26    H     0.80300   0.96550   0.21650   0.01267  Uiso   1.00
H27    H     0.56620   0.63110   0.83730   0.01267  Uiso   1.00
H28    H     0.51810   0.27260   0.52260   0.01267  Uiso   1.00
H29    H     0.98190   0.52260   0.27260   0.01267  Uiso   1.00
H30    H     0.05570   0.16000   0.86440   0.01267  Uiso   1.00
H31    H     0.55570   0.13560   0.84000   0.01267  Uiso   1.00
H32    H     0.67690   0.39400   0.15500   0.01267  Uiso   1.00
H33    H     0.69700   0.21650   0.96550   0.01267  Uiso   1.00
H34    H     0.94430   0.84000   0.13560   0.01267  Uiso   1.00
H35    H     0.32080   0.96240   0.08980   0.01267  Uiso   1.00
H36    H     0.17920   0.08980   0.96240   0.01267  Uiso   1.00
H37    H     0.41770   0.17800   0.98480   0.01267  Uiso   1.00
H38    H     0.13090   0.41040   0.31780   0.01267  Uiso   1.00
H39    H     0.92650   0.79000   0.84140   0.01267  Uiso   1.00
H40    H     0.18060   0.85670   0.93830   0.01267  Uiso   1.00
H41    H     0.58230   0.82200   0.01520   0.01267  Uiso   1.00
H42    H     0.91770   0.01520   0.82200   0.01267  Uiso   1.00
H43    H     0.86910   0.58960   0.68220   0.01267  Uiso   1.00
H44    H     0.82080   0.91020   0.03760   0.01267  Uiso   1.00
C1     C     0.63320   0.02230   0.14770   0.01267  Uiso   1.00
C2     C     0.92540   0.93630   0.71910   0.01267  Uiso   1.00
C3     C     0.15000   0.66900   0.78080   0.01267  Uiso   1.00
C4     C     0.77750   0.18630   0.54310   0.01267  Uiso   1.00
C5     C     0.42540   0.28090   0.06370   0.01267  Uiso   1.00
C6     C     0.18380   0.53040   0.79060   0.01267  Uiso   1.00
C7     C     0.26630   0.81100   0.60200   0.01267  Uiso   1.00
C8     C     0.78140   0.24080   0.84160   0.01267  Uiso   1.00
C9     C     0.43020   0.33010   0.00450   0.01267  Uiso   1.00
C10    C     0.23370   0.60200   0.81100   0.01267  Uiso   1.00
C11    C     0.44920   0.74190   0.52590   0.01267  Uiso   1.00
C12    C     0.57460   0.71910   0.93630   0.01267  Uiso   1.00
C13    C     0.13320   0.85230   0.97770   0.01267  Uiso   1.00
C14    C     0.93250   0.80270   0.73210   0.01267  Uiso   1.00
C15    C     0.48900   0.02130   0.11070   0.01267  Uiso   1.00
C16    C     0.98280   0.33670   0.26750   0.01267  Uiso   1.00
C17    C     0.53860   0.71300   0.59260   0.01267  Uiso   1.00
C18    C     0.22250   0.81370   0.45690   0.01267  Uiso   1.00
C19    C     0.70650   0.96450   0.19110   0.01267  Uiso   1.00
C20    C     0.85000   0.33100   0.21920   0.01267  Uiso   1.00
C21    C     0.65000   0.21920   0.33100   0.01267  Uiso   1.00
C22    C     0.41760   0.96280   0.11500   0.01267  Uiso   1.00
C23    C     0.86680   0.14770   0.02230   0.01267  Uiso   1.00
C24    C     0.92300   0.90660   0.84420   0.01267  Uiso   1.00
C25    C     0.29350   0.03550   0.80890   0.01267  Uiso   1.00
C26    C     0.96140   0.59260   0.71300   0.01267  Uiso   1.00
C27    C     0.63590   0.90480   0.19700   0.01267  Uiso   1.00
C28    C     0.00840   0.15760   0.90460   0.01267  Uiso   1.00
C29    C     0.76630   0.39800   0.18900   0.01267  Uiso   1.00
C30    C     0.43110   0.31490   0.14470   0.01267  Uiso   1.00
C31    C     0.13590   0.80300   0.09520   0.01267  Uiso   1.00
C32    C     0.48280   0.73250   0.66330   0.01267  Uiso   1.00
C33    C     0.72250   0.54310   0.18630   0.01267  Uiso   1.00
C34    C     0.94920   0.47410   0.25810   0.01267  Uiso   1.00
C35    C     0.93110   0.85530   0.68510   0.01267  Uiso   1.00
C36    C     0.05080   0.52590   0.74190   0.01267  Uiso   1.00
C37    C     0.01720   0.66330   0.73250   0.01267  Uiso   1.00
C38    C     0.31620   0.79060   0.53040   0.01267  Uiso   1.00
C39    C     0.50840   0.09540   0.84240   0.01267  Uiso   1.00
C40    C     0.92140   0.96150   0.79870   0.01267  Uiso   1.00
C41    C     0.42300   0.15580   0.09340   0.01267  Uiso   1.00
C42    C     0.03860   0.40740   0.28700   0.01267  Uiso   1.00
C43    C     0.58240   0.03720   0.88500   0.01267  Uiso   1.00
C44    C     0.08240   0.11500   0.96280   0.01267  Uiso   1.00
C45    C     0.01100   0.11070   0.02130   0.01267  Uiso   1.00
C46    C     0.06890   0.14470   0.31490   0.01267  Uiso   1.00
C47    C     0.56980   0.66990   0.99550   0.01267  Uiso   1.00
C48    C     0.35000   0.78080   0.66900   0.01267  Uiso   1.00
C49    C     0.56890   0.68510   0.85530   0.01267  Uiso   1.00
C50    C     0.51720   0.26750   0.33670   0.01267  Uiso   1.00
C51    C     0.42720   0.18940   0.17360   0.01267  Uiso   1.00
C52    C     0.07280   0.17360   0.18940   0.01267  Uiso   1.00
C53    C     0.49160   0.90460   0.15760   0.01267  Uiso   1.00
C54    C     0.36410   0.09520   0.80300   0.01267  Uiso   1.00
C55    C     0.06750   0.19730   0.26790   0.01267  Uiso   1.00
C56    C     0.46140   0.28700   0.40740   0.01267  Uiso   1.00
C57    C     0.57700   0.84420   0.90660   0.01267  Uiso   1.00
C58    C     0.81620   0.46960   0.20940   0.01267  Uiso   1.00
C59    C     0.57280   0.81060   0.82640   0.01267  Uiso   1.00
C60    C     0.91760   0.88500   0.03720   0.01267  Uiso   1.00
C61    C     0.57860   0.79870   0.96150   0.01267  Uiso   1.00
C62    C     0.07860   0.03850   0.20130   0.01267  Uiso   1.00
C63    C     0.98900   0.88930   0.97870   0.01267  Uiso   1.00
C64    C     0.06980   0.00450   0.33010   0.01267  Uiso   1.00
C65    C     0.51100   0.97870   0.88930   0.01267  Uiso   1.00
C66    C     0.28140   0.15840   0.75920   0.01267  Uiso   1.00
C67    C     0.68380   0.20940   0.46960   0.01267  Uiso   1.00
C68    C     0.07700   0.09340   0.15580   0.01267  Uiso   1.00
C69    C     0.36680   0.97770   0.85230   0.01267  Uiso   1.00
C70    C     0.07460   0.06370   0.28090   0.01267  Uiso   1.00
C71    C     0.71860   0.84160   0.24080   0.01267  Uiso   1.00
C72    C     0.21860   0.75920   0.15840   0.01267  Uiso   1.00
C73    C     0.42140   0.20130   0.03850   0.01267  Uiso   1.00
C74    C     0.43250   0.26790   0.19730   0.01267  Uiso   1.00
C75    C     0.73370   0.18900   0.39800   0.01267  Uiso   1.00
C76    C     0.56750   0.73210   0.80270   0.01267  Uiso   1.00
C77    C     0.20650   0.80890   0.03550   0.01267  Uiso   1.00
C78    C     0.99160   0.84240   0.09540   0.01267  Uiso   1.00
C79    C     0.92720   0.82640   0.81060   0.01267  Uiso   1.00
C80    C     0.93020   0.99550   0.66990   0.01267  Uiso   1.00
C81    C     0.55080   0.25810   0.47410   0.01267  Uiso   1.00
C82    C     0.86410   0.19700   0.90480   0.01267  Uiso   1.00
C83    C     0.27750   0.45690   0.81370   0.01267  Uiso   1.00
C84    C     0.79350   0.19110   0.96450   0.01267  Uiso   1.00
O1     O     0.34610   0.72560   0.15180   0.01267  Uiso   1.00
O2     O     0.34140   0.21447   0.75613   0.01267  Uiso   1.00
O3     O     0.15390   0.15180   0.72560   0.01267  Uiso   1.00
O4     O     0.89640   0.13655   0.54105   0.01267  Uiso   1.00
O5     O     0.06890   0.27624   0.30576   0.01267  Uiso   1.00
O6     O     0.76230   0.60829   0.21891   0.01267  Uiso   1.00
O7     O     0.91560   0.93632   0.92368   0.01267  Uiso   1.00
O8     O     0.39640   0.45895   0.86345   0.01267  Uiso   1.00
O9     O     0.09210   0.93215   0.29745   0.01267  Uiso   1.00
O10    O     0.65860   0.78553   0.24387   0.01267  Uiso   1.00
O11    O     0.43110   0.30576   0.27624   0.01267  Uiso   1.00
O12    O     0.15860   0.75613   0.21447   0.01267  Uiso   1.00
O13    O     0.90790   0.06785   0.70255   0.01267  Uiso   1.00
O14    O     0.58440   0.92368   0.93632   0.01267  Uiso   1.00
O15    O     0.73770   0.21891   0.60829   0.01267  Uiso   1.00
O16    O     0.10360   0.86345   0.45895   0.01267  Uiso   1.00
O17    O     0.26230   0.78109   0.39171   0.01267  Uiso   1.00
O18    O     0.40790   0.29745   0.93215   0.01267  Uiso   1.00
O19    O     0.95280   0.96816   0.60044   0.01267  Uiso   1.00
O20    O     0.56890   0.69424   0.72376   0.01267  Uiso   1.00
O21    O     0.08440   0.06368   0.07632   0.01267  Uiso   1.00
O22    O     0.59210   0.70255   0.06785   0.01267  Uiso   1.00
O23    O     0.23770   0.39171   0.78109   0.01267  Uiso   1.00
O24    O     0.84610   0.84820   0.27440   0.01267  Uiso   1.00
O25    O     0.54720   0.60044   0.96816   0.01267  Uiso   1.00
O26    O     0.04720   0.03184   0.39956   0.01267  Uiso   1.00
O27    O     0.65390   0.27440   0.84820   0.01267  Uiso   1.00
O28    O     0.93110   0.72376   0.69424   0.01267  Uiso   1.00
O29    O     0.41560   0.07632   0.06368   0.01267  Uiso   1.00
O30    O     0.84140   0.24387   0.78553   0.01267  Uiso   1.00
O31    O     0.45280   0.39956   0.03184   0.01267  Uiso   1.00
O32    O     0.60360   0.54105   0.13655   0.01267  Uiso   1.00
