data_YINCOP_clean
_audit_creation_date              2015-10-16
_audit_creation_method            'Materials Studio'
_symmetry_space_group_name_H-M    'P1'
_symmetry_Int_Tables_number       1
_symmetry_cell_setting            triclinic
loop_
_symmetry_equiv_pos_as_xyz
  x,y,z
_cell_length_a                    9.3865
_cell_length_b                    17.4469
_cell_length_c                    17.4469
_cell_angle_alpha                 104.3650
_cell_angle_beta                  102.8230
_cell_angle_gamma                 77.1768
loop_
_atom_site_label
_atom_site_type_symbol
_atom_site_fract_x
_atom_site_fract_y
_atom_site_fract_z
_atom_site_U_iso_or_equiv
_atom_site_adp_type
_atom_site_occupancy
Mn1    Mn    0.44067   0.68148   0.18678   0.01267  Uiso   1.00
Mn2    Mn    0.55933   0.31852   0.81322   0.01267  Uiso   1.00
Mn3    Mn    0.05933   0.18678   0.68148   0.01267  Uiso   1.00
Mn4    Mn    0.50000   0.50000   0.00000   0.01267  Uiso   1.00
Mn5    Mn    0.94067   0.81322   0.31852   0.01267  Uiso   1.00
Mn6    Mn    0.00000   0.00000   0.50000   0.01267  Uiso   1.00
H1     H     0.32070   0.41390   0.53510   0.01267  Uiso   1.00
H2     H     0.01580   0.77920   0.02300   0.01267  Uiso   1.00
H3     H     0.17450   0.89420   0.66000   0.01267  Uiso   1.00
H4     H     0.42600   0.33760   0.12420   0.01267  Uiso   1.00
H5     H     0.06440   0.63160   0.34000   0.01267  Uiso   1.00
H6     H     0.18920   0.70860   0.78500   0.01267  Uiso   1.00
H7     H     0.42930   0.29010   0.33870   0.01267  Uiso   1.00
H8     H     0.87010   0.82520   0.91240   0.01267  Uiso   1.00
H9     H     0.62990   0.91240   0.82520   0.01267  Uiso   1.00
H10    H     0.12990   0.17480   0.08760   0.01267  Uiso   1.00
H11    H     0.69900   0.53130   0.27450   0.01267  Uiso   1.00
H12    H     0.93560   0.36840   0.66000   0.01267  Uiso   1.00
H13    H     0.32550   0.66000   0.89420   0.01267  Uiso   1.00
H14    H     0.82070   0.46490   0.58610   0.01267  Uiso   1.00
H15    H     0.57070   0.70990   0.66130   0.01267  Uiso   1.00
H16    H     0.81230   0.43480   0.34800   0.01267  Uiso   1.00
H17    H     0.51580   0.97700   0.22080   0.01267  Uiso   1.00
H18    H     0.91490   0.68070   0.48390   0.01267  Uiso   1.00
H19    H     0.17930   0.53510   0.41390   0.01267  Uiso   1.00
H20    H     0.31080   0.78500   0.70860   0.01267  Uiso   1.00
H21    H     0.18770   0.56520   0.65200   0.01267  Uiso   1.00
H22    H     0.30100   0.46870   0.72550   0.01267  Uiso   1.00
H23    H     0.37010   0.08760   0.17480   0.01267  Uiso   1.00
H24    H     0.07400   0.12420   0.33760   0.01267  Uiso   1.00
H25    H     0.68920   0.21500   0.29140   0.01267  Uiso   1.00
H26    H     0.82550   0.10580   0.34000   0.01267  Uiso   1.00
H27    H     0.68770   0.34800   0.43480   0.01267  Uiso   1.00
H28    H     0.58510   0.48390   0.68070   0.01267  Uiso   1.00
H29    H     0.56440   0.66000   0.36840   0.01267  Uiso   1.00
H30    H     0.08510   0.31930   0.51610   0.01267  Uiso   1.00
H31    H     0.92600   0.87580   0.66240   0.01267  Uiso   1.00
H32    H     0.41490   0.51610   0.31930   0.01267  Uiso   1.00
H33    H     0.67450   0.34000   0.10580   0.01267  Uiso   1.00
H34    H     0.43560   0.34000   0.63160   0.01267  Uiso   1.00
H35    H     0.48420   0.02300   0.77920   0.01267  Uiso   1.00
H36    H     0.98420   0.22080   0.97700   0.01267  Uiso   1.00
H37    H     0.80100   0.27450   0.53130   0.01267  Uiso   1.00
H38    H     0.92930   0.66130   0.70990   0.01267  Uiso   1.00
H39    H     0.57400   0.66240   0.87580   0.01267  Uiso   1.00
H40    H     0.19900   0.72550   0.46870   0.01267  Uiso   1.00
H41    H     0.81080   0.29140   0.21500   0.01267  Uiso   1.00
H42    H     0.07070   0.33870   0.29010   0.01267  Uiso   1.00
H43    H     0.67930   0.58610   0.46490   0.01267  Uiso   1.00
H44    H     0.31230   0.65200   0.56520   0.01267  Uiso   1.00
C1     C     0.72010   0.31082   0.95498   0.01267  Uiso   1.00
C2     C     0.44970   0.97454   0.76486   0.01267  Uiso   1.00
C3     C     0.07920   0.16550   0.49630   0.01267  Uiso   1.00
C4     C     0.65430   0.16650   0.27670   0.01267  Uiso   1.00
C5     C     0.36950   0.69868   0.40794   0.01267  Uiso   1.00
C6     C     0.27990   0.68918   0.04502   0.01267  Uiso   1.00
C7     C     0.93330   0.77411   0.69889   0.01267  Uiso   1.00
C8     C     0.03650   0.20621   0.09079   0.01267  Uiso   1.00
C9     C     0.70810   0.25606   0.65674   0.01267  Uiso   1.00
C10    C     0.99310   0.52436   0.61216   0.01267  Uiso   1.00
C11    C     0.57870   0.56404   0.78568   0.01267  Uiso   1.00
C12    C     0.18650   0.71529   0.97023   0.01267  Uiso   1.00
C13    C     0.42950   0.32629   0.30751   0.01267  Uiso   1.00
C14    C     0.07390   0.34069   0.40671   0.01267  Uiso   1.00
C15    C     0.92080   0.83450   0.50370   0.01267  Uiso   1.00
C16    C     0.51380   0.65782   0.40780   0.01267  Uiso   1.00
C17    C     0.07330   0.17913   0.35517   0.01267  Uiso   1.00
C18    C     0.50690   0.61216   0.52436   0.01267  Uiso   1.00
C19    C     0.96350   0.79379   0.90921   0.01267  Uiso   1.00
C20    C     0.79190   0.65674   0.25606   0.01267  Uiso   1.00
C21    C     0.15430   0.72330   0.83350   0.01267  Uiso   1.00
C22    C     0.20490   0.46784   0.69700   0.01267  Uiso   1.00
C23    C     0.86950   0.59206   0.30132   0.01267  Uiso   1.00
C24    C     0.86260   0.47452   0.34628   0.01267  Uiso   1.00
C25    C     0.34570   0.83350   0.72330   0.01267  Uiso   1.00
C26    C     0.57330   0.64483   0.82087   0.01267  Uiso   1.00
C27    C     0.00690   0.47564   0.38784   0.01267  Uiso   1.00
C28    C     0.49310   0.38784   0.47564   0.01267  Uiso   1.00
C29    C     0.07050   0.30751   0.32629   0.01267  Uiso   1.00
C30    C     0.58270   0.61409   0.46543   0.01267  Uiso   1.00
C31    C     0.91730   0.46543   0.61409   0.01267  Uiso   1.00
C32    C     0.26470   0.89858   0.69442   0.01267  Uiso   1.00
C33    C     0.07870   0.21432   0.43596   0.01267  Uiso   1.00
C34    C     0.81350   0.28471   0.02977   0.01267  Uiso   1.00
C35    C     0.98620   0.40780   0.65782   0.01267  Uiso   1.00
C36    C     0.13050   0.40794   0.69868   0.01267  Uiso   1.00
C37    C     0.63050   0.30132   0.59206   0.01267  Uiso   1.00
C38    C     0.46350   0.09079   0.20621   0.01267  Uiso   1.00
C39    C     0.48620   0.34218   0.59220   0.01267  Uiso   1.00
C40    C     0.42080   0.49630   0.16550   0.01267  Uiso   1.00
C41    C     0.29510   0.69700   0.46784   0.01267  Uiso   1.00
C42    C     0.41990   0.46180   0.29540   0.01267  Uiso   1.00
C43    C     0.63740   0.34628   0.47452   0.01267  Uiso   1.00
C44    C     0.41730   0.38591   0.53457   0.01267  Uiso   1.00
C45    C     0.92950   0.69249   0.67371   0.01267  Uiso   1.00
C46    C     0.57390   0.59329   0.65931   0.01267  Uiso   1.00
C47    C     0.84570   0.27670   0.16650   0.01267  Uiso   1.00
C48    C     0.92130   0.78568   0.56404   0.01267  Uiso   1.00
C49    C     0.31350   0.97023   0.71529   0.01267  Uiso   1.00
C50    C     0.42130   0.43596   0.21432   0.01267  Uiso   1.00
C51    C     0.01380   0.59220   0.34218   0.01267  Uiso   1.00
C52    C     0.79510   0.53216   0.30300   0.01267  Uiso   1.00
C53    C     0.76470   0.30558   0.10142   0.01267  Uiso   1.00
C54    C     0.51990   0.16037   0.22543   0.01267  Uiso   1.00
C55    C     0.05030   0.76486   0.97454   0.01267  Uiso   1.00
C56    C     0.57050   0.67371   0.69249   0.01267  Uiso   1.00
C57    C     0.55030   0.02546   0.23514   0.01267  Uiso   1.00
C58    C     0.92610   0.65931   0.59329   0.01267  Uiso   1.00
C59    C     0.43330   0.30111   0.22589   0.01267  Uiso   1.00
C60    C     0.29190   0.74394   0.34326   0.01267  Uiso   1.00
C61    C     0.70490   0.30300   0.53216   0.01267  Uiso   1.00
C62    C     0.73530   0.10142   0.30558   0.01267  Uiso   1.00
C63    C     0.06670   0.22589   0.30111   0.01267  Uiso   1.00
C64    C     0.42670   0.35517   0.17913   0.01267  Uiso   1.00
C65    C     0.13740   0.52548   0.65372   0.01267  Uiso   1.00
C66    C     0.92670   0.82087   0.64483   0.01267  Uiso   1.00
C67    C     0.57920   0.50370   0.83450   0.01267  Uiso   1.00
C68    C     0.22010   0.04502   0.68918   0.01267  Uiso   1.00
C69    C     0.42610   0.40671   0.34069   0.01267  Uiso   1.00
C70    C     0.91990   0.70460   0.53820   0.01267  Uiso   1.00
C71    C     0.98010   0.22543   0.16037   0.01267  Uiso   1.00
C72    C     0.68650   0.02977   0.28471   0.01267  Uiso   1.00
C73    C     0.58010   0.53820   0.70460   0.01267  Uiso   1.00
C74    C     0.94970   0.23514   0.02546   0.01267  Uiso   1.00
C75    C     0.48010   0.83963   0.77457   0.01267  Uiso   1.00
C76    C     0.01990   0.77457   0.83963   0.01267  Uiso   1.00
C77    C     0.77990   0.95498   0.31082   0.01267  Uiso   1.00
C78    C     0.53650   0.90921   0.79379   0.01267  Uiso   1.00
C79    C     0.08010   0.29540   0.46180   0.01267  Uiso   1.00
C80    C     0.36260   0.65372   0.52548   0.01267  Uiso   1.00
C81    C     0.56670   0.69889   0.77411   0.01267  Uiso   1.00
C82    C     0.23530   0.69442   0.89858   0.01267  Uiso   1.00
C83    C     0.08270   0.53457   0.38591   0.01267  Uiso   1.00
C84    C     0.20810   0.34326   0.74394   0.01267  Uiso   1.00
O1     O     0.93180   0.90739   0.53179   0.01267  Uiso   1.00
O2     O     0.14320   0.28956   0.74534   0.01267  Uiso   1.00
O3     O     0.90940   0.80012   0.43158   0.01267  Uiso   1.00
O4     O     0.76660   0.28148   0.88942   0.01267  Uiso   1.00
O5     O     0.40940   0.56842   0.19988   0.01267  Uiso   1.00
O6     O     0.33720   0.34965   0.78171   0.01267  Uiso   1.00
O7     O     0.93260   0.81207   0.77877   0.01267  Uiso   1.00
O8     O     0.42040   0.43665   0.42153   0.01267  Uiso   1.00
O9     O     0.16280   0.78171   0.34965   0.01267  Uiso   1.00
O10    O     0.43180   0.46821   0.09261   0.01267  Uiso   1.00
O11    O     0.66280   0.65035   0.21829   0.01267  Uiso   1.00
O12    O     0.56820   0.53179   0.90739   0.01267  Uiso   1.00
O13    O     0.90400   0.95782   0.35778   0.01267  Uiso   1.00
O14    O     0.09600   0.04218   0.64222   0.01267  Uiso   1.00
O15    O     0.92040   0.57847   0.56335   0.01267  Uiso   1.00
O16    O     0.73340   0.88942   0.28148   0.01267  Uiso   1.00
O17    O     0.06740   0.18793   0.22123   0.01267  Uiso   1.00
O18    O     0.56740   0.77877   0.81207   0.01267  Uiso   1.00
O19    O     0.57960   0.56335   0.57847   0.01267  Uiso   1.00
O20    O     0.35680   0.74534   0.28956   0.01267  Uiso   1.00
O21    O     0.59600   0.35778   0.95782   0.01267  Uiso   1.00
O22    O     0.06820   0.09261   0.46821   0.01267  Uiso   1.00
O23    O     0.07960   0.42153   0.43665   0.01267  Uiso   1.00
O24    O     0.43260   0.22123   0.18793   0.01267  Uiso   1.00
O25    O     0.09060   0.19988   0.56842   0.01267  Uiso   1.00
O26    O     0.40400   0.64222   0.04218   0.01267  Uiso   1.00
O27    O     0.59060   0.43158   0.80012   0.01267  Uiso   1.00
O28    O     0.85680   0.71044   0.25466   0.01267  Uiso   1.00
O29    O     0.26660   0.11058   0.71852   0.01267  Uiso   1.00
O30    O     0.64320   0.25466   0.71044   0.01267  Uiso   1.00
O31    O     0.23340   0.71852   0.11058   0.01267  Uiso   1.00
O32    O     0.83720   0.21829   0.65035   0.01267  Uiso   1.00
