data_YINCUV_clean
_audit_creation_date              2015-10-16
_audit_creation_method            'Materials Studio'
_symmetry_space_group_name_H-M    'P1'
_symmetry_Int_Tables_number       1
_symmetry_cell_setting            triclinic
loop_
_symmetry_equiv_pos_as_xyz
  x,y,z
_cell_length_a                    13.1020
_cell_length_b                    13.1340
_cell_length_c                    25.3360
_cell_angle_alpha                 93.9350
_cell_angle_beta                  90.0000
_cell_angle_gamma                 90.0000
loop_
_atom_site_label
_atom_site_type_symbol
_atom_site_fract_x
_atom_site_fract_y
_atom_site_fract_z
_atom_site_U_iso_or_equiv
_atom_site_adp_type
_atom_site_occupancy
Mn1    Mn    0.05282   0.76149   0.48483   0.01267  Uiso   1.00
Mn2    Mn    0.55282   0.73851   0.01517   0.01267  Uiso   1.00
Mn3    Mn    0.30616   0.47132   0.99833   0.01267  Uiso   1.00
Mn4    Mn    0.50000   0.00000   0.00000   0.01267  Uiso   1.00
Mn5    Mn    0.19384   0.97132   0.49833   0.01267  Uiso   1.00
Mn6    Mn    0.69384   0.52868   0.00167   0.01267  Uiso   1.00
Mn7    Mn    0.80616   0.02868   0.50167   0.01267  Uiso   1.00
Mn8    Mn    0.94718   0.23851   0.51517   0.01267  Uiso   1.00
Mn9    Mn    0.00000   0.50000   0.50000   0.01267  Uiso   1.00
Mn10   Mn    0.44718   0.26149   0.98483   0.01267  Uiso   1.00
H1     H     0.89180   0.03930   0.34720   0.01267  Uiso   1.00
H2     H     0.64860   0.70010   0.88000   0.01267  Uiso   1.00
H3     H     0.61560   0.33110   0.15270   0.01267  Uiso   1.00
H4     H     0.83930   0.44460   0.14310   0.01267  Uiso   1.00
H5     H     0.86170   0.14950   0.16790   0.01267  Uiso   1.00
H6     H     0.46820   0.18310   0.74590   0.01267  Uiso   1.00
H7     H     0.74370   0.59060   0.59550   0.01267  Uiso   1.00
H8     H     0.66670   0.73580   0.79020   0.01267  Uiso   1.00
H9     H     0.30970   0.99650   0.14250   0.01267  Uiso   1.00
H10    H     0.81490   0.80880   0.37870   0.01267  Uiso   1.00
H11    H     0.83480   0.87340   0.22860   0.01267  Uiso   1.00
H12    H     0.94070   0.86610   0.82530   0.01267  Uiso   1.00
H13    H     0.14860   0.79990   0.62000   0.01267  Uiso   1.00
H14    H     0.36170   0.35050   0.33210   0.01267  Uiso   1.00
H15    H     0.13830   0.85050   0.83210   0.01267  Uiso   1.00
H16    H     0.25630   0.40940   0.40450   0.01267  Uiso   1.00
H17    H     0.83330   0.23580   0.29020   0.01267  Uiso   1.00
H18    H     0.73210   0.81950   0.15740   0.01267  Uiso   1.00
H19    H     0.03180   0.68310   0.24590   0.01267  Uiso   1.00
H20    H     0.60820   0.53930   0.84720   0.01267  Uiso   1.00
H21    H     0.51440   0.94770   0.87410   0.01267  Uiso   1.00
H22    H     0.16070   0.55540   0.85690   0.01267  Uiso   1.00
H23    H     0.53180   0.81690   0.25410   0.01267  Uiso   1.00
H24    H     0.63830   0.64950   0.66790   0.01267  Uiso   1.00
H25    H     0.46250   0.77020   0.33360   0.01267  Uiso   1.00
H26    H     0.26790   0.18050   0.84260   0.01267  Uiso   1.00
H27    H     0.41840   0.66440   0.58440   0.01267  Uiso   1.00
H28    H     0.04890   0.93330   0.21860   0.01267  Uiso   1.00
H29    H     0.91480   0.40200   0.22210   0.01267  Uiso   1.00
H30    H     0.61740   0.13280   0.26920   0.01267  Uiso   1.00
H31    H     0.38440   0.66890   0.84730   0.01267  Uiso   1.00
H32    H     0.19030   0.49650   0.64250   0.01267  Uiso   1.00
H33    H     0.75630   0.09060   0.09550   0.01267  Uiso   1.00
H34    H     0.22160   0.67890   0.19870   0.01267  Uiso   1.00
H35    H     0.69030   0.00350   0.85750   0.01267  Uiso   1.00
H36    H     0.31490   0.69120   0.12130   0.01267  Uiso   1.00
H37    H     0.08160   0.16440   0.08440   0.01267  Uiso   1.00
H38    H     0.24370   0.90940   0.90450   0.01267  Uiso   1.00
H39    H     0.33330   0.26420   0.20980   0.01267  Uiso   1.00
H40    H     0.48560   0.05230   0.12590   0.01267  Uiso   1.00
H41    H     0.72160   0.82110   0.30130   0.01267  Uiso   1.00
H42    H     0.76790   0.31950   0.65740   0.01267  Uiso   1.00
H43    H     0.16670   0.76420   0.70980   0.01267  Uiso   1.00
H44    H     0.11560   0.16890   0.34730   0.01267  Uiso   1.00
H45    H     0.23210   0.68050   0.34260   0.01267  Uiso   1.00
H46    H     0.11740   0.36720   0.23080   0.01267  Uiso   1.00
H47    H     0.77840   0.32110   0.80130   0.01267  Uiso   1.00
H48    H     0.88260   0.63280   0.76920   0.01267  Uiso   1.00
H49    H     0.35140   0.29990   0.12000   0.01267  Uiso   1.00
H50    H     0.16520   0.12660   0.77140   0.01267  Uiso   1.00
H51    H     0.85140   0.20010   0.38000   0.01267  Uiso   1.00
H52    H     0.01440   0.55230   0.62590   0.01267  Uiso   1.00
H53    H     0.91840   0.83560   0.91560   0.01267  Uiso   1.00
H54    H     0.66070   0.94460   0.64310   0.01267  Uiso   1.00
H55    H     0.96820   0.31690   0.75410   0.01267  Uiso   1.00
H56    H     0.10820   0.96070   0.65280   0.01267  Uiso   1.00
H57    H     0.53750   0.22980   0.66640   0.01267  Uiso   1.00
H58    H     0.98560   0.44770   0.37410   0.01267  Uiso   1.00
H59    H     0.66520   0.37340   0.72860   0.01267  Uiso   1.00
H60    H     0.33480   0.62660   0.27140   0.01267  Uiso   1.00
H61    H     0.62990   0.65090   0.13610   0.01267  Uiso   1.00
H62    H     0.37010   0.34910   0.86390   0.01267  Uiso   1.00
H63    H     0.12990   0.84910   0.36390   0.01267  Uiso   1.00
H64    H     0.18510   0.19120   0.62130   0.01267  Uiso   1.00
H65    H     0.80970   0.50350   0.35750   0.01267  Uiso   1.00
H66    H     0.33930   0.05540   0.35690   0.01267  Uiso   1.00
H67    H     0.45110   0.43330   0.71860   0.01267  Uiso   1.00
H68    H     0.22940   0.98320   0.22420   0.01267  Uiso   1.00
H69    H     0.38260   0.86720   0.73080   0.01267  Uiso   1.00
H70    H     0.58160   0.33560   0.41560   0.01267  Uiso   1.00
H71    H     0.72940   0.51680   0.27580   0.01267  Uiso   1.00
H72    H     0.44070   0.63390   0.67470   0.01267  Uiso   1.00
H73    H     0.08520   0.59800   0.77790   0.01267  Uiso   1.00
H74    H     0.54890   0.56670   0.28140   0.01267  Uiso   1.00
H75    H     0.58520   0.90200   0.72210   0.01267  Uiso   1.00
H76    H     0.27840   0.17890   0.69870   0.01267  Uiso   1.00
H77    H     0.27060   0.48320   0.72420   0.01267  Uiso   1.00
H78    H     0.68510   0.30880   0.87870   0.01267  Uiso   1.00
H79    H     0.96250   0.72980   0.16640   0.01267  Uiso   1.00
H80    H     0.87010   0.15090   0.63610   0.01267  Uiso   1.00
H81    H     0.05930   0.13390   0.17470   0.01267  Uiso   1.00
H82    H     0.03750   0.27020   0.83360   0.01267  Uiso   1.00
H83    H     0.55930   0.36610   0.32530   0.01267  Uiso   1.00
H84    H     0.39180   0.46070   0.15280   0.01267  Uiso   1.00
H85    H     0.88440   0.83110   0.65270   0.01267  Uiso   1.00
H86    H     0.41480   0.09800   0.27790   0.01267  Uiso   1.00
H87    H     0.77060   0.01680   0.77580   0.01267  Uiso   1.00
H88    H     0.95110   0.06670   0.78140   0.01267  Uiso   1.00
C1     C     0.48200   0.96200   0.26076   0.01267  Uiso   1.00
C2     C     0.35110   0.85610   0.40611   0.01267  Uiso   1.00
C3     C     0.66570   0.58400   0.66597   0.01267  Uiso   1.00
C4     C     0.24200   0.11440   0.84040   0.01267  Uiso   1.00
C5     C     0.49470   0.86400   0.27543   0.01267  Uiso   1.00
C6     C     0.92360   0.46690   0.21031   0.01267  Uiso   1.00
C7     C     0.60850   0.09460   0.64651   0.01267  Uiso   1.00
C8     C     0.22810   0.95240   0.87794   0.01267  Uiso   1.00
C9     C     0.95130   0.57800   0.70055   0.01267  Uiso   1.00
C10    C     0.23510   0.55020   0.38072   0.01267  Uiso   1.00
C11    C     0.54850   0.16460   0.67738   0.01267  Uiso   1.00
C12    C     0.58790   0.61380   0.15736   0.01267  Uiso   1.00
C13    C     0.79710   0.74970   0.35852   0.01267  Uiso   1.00
C14    C     0.98190   0.71910   0.57821   0.01267  Uiso   1.00
C15    C     0.51800   0.03800   0.73924   0.01267  Uiso   1.00
C16    C     0.04870   0.42200   0.29945   0.01267  Uiso   1.00
C17    C     0.98870   0.05410   0.63589   0.01267  Uiso   1.00
C18    C     0.74200   0.38560   0.65960   0.01267  Uiso   1.00
C19    C     0.12490   0.25720   0.28371   0.01267  Uiso   1.00
C20    C     0.21750   0.74740   0.68509   0.01267  Uiso   1.00
C21    C     0.14720   0.98310   0.79388   0.01267  Uiso   1.00
C22    C     0.82440   0.65740   0.37564   0.01267  Uiso   1.00
C23    C     0.04850   0.33540   0.82262   0.01267  Uiso   1.00
C24    C     0.12220   0.50760   0.83672   0.01267  Uiso   1.00
C25    C     0.16570   0.91600   0.83403   0.01267  Uiso   1.00
C26    C     0.61690   0.33220   0.33643   0.01267  Uiso   1.00
C27    C     0.96360   0.99810   0.27903   0.01267  Uiso   1.00
C28    C     0.45150   0.83540   0.32262   0.01267  Uiso   1.00
C29    C     0.31830   0.58230   0.29726   0.01267  Uiso   1.00
C30    C     0.22280   0.83000   0.21879   0.01267  Uiso   1.00
C31    C     0.69050   0.29840   0.30068   0.01267  Uiso   1.00
C32    C     0.28250   0.24740   0.18509   0.01267  Uiso   1.00
C33    C     0.63030   0.31450   0.39050   0.01267  Uiso   1.00
C34    C     0.83520   0.40850   0.57522   0.01267  Uiso   1.00
C35    C     0.77720   0.17000   0.78121   0.01267  Uiso   1.00
C36    C     0.60020   0.14840   0.23507   0.01267  Uiso   1.00
C37    C     0.72280   0.67000   0.28121   0.01267  Uiso   1.00
C38    C     0.86970   0.81450   0.89050   0.01267  Uiso   1.00
C39    C     0.05420   0.99860   0.66770   0.01267  Uiso   1.00
C40    C     0.10170   0.88230   0.28708   0.01267  Uiso   1.00
C41    C     0.08790   0.88620   0.34264   0.01267  Uiso   1.00
C42    C     0.00530   0.36400   0.77543   0.01267  Uiso   1.00
C43    C     0.61510   0.15030   0.92498   0.01267  Uiso   1.00
C44    C     0.29710   0.75030   0.14148   0.01267  Uiso   1.00
C45    C     0.62490   0.24280   0.21629   0.01267  Uiso   1.00
C46    C     0.75380   0.07510   0.79698   0.01267  Uiso   1.00
C47    C     0.89830   0.11770   0.71292   0.01267  Uiso   1.00
C48    C     0.77190   0.04760   0.12206   0.01267  Uiso   1.00
C49    C     0.49070   0.55250   0.07688   0.01267  Uiso   1.00
C50    C     0.50530   0.13600   0.72457   0.01267  Uiso   1.00
C51    C     0.38310   0.66780   0.66357   0.01267  Uiso   1.00
C52    C     0.02100   0.40090   0.35177   0.01267  Uiso   1.00
C53    C     0.64890   0.14390   0.59389   0.01267  Uiso   1.00
C54    C     0.78250   0.25260   0.31491   0.01267  Uiso   1.00
C55    C     0.88490   0.65030   0.42498   0.01267  Uiso   1.00
C56    C     0.75800   0.88560   0.15960   0.01267  Uiso   1.00
C57    C     0.67560   0.15740   0.87564   0.01267  Uiso   1.00
C58    C     0.21880   0.23570   0.09507   0.01267  Uiso   1.00
C59    C     0.97900   0.59910   0.64823   0.01267  Uiso   1.00
C60    C     0.79570   0.56720   0.34535   0.01267  Uiso   1.00
C61    C     0.70640   0.73350   0.86877   0.01267  Uiso   1.00
C62    C     0.62220   0.99240   0.66328   0.01267  Uiso   1.00
C63    C     0.55020   0.19440   0.13244   0.01267  Uiso   1.00
C64    C     0.72550   0.24080   0.46388   0.01267  Uiso   1.00
C65    C     0.70290   0.24970   0.85852   0.01267  Uiso   1.00
C66    C     0.05020   0.30560   0.36756   0.01267  Uiso   1.00
C67    C     0.39830   0.38230   0.78708   0.01267  Uiso   1.00
C68    C     0.35280   0.48310   0.29388   0.01267  Uiso   1.00
C69    C     0.13030   0.18550   0.10950   0.01267  Uiso   1.00
C70    C     0.50930   0.44750   0.92312   0.01267  Uiso   1.00
C71    C     0.59950   0.26760   0.16462   0.01267  Uiso   1.00
C72    C     0.28120   0.73570   0.59507   0.01267  Uiso   1.00
C73    C     0.11690   0.16780   0.16357   0.01267  Uiso   1.00
C74    C     0.24310   0.74200   0.18838   0.01267  Uiso   1.00
C75    C     0.52100   0.09910   0.14823   0.01267  Uiso   1.00
C76    C     0.66480   0.90850   0.07522   0.01267  Uiso   1.00
C77    C     0.17560   0.34260   0.62436   0.01267  Uiso   1.00
C78    C     0.14890   0.35610   0.90611   0.01267  Uiso   1.00
C79    C     0.47900   0.90090   0.85177   0.01267  Uiso   1.00
C80    C     0.29570   0.93280   0.15465   0.01267  Uiso   1.00
C81    C     0.36970   0.68550   0.60950   0.01267  Uiso   1.00
C82    C     0.22550   0.25920   0.03612   0.01267  Uiso   1.00
C83    C     0.03980   0.93710   0.25509   0.01267  Uiso   1.00
C84    C     0.87780   0.49240   0.16328   0.01267  Uiso   1.00
C85    C     0.42360   0.03310   0.28969   0.01267  Uiso   1.00
C86    C     0.20290   0.25030   0.64148   0.01267  Uiso   1.00
C87    C     0.27450   0.75920   0.53612   0.01267  Uiso   1.00
C88    C     0.74620   0.57510   0.29698   0.01267  Uiso   1.00
C89    C     0.73510   0.94980   0.11928   0.01267  Uiso   1.00
C90    C     0.39980   0.85160   0.76493   0.01267  Uiso   1.00
C91    C     0.33520   0.09150   0.92478   0.01267  Uiso   1.00
C92    C     0.46360   0.50190   0.22097   0.01267  Uiso   1.00
C93    C     0.25380   0.42490   0.70302   0.01267  Uiso   1.00
C94    C     0.80950   0.79840   0.80068   0.01267  Uiso   1.00
C95    C     0.25690   0.24200   0.68838   0.01267  Uiso   1.00
C96    C     0.89980   0.64840   0.73507   0.01267  Uiso   1.00
C97    C     0.10850   0.40540   0.85349   0.01267  Uiso   1.00
C98    C     0.81830   0.91770   0.20274   0.01267  Uiso   1.00
C99    C     0.51810   0.21910   0.07821   0.01267  Uiso   1.00
C100   C     0.89150   0.59460   0.14651   0.01267  Uiso   1.00
C101   C     0.51130   0.55410   0.13589   0.01267  Uiso   1.00
C102   C     0.96020   0.06290   0.74491   0.01267  Uiso   1.00
C103   C     0.39150   0.90540   0.35349   0.01267  Uiso   1.00
C104   C     0.70430   0.06720   0.84535   0.01267  Uiso   1.00
C105   C     0.94980   0.69440   0.63244   0.01267  Uiso   1.00
C106   C     0.57640   0.96690   0.71031   0.01267  Uiso   1.00
C107   C     0.54870   0.07800   0.20055   0.01267  Uiso   1.00
C108   C     0.10020   0.35160   0.26493   0.01267  Uiso   1.00
C109   C     0.40050   0.73240   0.83538   0.01267  Uiso   1.00
C110   C     0.33430   0.41600   0.33403   0.01267  Uiso   1.00
C111   C     0.77450   0.74080   0.96388   0.01267  Uiso   1.00
C112   C     0.38490   0.84970   0.07502   0.01267  Uiso   1.00
C113   C     0.98200   0.53800   0.23924   0.01267  Uiso   1.00
C114   C     0.11510   0.34970   0.57502   0.01267  Uiso   1.00
C115   C     0.74310   0.75800   0.31162   0.01267  Uiso   1.00
C116   C     0.30950   0.70160   0.69932   0.01267  Uiso   1.00
C117   C     0.76490   0.44980   0.61928   0.01267  Uiso   1.00
C118   C     0.37780   0.00760   0.33672   0.01267  Uiso   1.00
C119   C     0.27720   0.33000   0.71879   0.01267  Uiso   1.00
C120   C     0.75690   0.25800   0.81162   0.01267  Uiso   1.00
C121   C     0.64720   0.51690   0.70612   0.01267  Uiso   1.00
C122   C     0.20430   0.43280   0.65465   0.01267  Uiso   1.00
C123   C     0.48870   0.44590   0.86411   0.01267  Uiso   1.00
C124   C     0.68170   0.41770   0.70274   0.01267  Uiso   1.00
C125   C     0.99070   0.94750   0.42312   0.01267  Uiso   1.00
C126   C     0.91210   0.11380   0.65736   0.01267  Uiso   1.00
C127   C     0.41210   0.38620   0.84264   0.01267  Uiso   1.00
C128   C     0.25800   0.61440   0.34040   0.01267  Uiso   1.00
C129   C     0.55420   0.50140   0.83230   0.01267  Uiso   1.00
C130   C     0.53640   0.49810   0.77903   0.01267  Uiso   1.00
C131   C     0.87510   0.74280   0.71629   0.01267  Uiso   1.00
C132   C     0.72810   0.54760   0.62206   0.01267  Uiso   1.00
C133   C     0.18170   0.08230   0.79726   0.01267  Uiso   1.00
C134   C     0.85110   0.64390   0.09389   0.01267  Uiso   1.00
C135   C     0.71750   0.75260   0.81491   0.01267  Uiso   1.00
C136   C     0.26490   0.05020   0.88072   0.01267  Uiso   1.00
C137   C     0.83430   0.08400   0.16597   0.01267  Uiso   1.00
C138   C     0.88310   0.83220   0.83643   0.01267  Uiso   1.00
C139   C     0.24620   0.92490   0.20302   0.01267  Uiso   1.00
C140   C     0.79360   0.23350   0.36877   0.01267  Uiso   1.00
C141   C     0.03640   0.00190   0.72097   0.01267  Uiso   1.00
C142   C     0.44980   0.80560   0.86756   0.01267  Uiso   1.00
C143   C     0.37510   0.75720   0.78371   0.01267  Uiso   1.00
C144   C     0.32440   0.84260   0.12436   0.01267  Uiso   1.00
C145   C     0.71880   0.26430   0.40493   0.01267  Uiso   1.00
C146   C     0.01800   0.46200   0.76076   0.01267  Uiso   1.00
C147   C     0.99470   0.63600   0.22457   0.01267  Uiso   1.00
C148   C     0.01130   0.94590   0.36411   0.01267  Uiso   1.00
C149   C     0.48190   0.78090   0.92179   0.01267  Uiso   1.00
C150   C     0.53980   0.56290   0.24491   0.01267  Uiso   1.00
C151   C     0.85280   0.01690   0.20612   0.01267  Uiso   1.00
C152   C     0.78120   0.76430   0.90493   0.01267  Uiso   1.00
C153   C     0.95150   0.66460   0.17738   0.01267  Uiso   1.00
C154   C     0.19050   0.20160   0.19932   0.01267  Uiso   1.00
C155   C     0.60170   0.61770   0.21292   0.01267  Uiso   1.00
C156   C     0.09950   0.23240   0.33538   0.01267  Uiso   1.00
C157   C     0.46020   0.43710   0.75509   0.01267  Uiso   1.00
C158   C     0.45130   0.92200   0.79945   0.01267  Uiso   1.00
C159   C     0.94580   0.00140   0.33230   0.01267  Uiso   1.00
C160   C     0.07640   0.53310   0.78969   0.01267  Uiso   1.00
C161   C     0.00930   0.05250   0.57688   0.01267  Uiso   1.00
C162   C     0.44580   0.49860   0.16770   0.01267  Uiso   1.00
C163   C     0.16480   0.59150   0.42478   0.01267  Uiso   1.00
C164   C     0.90050   0.76760   0.66462   0.01267  Uiso   1.00
C165   C     0.01810   0.28090   0.42179   0.01267  Uiso   1.00
C166   C     0.29360   0.26650   0.13123   0.01267  Uiso   1.00
C167   C     0.27190   0.45240   0.37794   0.01267  Uiso   1.00
C168   C     0.20640   0.76650   0.63123   0.01267  Uiso   1.00
O1     O     0.40840   0.76450   0.05009   0.01267  Uiso   1.00
O2     O     0.05960   0.91188   0.45211   0.01267  Uiso   1.00
O3     O     0.67880   0.31580   0.24646   0.01267  Uiso   1.00
O4     O     0.63387   0.81958   0.07404   0.01267  Uiso   1.00
O5     O     0.41040   0.93480   0.05992   0.01267  Uiso   1.00
O6     O     0.47050   0.69175   0.93631   0.01267  Uiso   1.00
O7     O     0.13180   0.28280   0.91605   0.01267  Uiso   1.00
O8     O     0.14040   0.52360   0.45818   0.01267  Uiso   1.00
O9     O     0.97050   0.80825   0.56369   0.01267  Uiso   1.00
O10    O     0.66160   0.27430   0.49437   0.01267  Uiso   1.00
O11    O     0.86820   0.71720   0.08395   0.01267  Uiso   1.00
O12    O     0.69490   0.68537   0.97465   0.01267  Uiso   1.00
O13    O     0.44040   0.41188   0.95211   0.01267  Uiso   1.00
O14    O     0.09520   0.02000   0.56188   0.01267  Uiso   1.00
O15    O     0.17880   0.18420   0.25354   0.01267  Uiso   1.00
O16    O     0.80510   0.18537   0.47465   0.01267  Uiso   1.00
O17    O     0.90810   0.06120   0.24863   0.01267  Uiso   1.00
O18    O     0.97890   0.35055   0.45376   0.01267  Uiso   1.00
O19    O     0.36613   0.18042   0.92596   0.01267  Uiso   1.00
O20    O     0.02950   0.19175   0.43631   0.01267  Uiso   1.00
O21    O     0.40810   0.43880   0.25137   0.01267  Uiso   1.00
O22    O     0.97370   0.48010   0.71395   0.01267  Uiso   1.00
O23    O     0.40480   0.52000   0.06188   0.01267  Uiso   1.00
O24    O     0.86613   0.31958   0.57404   0.01267  Uiso   1.00
O25    O     0.08960   0.43480   0.55992   0.01267  Uiso   1.00
O26    O     0.16160   0.22570   0.00563   0.01267  Uiso   1.00
O27    O     0.90480   0.98000   0.43812   0.01267  Uiso   1.00
O28    O     0.29450   0.93710   0.43167   0.01267  Uiso   1.00
O29    O     0.55960   0.58812   0.04789   0.01267  Uiso   1.00
O30    O     0.19490   0.81463   0.52535   0.01267  Uiso   1.00
O31    O     0.52110   0.85055   0.95376   0.01267  Uiso   1.00
O32    O     0.70550   0.06290   0.56833   0.01267  Uiso   1.00
O33    O     0.17710   0.81540   0.26767   0.01267  Uiso   1.00
O34    O     0.52950   0.30825   0.06369   0.01267  Uiso   1.00
O35    O     0.30510   0.31463   0.02535   0.01267  Uiso   1.00
O36    O     0.02630   0.51990   0.28605   0.01267  Uiso   1.00
O37    O     0.59160   0.23550   0.94991   0.01267  Uiso   1.00
O38    O     0.82290   0.18460   0.73233   0.01267  Uiso   1.00
O39    O     0.59520   0.48000   0.93812   0.01267  Uiso   1.00
O40    O     0.33840   0.72570   0.50563   0.01267  Uiso   1.00
O41    O     0.94040   0.08812   0.54789   0.01267  Uiso   1.00
O42    O     0.35960   0.02360   0.95818   0.01267  Uiso   1.00
O43    O     0.83840   0.77430   0.99437   0.01267  Uiso   1.00
O44    O     0.52630   0.98010   0.21395   0.01267  Uiso   1.00
O45    O     0.79450   0.56290   0.06833   0.01267  Uiso   1.00
O46    O     0.09190   0.93880   0.75137   0.01267  Uiso   1.00
O47    O     0.02110   0.64945   0.54624   0.01267  Uiso   1.00
O48    O     0.20550   0.43710   0.93167   0.01267  Uiso   1.00
O49    O     0.63180   0.21720   0.58395   0.01267  Uiso   1.00
O50    O     0.32120   0.68420   0.75354   0.01267  Uiso   1.00
O51    O     0.47370   0.01990   0.78605   0.01267  Uiso   1.00
O52    O     0.36820   0.78280   0.41605   0.01267  Uiso   1.00
O53    O     0.13387   0.68042   0.42596   0.01267  Uiso   1.00
O54    O     0.09160   0.26450   0.55009   0.01267  Uiso   1.00
O55    O     0.58960   0.06520   0.94008   0.01267  Uiso   1.00
O56    O     0.47890   0.14945   0.04624   0.01267  Uiso   1.00
O57    O     0.67710   0.68460   0.23233   0.01267  Uiso   1.00
O58    O     0.85960   0.47640   0.54182   0.01267  Uiso   1.00
O59    O     0.64040   0.97640   0.04182   0.01267  Uiso   1.00
O60    O     0.82120   0.81580   0.74646   0.01267  Uiso   1.00
O61    O     0.91040   0.56520   0.44008   0.01267  Uiso   1.00
O62    O     0.90840   0.73550   0.44991   0.01267  Uiso   1.00
O63    O     0.32290   0.31540   0.76767   0.01267  Uiso   1.00
O64    O     0.59190   0.56120   0.74863   0.01267  Uiso   1.00
