data_image0
_cell_length_a       18.6679
_cell_length_b       18.6679
_cell_length_c       17.8347
_cell_angle_alpha    90
_cell_angle_beta     90
_cell_angle_gamma    90

_symmetry_space_group_name_H-M    "P 1"
_symmetry_int_tables_number       1

loop_
  _symmetry_equiv_pos_as_xyz
  'x, y, z'

loop_
  _atom_site_label
  _atom_site_occupancy
  _atom_site_fract_x
  _atom_site_fract_y
  _atom_site_fract_z
  _atom_site_thermal_displace_type
  _atom_site_B_iso_or_equiv
  _atom_site_type_symbol
  Cd1      1.0000 0.57282  0.43288  0.00611  Biso   1.000  Cd
  Cl1      1.0000 0.54698  0.55606  0.06451  Biso   1.000  Cl
  O1       1.0000 0.65260  0.47857  0.92151  Biso   1.000  O
  C1       1.0000 0.70950  0.41950  0.81920  Biso   1.000  C
  O2       1.0000 0.63837  0.36253  0.91257  Biso   1.000  O
  C2       1.0000 0.66390  0.41980  0.88870  Biso   1.000  C
  C3       1.0000 0.72330  0.48240  0.78110  Biso   1.000  C
  H1       1.0000 0.70470  0.52520  0.79920  Biso   1.000  H
  C4       1.0000 0.73740  0.35690  0.79140  Biso   1.000  C
  H2       1.0000 0.72730  0.31390  0.81540  Biso   1.000  H
  C5       1.0000 0.78030  0.35700  0.72820  Biso   1.000  C
  H3       1.0000 0.80050  0.31430  0.71140  Biso   1.000  H
  C6       1.0000 0.79330  0.41970  0.69000  Biso   1.000  C
  C7       1.0000 0.84110  0.41990  0.62160  Biso   1.000  C
  C8       1.0000 0.76430  0.48270  0.71670  Biso   1.000  C
  H4       1.0000 0.77240  0.52540  0.69120  Biso   1.000  H
  O3       1.0000 0.87909  0.36682  0.60783  Biso   1.000  O
  O4       1.0000 0.84190  0.47506  0.58071  Biso   1.000  O
  Cd2      1.0000 0.92718  0.06712  0.00611  Biso   1.000  Cd
  Cl2      1.0000 0.95302  0.94394  0.06451  Biso   1.000  Cl
  O5       1.0000 0.84740  0.02143  0.92151  Biso   1.000  O
  C9       1.0000 0.79050  0.08050  0.81920  Biso   1.000  C
  O6       1.0000 0.86163  0.13747  0.91257  Biso   1.000  O
  C10      1.0000 0.83610  0.08020  0.88870  Biso   1.000  C
  C11      1.0000 0.77670  0.01760  0.78110  Biso   1.000  C
  H5       1.0000 0.79530  0.97480  0.79920  Biso   1.000  H
  C12      1.0000 0.76260  0.14310  0.79140  Biso   1.000  C
  H6       1.0000 0.77270  0.18610  0.81540  Biso   1.000  H
  C13      1.0000 0.71970  0.14300  0.72820  Biso   1.000  C
  H7       1.0000 0.69950  0.18570  0.71140  Biso   1.000  H
  C14      1.0000 0.70670  0.08030  0.69000  Biso   1.000  C
  C15      1.0000 0.65890  0.08010  0.62160  Biso   1.000  C
  C16      1.0000 0.73570  0.01730  0.71670  Biso   1.000  C
  H8       1.0000 0.72760  0.97460  0.69120  Biso   1.000  H
  O7       1.0000 0.62091  0.13318  0.60783  Biso   1.000  O
  O8       1.0000 0.65810  0.02494  0.58071  Biso   1.000  O
  Cd3      1.0000 0.56712  0.07282  0.50611  Biso   1.000  Cd
  Cl3      1.0000 0.44394  0.04698  0.56451  Biso   1.000  Cl
  O9       1.0000 0.52143  0.15260  0.42151  Biso   1.000  O
  C17      1.0000 0.58050  0.20950  0.31920  Biso   1.000  C
  O10      1.0000 0.63747  0.13837  0.41257  Biso   1.000  O
  C18      1.0000 0.58020  0.16390  0.38870  Biso   1.000  C
  C19      1.0000 0.51760  0.22330  0.28110  Biso   1.000  C
  H9       1.0000 0.47480  0.20470  0.29920  Biso   1.000  H
  C20      1.0000 0.64310  0.23740  0.29140  Biso   1.000  C
  H10      1.0000 0.68610  0.22730  0.31540  Biso   1.000  H
  C21      1.0000 0.64300  0.28030  0.22820  Biso   1.000  C
  H11      1.0000 0.68570  0.30050  0.21140  Biso   1.000  H
  C22      1.0000 0.58030  0.29330  0.19000  Biso   1.000  C
  C23      1.0000 0.58010  0.34110  0.12160  Biso   1.000  C
  C24      1.0000 0.51730  0.26430  0.21670  Biso   1.000  C
  H12      1.0000 0.47460  0.27240  0.19120  Biso   1.000  H
  O11      1.0000 0.63318  0.37909  0.10783  Biso   1.000  O
  O12      1.0000 0.52494  0.34190  0.08071  Biso   1.000  O
  Cd4      1.0000 0.93288  0.42718  0.50611  Biso   1.000  Cd
  Cl4      1.0000 0.05606  0.45302  0.56451  Biso   1.000  Cl
  O13      1.0000 0.97857  0.34740  0.42151  Biso   1.000  O
  C25      1.0000 0.91950  0.29050  0.31920  Biso   1.000  C
  O14      1.0000 0.86253  0.36163  0.41257  Biso   1.000  O
  C26      1.0000 0.91980  0.33610  0.38870  Biso   1.000  C
  C27      1.0000 0.98240  0.27670  0.28110  Biso   1.000  C
  H13      1.0000 0.02520  0.29530  0.29920  Biso   1.000  H
  C28      1.0000 0.85690  0.26260  0.29140  Biso   1.000  C
  H14      1.0000 0.81390  0.27270  0.31540  Biso   1.000  H
  C29      1.0000 0.85700  0.21970  0.22820  Biso   1.000  C
  H15      1.0000 0.81430  0.19950  0.21140  Biso   1.000  H
  C30      1.0000 0.91970  0.20670  0.19000  Biso   1.000  C
  C31      1.0000 0.91990  0.15890  0.12160  Biso   1.000  C
  C32      1.0000 0.98270  0.23570  0.21670  Biso   1.000  C
  H16      1.0000 0.02540  0.22760  0.19120  Biso   1.000  H
  O15      1.0000 0.86682  0.12091  0.10783  Biso   1.000  O
  O16      1.0000 0.97506  0.15810  0.08071  Biso   1.000  O
  Cd5      1.0000 0.42718  0.56712  0.99389  Biso   1.000  Cd
  Cl5      1.0000 0.45302  0.44394  0.93549  Biso   1.000  Cl
  O17      1.0000 0.34740  0.52143  0.07849  Biso   1.000  O
  C33      1.0000 0.29050  0.58050  0.18080  Biso   1.000  C
  O18      1.0000 0.36163  0.63747  0.08743  Biso   1.000  O
  C34      1.0000 0.33610  0.58020  0.11130  Biso   1.000  C
  C35      1.0000 0.27670  0.51760  0.21890  Biso   1.000  C
  H17      1.0000 0.29530  0.47480  0.20080  Biso   1.000  H
  C36      1.0000 0.26260  0.64310  0.20860  Biso   1.000  C
  H18      1.0000 0.27270  0.68610  0.18460  Biso   1.000  H
  C37      1.0000 0.21970  0.64300  0.27180  Biso   1.000  C
  H19      1.0000 0.19950  0.68570  0.28860  Biso   1.000  H
  C38      1.0000 0.20670  0.58030  0.31000  Biso   1.000  C
  C39      1.0000 0.15890  0.58010  0.37840  Biso   1.000  C
  C40      1.0000 0.23570  0.51730  0.28330  Biso   1.000  C
  H20      1.0000 0.22760  0.47460  0.30880  Biso   1.000  H
  O19      1.0000 0.12091  0.63318  0.39217  Biso   1.000  O
  O20      1.0000 0.15810  0.52494  0.41929  Biso   1.000  O
  Cd6      1.0000 0.07282  0.93288  0.99389  Biso   1.000  Cd
  Cl6      1.0000 0.04698  0.05606  0.93549  Biso   1.000  Cl
  O21      1.0000 0.15260  0.97857  0.07849  Biso   1.000  O
  C41      1.0000 0.20950  0.91950  0.18080  Biso   1.000  C
  O22      1.0000 0.13837  0.86253  0.08743  Biso   1.000  O
  C42      1.0000 0.16390  0.91980  0.11130  Biso   1.000  C
  C43      1.0000 0.22330  0.98240  0.21890  Biso   1.000  C
  H21      1.0000 0.20470  0.02520  0.20080  Biso   1.000  H
  C44      1.0000 0.23740  0.85690  0.20860  Biso   1.000  C
  H22      1.0000 0.22730  0.81390  0.18460  Biso   1.000  H
  C45      1.0000 0.28030  0.85700  0.27180  Biso   1.000  C
  H23      1.0000 0.30050  0.81430  0.28860  Biso   1.000  H
  C46      1.0000 0.29330  0.91970  0.31000  Biso   1.000  C
  C47      1.0000 0.34110  0.91990  0.37840  Biso   1.000  C
  C48      1.0000 0.26430  0.98270  0.28330  Biso   1.000  C
  H24      1.0000 0.27240  0.02540  0.30880  Biso   1.000  H
  O23      1.0000 0.37909  0.86682  0.39217  Biso   1.000  O
  O24      1.0000 0.34190  0.97506  0.41929  Biso   1.000  O
  Cd7      1.0000 0.43288  0.92718  0.49389  Biso   1.000  Cd
  Cl7      1.0000 0.55606  0.95302  0.43549  Biso   1.000  Cl
  O25      1.0000 0.47857  0.84740  0.57849  Biso   1.000  O
  C49      1.0000 0.41950  0.79050  0.68080  Biso   1.000  C
  O26      1.0000 0.36253  0.86163  0.58743  Biso   1.000  O
  C50      1.0000 0.41980  0.83610  0.61130  Biso   1.000  C
  C51      1.0000 0.48240  0.77670  0.71890  Biso   1.000  C
  H25      1.0000 0.52520  0.79530  0.70080  Biso   1.000  H
  C52      1.0000 0.35690  0.76260  0.70860  Biso   1.000  C
  H26      1.0000 0.31390  0.77270  0.68460  Biso   1.000  H
  C53      1.0000 0.35700  0.71970  0.77180  Biso   1.000  C
  H27      1.0000 0.31430  0.69950  0.78860  Biso   1.000  H
  C54      1.0000 0.41970  0.70670  0.81000  Biso   1.000  C
  C55      1.0000 0.41990  0.65890  0.87840  Biso   1.000  C
  C56      1.0000 0.48270  0.73570  0.78330  Biso   1.000  C
  H28      1.0000 0.52540  0.72760  0.80880  Biso   1.000  H
  O27      1.0000 0.36682  0.62091  0.89217  Biso   1.000  O
  O28      1.0000 0.47506  0.65810  0.91929  Biso   1.000  O
  Cd8      1.0000 0.06712  0.57282  0.49389  Biso   1.000  Cd
  Cl8      1.0000 0.94394  0.54698  0.43549  Biso   1.000  Cl
  O29      1.0000 0.02143  0.65260  0.57849  Biso   1.000  O
  C57      1.0000 0.08050  0.70950  0.68080  Biso   1.000  C
  O30      1.0000 0.13747  0.63837  0.58743  Biso   1.000  O
  C58      1.0000 0.08020  0.66390  0.61130  Biso   1.000  C
  C59      1.0000 0.01760  0.72330  0.71890  Biso   1.000  C
  H29      1.0000 0.97480  0.70470  0.70080  Biso   1.000  H
  C60      1.0000 0.14310  0.73740  0.70860  Biso   1.000  C
  H30      1.0000 0.18610  0.72730  0.68460  Biso   1.000  H
  C61      1.0000 0.14300  0.78030  0.77180  Biso   1.000  C
  H31      1.0000 0.18570  0.80050  0.78860  Biso   1.000  H
  C62      1.0000 0.08030  0.79330  0.81000  Biso   1.000  C
  C63      1.0000 0.08010  0.84110  0.87840  Biso   1.000  C
  C64      1.0000 0.01730  0.76430  0.78330  Biso   1.000  C
  H32      1.0000 0.97460  0.77240  0.80880  Biso   1.000  H
  O31      1.0000 0.13318  0.87909  0.89217  Biso   1.000  O
  O32      1.0000 0.02494  0.84190  0.91929  Biso   1.000  O
