data_image0
_cell_length_a       11.192
_cell_length_b       12.401
_cell_length_c       12.566
_cell_angle_alpha    64.424
_cell_angle_beta     75.586
_cell_angle_gamma    80.446

_symmetry_space_group_name_H-M    "P 1"
_symmetry_int_tables_number       1

loop_
  _symmetry_equiv_pos_as_xyz
  'x, y, z'

loop_
  _atom_site_label
  _atom_site_occupancy
  _atom_site_fract_x
  _atom_site_fract_y
  _atom_site_fract_z
  _atom_site_thermal_displace_type
  _atom_site_B_iso_or_equiv
  _atom_site_type_symbol
  Cu1      1.0000 0.37734  0.06004  0.41182  Biso   1.000  Cu
  C1       1.0000 0.00660  0.07870  0.87800  Biso   1.000  C
  C2       1.0000 0.89500  0.02990  0.94990  Biso   1.000  C
  C3       1.0000 0.88820  0.95090  0.07050  Biso   1.000  C
  C4       1.0000 0.01340  0.16400  0.74550  Biso   1.000  C
  H1       1.0000 0.93040  0.18620  0.72920  Biso   1.000  H
  H2       1.0000 0.05000  0.23650  0.72930  Biso   1.000  H
  C5       1.0000 0.18900  0.14390  0.58340  Biso   1.000  C
  H3       1.0000 0.22860  0.21200  0.56410  Biso   1.000  H
  C6       1.0000 0.13850  0.98500  0.58800  Biso   1.000  C
  H4       1.0000 0.13960  0.91960  0.56970  Biso   1.000  H
  C7       1.0000 0.77870  0.06470  0.89790  Biso   1.000  C
  H5       1.0000 0.70670  0.04890  0.96290  Biso   1.000  H
  H6       1.0000 0.77530  0.14980  0.84700  Biso   1.000  H
  C8       1.0000 0.72700  0.03490  0.72990  Biso   1.000  C
  H7       1.0000 0.69610  0.11270  0.68890  Biso   1.000  H
  C9       1.0000 0.78360  0.85110  0.78340  Biso   1.000  C
  H8       1.0000 0.79920  0.77490  0.78380  Biso   1.000  H
  C10      1.0000 0.76790  0.89480  0.14460  Biso   1.000  C
  H9       1.0000 0.72710  0.87720  0.09470  Biso   1.000  H
  H10      1.0000 0.78510  0.81990  0.21040  Biso   1.000  H
  C11      1.0000 0.57620  0.95270  0.26940  Biso   1.000  C
  H11      1.0000 0.53710  0.88180  0.29960  Biso   1.000  H
  C12      1.0000 0.61950  0.12730  0.23050  Biso   1.000  C
  H12      1.0000 0.61330  0.20300  0.23040  Biso   1.000  H
  C13      1.0000 0.55820  0.33760  0.41150  Biso   1.000  C
  C14      1.0000 0.66460  0.36260  0.43310  Biso   1.000  C
  H13      1.0000 0.72030  0.30040  0.46860  Biso   1.000  H
  C15      1.0000 0.68740  0.47990  0.40190  Biso   1.000  C
  C16      1.0000 0.60220  0.57220  0.35000  Biso   1.000  C
  H14      1.0000 0.61690  0.65100  0.32970  Biso   1.000  H
  C17      1.0000 0.49630  0.54830  0.32830  Biso   1.000  C
  C18      1.0000 0.47500  0.43080  0.35970  Biso   1.000  C
  H15      1.0000 0.40380  0.41390  0.34590  Biso   1.000  H
  C19      1.0000 0.53490  0.20930  0.44730  Biso   1.000  C
  C20      1.0000 0.79790  0.51210  0.42630  Biso   1.000  C
  C21      1.0000 0.40600  0.65160  0.27290  Biso   1.000  C
  N1       1.0000 0.22630  0.06650  0.53280  Biso   1.000  N
  N2       1.0000 0.08680  0.10900  0.66530  Biso   1.000  N
  N3       1.0000 0.05280  0.00730  0.66880  Biso   1.000  N
  N4       1.0000 0.72900  0.94380  0.70060  Biso   1.000  N
  N5       1.0000 0.77620  0.99740  0.82740  Biso   1.000  N
  N6       1.0000 0.81300  0.87910  0.86420  Biso   1.000  N
  N7       1.0000 0.53260  0.04720  0.29510  Biso   1.000  N
  N8       1.0000 0.68500  0.97590  0.19350  Biso   1.000  N
  N9       1.0000 0.71400  0.08740  0.16760  Biso   1.000  N
  O1       1.0000 0.43680  0.19300  0.42390  Biso   1.000  O
  O2       1.0000 0.61150  0.12960  0.49510  Biso   1.000  O
  O3       1.0000 0.87820  0.42700  0.46930  Biso   1.000  O
  O4       1.0000 0.80950  0.61690  0.40630  Biso   1.000  O
  O5       1.0000 0.43440  0.75450  0.24800  Biso   1.000  O
  O6       1.0000 0.31170  0.62930  0.25220  Biso   1.000  O
  Cu2      1.0000 0.62266  0.93996  0.58818  Biso   1.000  Cu
  C22      1.0000 0.99340  0.92130  0.12200  Biso   1.000  C
  C23      1.0000 0.10500  0.97010  0.05010  Biso   1.000  C
  C24      1.0000 0.11180  0.04910  0.92950  Biso   1.000  C
  C25      1.0000 0.98660  0.83600  0.25450  Biso   1.000  C
  H16      1.0000 0.06960  0.81380  0.27080  Biso   1.000  H
  H17      1.0000 0.95000  0.76350  0.27070  Biso   1.000  H
  C26      1.0000 0.81100  0.85610  0.41660  Biso   1.000  C
  H18      1.0000 0.77140  0.78800  0.43590  Biso   1.000  H
  C27      1.0000 0.86150  0.01500  0.41200  Biso   1.000  C
  H19      1.0000 0.86040  0.08040  0.43030  Biso   1.000  H
  C28      1.0000 0.22130  0.93530  0.10210  Biso   1.000  C
  H20      1.0000 0.29330  0.95110  0.03710  Biso   1.000  H
  H21      1.0000 0.22470  0.85020  0.15300  Biso   1.000  H
  C29      1.0000 0.27300  0.96510  0.27010  Biso   1.000  C
  H22      1.0000 0.30390  0.88730  0.31110  Biso   1.000  H
  C30      1.0000 0.21640  0.14890  0.21660  Biso   1.000  C
  H23      1.0000 0.20080  0.22510  0.21620  Biso   1.000  H
  C31      1.0000 0.23210  0.10520  0.85540  Biso   1.000  C
  H24      1.0000 0.27290  0.12280  0.90530  Biso   1.000  H
  H25      1.0000 0.21490  0.18010  0.78960  Biso   1.000  H
  C32      1.0000 0.42380  0.04730  0.73060  Biso   1.000  C
  H26      1.0000 0.46290  0.11820  0.70040  Biso   1.000  H
  C33      1.0000 0.38050  0.87270  0.76950  Biso   1.000  C
  H27      1.0000 0.38670  0.79700  0.76960  Biso   1.000  H
  C34      1.0000 0.44180  0.66240  0.58850  Biso   1.000  C
  C35      1.0000 0.33540  0.63740  0.56690  Biso   1.000  C
  H28      1.0000 0.27970  0.69960  0.53140  Biso   1.000  H
  C36      1.0000 0.31260  0.52010  0.59810  Biso   1.000  C
  C37      1.0000 0.39780  0.42780  0.65000  Biso   1.000  C
  H29      1.0000 0.38310  0.34900  0.67030  Biso   1.000  H
  C38      1.0000 0.50370  0.45170  0.67170  Biso   1.000  C
  C39      1.0000 0.52500  0.56920  0.64030  Biso   1.000  C
  H30      1.0000 0.59620  0.58610  0.65410  Biso   1.000  H
  C40      1.0000 0.46510  0.79070  0.55270  Biso   1.000  C
  C41      1.0000 0.20210  0.48790  0.57370  Biso   1.000  C
  C42      1.0000 0.59400  0.34840  0.72710  Biso   1.000  C
  N10      1.0000 0.77370  0.93350  0.46720  Biso   1.000  N
  N11      1.0000 0.91320  0.89100  0.33470  Biso   1.000  N
  N12      1.0000 0.94720  0.99270  0.33120  Biso   1.000  N
  N13      1.0000 0.27100  0.05620  0.29940  Biso   1.000  N
  N14      1.0000 0.22380  0.00260  0.17260  Biso   1.000  N
  N15      1.0000 0.18700  0.12090  0.13580  Biso   1.000  N
  N16      1.0000 0.46740  0.95280  0.70490  Biso   1.000  N
  N17      1.0000 0.31500  0.02410  0.80650  Biso   1.000  N
  N18      1.0000 0.28600  0.91260  0.83240  Biso   1.000  N
  O7       1.0000 0.56320  0.80700  0.57610  Biso   1.000  O
  O8       1.0000 0.38850  0.87040  0.50490  Biso   1.000  O
  O9       1.0000 0.12180  0.57300  0.53070  Biso   1.000  O
  O10      1.0000 0.19050  0.38310  0.59370  Biso   1.000  O
  O11      1.0000 0.56560  0.24550  0.75200  Biso   1.000  O
  O12      1.0000 0.68830  0.37070  0.74780  Biso   1.000  O
  Cu3      1.0000 0.00000  0.50000  0.50000  Biso   1.000  Cu
