data_image0
_cell_length_a       18.443
_cell_length_b       18.443
_cell_length_c       15.166
_cell_angle_alpha    90
_cell_angle_beta     90
_cell_angle_gamma    90

_symmetry_space_group_name_H-M    "P 1"
_symmetry_int_tables_number       1

loop_
  _symmetry_equiv_pos_as_xyz
  'x, y, z'

loop_
  _atom_site_label
  _atom_site_occupancy
  _atom_site_fract_x
  _atom_site_fract_y
  _atom_site_fract_z
  _atom_site_thermal_displace_type
  _atom_site_B_iso_or_equiv
  _atom_site_type_symbol
  C1       1.0000 0.68590  0.94700  0.36260  Biso   1.000  C
  C2       1.0000 0.69580  0.96060  0.27380  Biso   1.000  C
  H1       1.0000 0.73210  0.93660  0.24280  Biso   1.000  H
  C3       1.0000 0.65120  0.01020  0.23120  Biso   1.000  C
  H2       1.0000 0.65800  0.01820  0.17120  Biso   1.000  H
  C4       1.0000 0.59830  0.04750  0.27350  Biso   1.000  C
  C5       1.0000 0.58860  0.03360  0.36450  Biso   1.000  C
  H3       1.0000 0.55230  0.05800  0.39500  Biso   1.000  H
  C6       1.0000 0.63130  0.98540  0.40860  Biso   1.000  C
  H4       1.0000 0.62450  0.97770  0.46870  Biso   1.000  H
  C7       1.0000 0.73200  0.89090  0.40870  Biso   1.000  C
  H5       1.0000 0.70170  0.86210  0.44750  Biso   1.000  H
  H6       1.0000 0.75310  0.85870  0.36510  Biso   1.000  H
  C8       1.0000 0.84780  0.96440  0.56870  Biso   1.000  C
  H7       1.0000 0.85970  0.97840  0.62580  Biso   1.000  H
  C9       1.0000 0.85640  0.94140  0.43460  Biso   1.000  C
  H8       1.0000 0.87370  0.93490  0.37750  Biso   1.000  H
  N1       1.0000 0.79080  0.92500  0.46080  Biso   1.000  N
  N2       1.0000 0.78440  0.93940  0.54710  Biso   1.000  N
  N3       1.0000 0.89460  0.96840  0.50070  Biso   1.000  N
  C10      1.0000 0.31410  0.05300  0.36260  Biso   1.000  C
  C11      1.0000 0.30420  0.03940  0.27380  Biso   1.000  C
  H9       1.0000 0.26790  0.06340  0.24280  Biso   1.000  H
  C12      1.0000 0.34880  0.98980  0.23120  Biso   1.000  C
  H10      1.0000 0.34200  0.98180  0.17120  Biso   1.000  H
  C13      1.0000 0.40170  0.95250  0.27350  Biso   1.000  C
  C14      1.0000 0.41140  0.96640  0.36450  Biso   1.000  C
  H11      1.0000 0.44770  0.94200  0.39500  Biso   1.000  H
  C15      1.0000 0.36870  0.01460  0.40860  Biso   1.000  C
  H12      1.0000 0.37550  0.02230  0.46870  Biso   1.000  H
  C16      1.0000 0.26800  0.10910  0.40870  Biso   1.000  C
  H13      1.0000 0.29830  0.13790  0.44750  Biso   1.000  H
  H14      1.0000 0.24690  0.14130  0.36510  Biso   1.000  H
  C17      1.0000 0.15220  0.03560  0.56870  Biso   1.000  C
  H15      1.0000 0.14030  0.02160  0.62580  Biso   1.000  H
  C18      1.0000 0.14360  0.05860  0.43460  Biso   1.000  C
  H16      1.0000 0.12630  0.06510  0.37750  Biso   1.000  H
  N4       1.0000 0.20920  0.07500  0.46080  Biso   1.000  N
  N5       1.0000 0.21560  0.06060  0.54710  Biso   1.000  N
  N6       1.0000 0.10540  0.03160  0.50070  Biso   1.000  N
  C19      1.0000 0.94700  0.31410  0.63740  Biso   1.000  C
  C20      1.0000 0.96060  0.30420  0.72620  Biso   1.000  C
  H17      1.0000 0.93660  0.26790  0.75720  Biso   1.000  H
  C21      1.0000 0.01020  0.34880  0.76880  Biso   1.000  C
  H18      1.0000 0.01820  0.34200  0.82880  Biso   1.000  H
  C22      1.0000 0.04750  0.40170  0.72650  Biso   1.000  C
  C23      1.0000 0.03360  0.41140  0.63550  Biso   1.000  C
  H19      1.0000 0.05800  0.44770  0.60500  Biso   1.000  H
  C24      1.0000 0.98540  0.36870  0.59140  Biso   1.000  C
  H20      1.0000 0.97770  0.37550  0.53130  Biso   1.000  H
  C25      1.0000 0.89090  0.26800  0.59130  Biso   1.000  C
  H21      1.0000 0.86210  0.29830  0.55250  Biso   1.000  H
  H22      1.0000 0.85870  0.24690  0.63490  Biso   1.000  H
  C26      1.0000 0.96440  0.15220  0.43130  Biso   1.000  C
  H23      1.0000 0.97840  0.14030  0.37420  Biso   1.000  H
  C27      1.0000 0.94140  0.14360  0.56540  Biso   1.000  C
  H24      1.0000 0.93490  0.12630  0.62250  Biso   1.000  H
  N7       1.0000 0.92500  0.20920  0.53920  Biso   1.000  N
  N8       1.0000 0.93940  0.21560  0.45290  Biso   1.000  N
  N9       1.0000 0.96840  0.10540  0.49930  Biso   1.000  N
  C28      1.0000 0.05300  0.68590  0.63740  Biso   1.000  C
  C29      1.0000 0.03940  0.69580  0.72620  Biso   1.000  C
  H25      1.0000 0.06340  0.73210  0.75720  Biso   1.000  H
  C30      1.0000 0.98980  0.65120  0.76880  Biso   1.000  C
  H26      1.0000 0.98180  0.65800  0.82880  Biso   1.000  H
  C31      1.0000 0.95250  0.59830  0.72650  Biso   1.000  C
  C32      1.0000 0.96640  0.58860  0.63550  Biso   1.000  C
  H27      1.0000 0.94200  0.55230  0.60500  Biso   1.000  H
  C33      1.0000 0.01460  0.63130  0.59140  Biso   1.000  C
  H28      1.0000 0.02230  0.62450  0.53130  Biso   1.000  H
  C34      1.0000 0.10910  0.73200  0.59130  Biso   1.000  C
  H29      1.0000 0.13790  0.70170  0.55250  Biso   1.000  H
  H30      1.0000 0.14130  0.75310  0.63490  Biso   1.000  H
  C35      1.0000 0.03560  0.84780  0.43130  Biso   1.000  C
  H31      1.0000 0.02160  0.85970  0.37420  Biso   1.000  H
  C36      1.0000 0.05860  0.85640  0.56540  Biso   1.000  C
  H32      1.0000 0.06510  0.87370  0.62250  Biso   1.000  H
  N10      1.0000 0.07500  0.79080  0.53920  Biso   1.000  N
  N11      1.0000 0.06060  0.78440  0.45290  Biso   1.000  N
  N12      1.0000 0.03160  0.89460  0.49930  Biso   1.000  N
  C37      1.0000 0.18590  0.55300  0.86260  Biso   1.000  C
  C38      1.0000 0.19580  0.53940  0.77380  Biso   1.000  C
  H33      1.0000 0.23210  0.56340  0.74280  Biso   1.000  H
  C39      1.0000 0.15120  0.48980  0.73120  Biso   1.000  C
  H34      1.0000 0.15800  0.48180  0.67120  Biso   1.000  H
  C40      1.0000 0.09830  0.45250  0.77350  Biso   1.000  C
  C41      1.0000 0.08860  0.46640  0.86450  Biso   1.000  C
  H35      1.0000 0.05230  0.44200  0.89500  Biso   1.000  H
  C42      1.0000 0.13130  0.51460  0.90860  Biso   1.000  C
  H36      1.0000 0.12450  0.52230  0.96870  Biso   1.000  H
  C43      1.0000 0.23200  0.60910  0.90870  Biso   1.000  C
  H37      1.0000 0.20170  0.63790  0.94750  Biso   1.000  H
  H38      1.0000 0.25310  0.64130  0.86510  Biso   1.000  H
  C44      1.0000 0.34780  0.53560  0.06870  Biso   1.000  C
  H39      1.0000 0.35970  0.52160  0.12580  Biso   1.000  H
  C45      1.0000 0.35640  0.55860  0.93460  Biso   1.000  C
  H40      1.0000 0.37370  0.56510  0.87750  Biso   1.000  H
  N13      1.0000 0.29080  0.57500  0.96080  Biso   1.000  N
  N14      1.0000 0.28440  0.56060  0.04710  Biso   1.000  N
  N15      1.0000 0.39460  0.53160  0.00070  Biso   1.000  N
  C46      1.0000 0.81410  0.44700  0.86260  Biso   1.000  C
  C47      1.0000 0.80420  0.46060  0.77380  Biso   1.000  C
  H41      1.0000 0.76790  0.43660  0.74280  Biso   1.000  H
  C48      1.0000 0.84880  0.51020  0.73120  Biso   1.000  C
  H42      1.0000 0.84200  0.51820  0.67120  Biso   1.000  H
  C49      1.0000 0.90170  0.54750  0.77350  Biso   1.000  C
  C50      1.0000 0.91140  0.53360  0.86450  Biso   1.000  C
  H43      1.0000 0.94770  0.55800  0.89500  Biso   1.000  H
  C51      1.0000 0.86870  0.48540  0.90860  Biso   1.000  C
  H44      1.0000 0.87550  0.47770  0.96870  Biso   1.000  H
  C52      1.0000 0.76800  0.39090  0.90870  Biso   1.000  C
  H45      1.0000 0.79830  0.36210  0.94750  Biso   1.000  H
  H46      1.0000 0.74690  0.35870  0.86510  Biso   1.000  H
  C53      1.0000 0.65220  0.46440  0.06870  Biso   1.000  C
  H47      1.0000 0.64030  0.47840  0.12580  Biso   1.000  H
  C54      1.0000 0.64360  0.44140  0.93460  Biso   1.000  C
  H48      1.0000 0.62630  0.43490  0.87750  Biso   1.000  H
  N16      1.0000 0.70920  0.42500  0.96080  Biso   1.000  N
  N17      1.0000 0.71560  0.43940  0.04710  Biso   1.000  N
  N18      1.0000 0.60540  0.46840  0.00070  Biso   1.000  N
  C55      1.0000 0.44700  0.18590  0.13740  Biso   1.000  C
  C56      1.0000 0.46060  0.19580  0.22620  Biso   1.000  C
  H49      1.0000 0.43660  0.23210  0.25720  Biso   1.000  H
  C57      1.0000 0.51020  0.15120  0.26880  Biso   1.000  C
  H50      1.0000 0.51820  0.15800  0.32880  Biso   1.000  H
  C58      1.0000 0.54750  0.09830  0.22650  Biso   1.000  C
  C59      1.0000 0.53360  0.08860  0.13550  Biso   1.000  C
  H51      1.0000 0.55800  0.05230  0.10500  Biso   1.000  H
  C60      1.0000 0.48540  0.13130  0.09140  Biso   1.000  C
  H52      1.0000 0.47770  0.12450  0.03130  Biso   1.000  H
  C61      1.0000 0.39090  0.23200  0.09130  Biso   1.000  C
  H53      1.0000 0.36210  0.20170  0.05250  Biso   1.000  H
  H54      1.0000 0.35870  0.25310  0.13490  Biso   1.000  H
  C62      1.0000 0.46440  0.34780  0.93130  Biso   1.000  C
  H55      1.0000 0.47840  0.35970  0.87420  Biso   1.000  H
  C63      1.0000 0.44140  0.35640  0.06540  Biso   1.000  C
  H56      1.0000 0.43490  0.37370  0.12250  Biso   1.000  H
  N19      1.0000 0.42500  0.29080  0.03920  Biso   1.000  N
  N20      1.0000 0.43940  0.28440  0.95290  Biso   1.000  N
  N21      1.0000 0.46840  0.39460  0.99930  Biso   1.000  N
  C64      1.0000 0.55300  0.81410  0.13740  Biso   1.000  C
  C65      1.0000 0.53940  0.80420  0.22620  Biso   1.000  C
  H57      1.0000 0.56340  0.76790  0.25720  Biso   1.000  H
  C66      1.0000 0.48980  0.84880  0.26880  Biso   1.000  C
  H58      1.0000 0.48180  0.84200  0.32880  Biso   1.000  H
  C67      1.0000 0.45250  0.90170  0.22650  Biso   1.000  C
  C68      1.0000 0.46640  0.91140  0.13550  Biso   1.000  C
  H59      1.0000 0.44200  0.94770  0.10500  Biso   1.000  H
  C69      1.0000 0.51460  0.86870  0.09140  Biso   1.000  C
  H60      1.0000 0.52230  0.87550  0.03130  Biso   1.000  H
  C70      1.0000 0.60910  0.76800  0.09130  Biso   1.000  C
  H61      1.0000 0.63790  0.79830  0.05250  Biso   1.000  H
  H62      1.0000 0.64130  0.74690  0.13490  Biso   1.000  H
  C71      1.0000 0.53560  0.65220  0.93130  Biso   1.000  C
  H63      1.0000 0.52160  0.64030  0.87420  Biso   1.000  H
  C72      1.0000 0.55860  0.64360  0.06540  Biso   1.000  C
  H64      1.0000 0.56510  0.62630  0.12250  Biso   1.000  H
  N22      1.0000 0.57500  0.70920  0.03920  Biso   1.000  N
  N23      1.0000 0.56060  0.71560  0.95290  Biso   1.000  N
  N24      1.0000 0.53160  0.60540  0.99930  Biso   1.000  N
  Cu1      1.0000 0.00000  0.00000  0.50000  Biso   1.000  Cu
  Cu2      1.0000 0.50000  0.50000  0.00000  Biso   1.000  Cu
