data_image0
_cell_length_a       13.4154
_cell_length_b       13.4154
_cell_length_c       13.4154
_cell_angle_alpha    90
_cell_angle_beta     90
_cell_angle_gamma    90

_symmetry_space_group_name_H-M    "P 1"
_symmetry_int_tables_number       1

loop_
  _symmetry_equiv_pos_as_xyz
  'x, y, z'

loop_
  _atom_site_label
  _atom_site_occupancy
  _atom_site_fract_x
  _atom_site_fract_y
  _atom_site_fract_z
  _atom_site_thermal_displace_type
  _atom_site_B_iso_or_equiv
  _atom_site_type_symbol
  P1       1.0000 0.27140  0.44800  0.89550  Biso   1.000  P
  O1       1.0000 0.19190  0.52840  0.88660  Biso   1.000  O
  O2       1.0000 0.37430  0.49350  0.90300  Biso   1.000  O
  O3       1.0000 0.26260  0.37000  0.81830  Biso   1.000  O
  P2       1.0000 0.77140  0.94800  0.39550  Biso   1.000  P
  O4       1.0000 0.69190  0.02840  0.38660  Biso   1.000  O
  O5       1.0000 0.87430  0.99350  0.40300  Biso   1.000  O
  O6       1.0000 0.76260  0.87000  0.31830  Biso   1.000  O
  P3       1.0000 0.22860  0.55200  0.39550  Biso   1.000  P
  O7       1.0000 0.30810  0.47160  0.38660  Biso   1.000  O
  O8       1.0000 0.12570  0.50650  0.40300  Biso   1.000  O
  O9       1.0000 0.23740  0.63000  0.31830  Biso   1.000  O
  P4       1.0000 0.72860  0.05200  0.89550  Biso   1.000  P
  O10      1.0000 0.80810  0.97160  0.88660  Biso   1.000  O
  O11      1.0000 0.62570  0.00650  0.90300  Biso   1.000  O
  O12      1.0000 0.73740  0.13000  0.81830  Biso   1.000  O
  P5       1.0000 0.72860  0.94800  0.60450  Biso   1.000  P
  O13      1.0000 0.80810  0.02840  0.61340  Biso   1.000  O
  O14      1.0000 0.62570  0.99350  0.59700  Biso   1.000  O
  O15      1.0000 0.73740  0.87000  0.68170  Biso   1.000  O
  P6       1.0000 0.22860  0.44800  0.10450  Biso   1.000  P
  O16      1.0000 0.30810  0.52840  0.11340  Biso   1.000  O
  O17      1.0000 0.12570  0.49350  0.09700  Biso   1.000  O
  O18      1.0000 0.23740  0.37000  0.18170  Biso   1.000  O
  P7       1.0000 0.77140  0.05200  0.10450  Biso   1.000  P
  O19      1.0000 0.69190  0.97160  0.11340  Biso   1.000  O
  O20      1.0000 0.87430  0.00650  0.09700  Biso   1.000  O
  O21      1.0000 0.76260  0.13000  0.18170  Biso   1.000  O
  P8       1.0000 0.27140  0.55200  0.60450  Biso   1.000  P
  O22      1.0000 0.19190  0.47160  0.61340  Biso   1.000  O
  O23      1.0000 0.37430  0.50650  0.59700  Biso   1.000  O
  O24      1.0000 0.26260  0.63000  0.68170  Biso   1.000  O
  P9       1.0000 0.89550  0.27140  0.44800  Biso   1.000  P
  O25      1.0000 0.88660  0.19190  0.52840  Biso   1.000  O
  O26      1.0000 0.90300  0.37430  0.49350  Biso   1.000  O
  O27      1.0000 0.81830  0.26260  0.37000  Biso   1.000  O
  P10      1.0000 0.39550  0.77140  0.94800  Biso   1.000  P
  O28      1.0000 0.38660  0.69190  0.02840  Biso   1.000  O
  O29      1.0000 0.40300  0.87430  0.99350  Biso   1.000  O
  O30      1.0000 0.31830  0.76260  0.87000  Biso   1.000  O
  P11      1.0000 0.39550  0.22860  0.55200  Biso   1.000  P
  O31      1.0000 0.38660  0.30810  0.47160  Biso   1.000  O
  O32      1.0000 0.40300  0.12570  0.50650  Biso   1.000  O
  O33      1.0000 0.31830  0.23740  0.63000  Biso   1.000  O
  P12      1.0000 0.89550  0.72860  0.05200  Biso   1.000  P
  O34      1.0000 0.88660  0.80810  0.97160  Biso   1.000  O
  O35      1.0000 0.90300  0.62570  0.00650  Biso   1.000  O
  O36      1.0000 0.81830  0.73740  0.13000  Biso   1.000  O
  P13      1.0000 0.60450  0.72860  0.94800  Biso   1.000  P
  O37      1.0000 0.61340  0.80810  0.02840  Biso   1.000  O
  O38      1.0000 0.59700  0.62570  0.99350  Biso   1.000  O
  O39      1.0000 0.68170  0.73740  0.87000  Biso   1.000  O
  P14      1.0000 0.10450  0.22860  0.44800  Biso   1.000  P
  O40      1.0000 0.11340  0.30810  0.52840  Biso   1.000  O
  O41      1.0000 0.09700  0.12570  0.49350  Biso   1.000  O
  O42      1.0000 0.18170  0.23740  0.37000  Biso   1.000  O
  P15      1.0000 0.10450  0.77140  0.05200  Biso   1.000  P
  O43      1.0000 0.11340  0.69190  0.97160  Biso   1.000  O
  O44      1.0000 0.09700  0.87430  0.00650  Biso   1.000  O
  O45      1.0000 0.18170  0.76260  0.13000  Biso   1.000  O
  P16      1.0000 0.60450  0.27140  0.55200  Biso   1.000  P
  O46      1.0000 0.61340  0.19190  0.47160  Biso   1.000  O
  O47      1.0000 0.59700  0.37430  0.50650  Biso   1.000  O
  O48      1.0000 0.68170  0.26260  0.63000  Biso   1.000  O
  P17      1.0000 0.44800  0.89550  0.27140  Biso   1.000  P
  O49      1.0000 0.52840  0.88660  0.19190  Biso   1.000  O
  O50      1.0000 0.49350  0.90300  0.37430  Biso   1.000  O
  O51      1.0000 0.37000  0.81830  0.26260  Biso   1.000  O
  P18      1.0000 0.94800  0.39550  0.77140  Biso   1.000  P
  O52      1.0000 0.02840  0.38660  0.69190  Biso   1.000  O
  O53      1.0000 0.99350  0.40300  0.87430  Biso   1.000  O
  O54      1.0000 0.87000  0.31830  0.76260  Biso   1.000  O
  P19      1.0000 0.55200  0.39550  0.22860  Biso   1.000  P
  O55      1.0000 0.47160  0.38660  0.30810  Biso   1.000  O
  O56      1.0000 0.50650  0.40300  0.12570  Biso   1.000  O
  O57      1.0000 0.63000  0.31830  0.23740  Biso   1.000  O
  P20      1.0000 0.05200  0.89550  0.72860  Biso   1.000  P
  O58      1.0000 0.97160  0.88660  0.80810  Biso   1.000  O
  O59      1.0000 0.00650  0.90300  0.62570  Biso   1.000  O
  O60      1.0000 0.13000  0.81830  0.73740  Biso   1.000  O
  P21      1.0000 0.94800  0.60450  0.72860  Biso   1.000  P
  O61      1.0000 0.02840  0.61340  0.80810  Biso   1.000  O
  O62      1.0000 0.99350  0.59700  0.62570  Biso   1.000  O
  O63      1.0000 0.87000  0.68170  0.73740  Biso   1.000  O
  P22      1.0000 0.44800  0.10450  0.22860  Biso   1.000  P
  O64      1.0000 0.52840  0.11340  0.30810  Biso   1.000  O
  O65      1.0000 0.49350  0.09700  0.12570  Biso   1.000  O
  O66      1.0000 0.37000  0.18170  0.23740  Biso   1.000  O
  P23      1.0000 0.05200  0.10450  0.77140  Biso   1.000  P
  O67      1.0000 0.97160  0.11340  0.69190  Biso   1.000  O
  O68      1.0000 0.00650  0.09700  0.87430  Biso   1.000  O
  O69      1.0000 0.13000  0.18170  0.76260  Biso   1.000  O
  P24      1.0000 0.55200  0.60450  0.27140  Biso   1.000  P
  O70      1.0000 0.47160  0.61340  0.19190  Biso   1.000  O
  O71      1.0000 0.50650  0.59700  0.37430  Biso   1.000  O
  O72      1.0000 0.63000  0.68170  0.26260  Biso   1.000  O
  Er1      1.0000 0.18513  0.68513  0.81487  Biso   1.000  Er
  Er2      1.0000 0.03164  0.53164  0.96836  Biso   1.000  Er
  Er3      1.0000 0.68513  0.18513  0.31487  Biso   1.000  Er
  Er4      1.0000 0.53164  0.03164  0.46836  Biso   1.000  Er
  Er5      1.0000 0.31487  0.31487  0.31487  Biso   1.000  Er
  Er6      1.0000 0.46836  0.46836  0.46836  Biso   1.000  Er
  Er7      1.0000 0.81487  0.81487  0.81487  Biso   1.000  Er
  Er8      1.0000 0.96836  0.96836  0.96836  Biso   1.000  Er
  Er9      1.0000 0.81487  0.18513  0.68513  Biso   1.000  Er
  Er10     1.0000 0.96836  0.03164  0.53164  Biso   1.000  Er
  Er11     1.0000 0.31487  0.68513  0.18513  Biso   1.000  Er
  Er12     1.0000 0.46836  0.53164  0.03164  Biso   1.000  Er
  Er13     1.0000 0.68513  0.81487  0.18513  Biso   1.000  Er
  Er14     1.0000 0.53164  0.96836  0.03164  Biso   1.000  Er
  Er15     1.0000 0.18513  0.31487  0.68513  Biso   1.000  Er
  Er16     1.0000 0.03164  0.46836  0.53164  Biso   1.000  Er
  O73      1.0000 0.25000  0.39320  0.00000  Biso   1.000  O
  O74      1.0000 0.25000  0.60680  0.50000  Biso   1.000  O
  O75      1.0000 0.75000  0.89320  0.50000  Biso   1.000  O
  O76      1.0000 0.75000  0.10680  0.00000  Biso   1.000  O
  O77      1.0000 0.00000  0.25000  0.39320  Biso   1.000  O
  O78      1.0000 0.50000  0.25000  0.60680  Biso   1.000  O
  O79      1.0000 0.50000  0.75000  0.89320  Biso   1.000  O
  O80      1.0000 0.00000  0.75000  0.10680  Biso   1.000  O
  O81      1.0000 0.39320  0.00000  0.25000  Biso   1.000  O
  O82      1.0000 0.60680  0.50000  0.25000  Biso   1.000  O
  O83      1.0000 0.89320  0.50000  0.75000  Biso   1.000  O
  O84      1.0000 0.10680  0.00000  0.75000  Biso   1.000  O
