data_YISFEL_clean
_audit_creation_date              2014-07-02
_audit_creation_method            'Materials Studio'
_symmetry_space_group_name_H-M    'P1'
_symmetry_Int_Tables_number       1
_symmetry_cell_setting            triclinic
loop_
_symmetry_equiv_pos_as_xyz
  x,y,z
_cell_length_a                    6.3490
_cell_length_b                    10.2580
_cell_length_c                    15.7370
_cell_angle_alpha                 106.7900
_cell_angle_beta                  93.6600
_cell_angle_gamma                 103.5600
loop_
_atom_site_label
_atom_site_type_symbol
_atom_site_fract_x
_atom_site_fract_y
_atom_site_fract_z
_atom_site_U_iso_or_equiv
_atom_site_adp_type
_atom_site_occupancy
Sr1    Sr    0.98654   0.07780   0.64960   0.01267  Uiso   1.00
Sr2    Sr    0.69404   0.73254   0.73627   0.01267  Uiso   1.00
Sr3    Sr    0.01346   0.92220   0.35040   0.01267  Uiso   1.00
Sr4    Sr    0.30596   0.26746   0.26373   0.01267  Uiso   1.00
Cu1    Cu    0.00000   0.50000   0.00000   0.01267  Uiso   1.00
Cu2    Cu    0.50000   0.50000   0.50000   0.01267  Uiso   1.00
C1     C     0.05310   0.27622   0.87179   0.01267  Uiso   1.00
C2     C     0.90130   0.34039   0.82748   0.01267  Uiso   1.00
C3     C     0.75657   0.73863   0.48926   0.01267  Uiso   1.00
C4     C     0.68485   0.63713   0.39236   0.01267  Uiso   1.00
C5     C     0.43078   0.95431   0.67876   0.01267  Uiso   1.00
C6     C     0.24872   0.84944   0.70655   0.01267  Uiso   1.00
C7     C     0.94690   0.72378   0.12821   0.01267  Uiso   1.00
C8     C     0.09870   0.65961   0.17252   0.01267  Uiso   1.00
C9     C     0.24343   0.26137   0.51074   0.01267  Uiso   1.00
C10    C     0.31515   0.36287   0.60764   0.01267  Uiso   1.00
C11    C     0.56922   0.04569   0.32124   0.01267  Uiso   1.00
C12    C     0.75128   0.15056   0.29345   0.01267  Uiso   1.00
O1     O     0.11660   0.33612   0.95527   0.01267  Uiso   1.00
O2     O     0.85360   0.44692   0.87829   0.01267  Uiso   1.00
O3     O     0.10890   0.17357   0.82502   0.01267  Uiso   1.00
O4     O     0.84241   0.29265   0.74643   0.01267  Uiso   1.00
O5     O     0.69208   0.68844   0.55037   0.01267  Uiso   1.00
O6     O     0.43458   0.48536   0.61550   0.01267  Uiso   1.00
O7     O     0.86897   0.86100   0.49966   0.01267  Uiso   1.00
O8     O     0.74638   0.67605   0.32857   0.01267  Uiso   1.00
O9     O     0.29973   0.75170   0.72677   0.01267  Uiso   1.00
O10    O     0.62225   0.94424   0.68984   0.01267  Uiso   1.00
O11    O     0.36880   0.03904   0.64617   0.01267  Uiso   1.00
O12    O     0.06231   0.87119   0.70602   0.01267  Uiso   1.00
O13    O     0.88340   0.66388   0.04473   0.01267  Uiso   1.00
O14    O     0.14640   0.55308   0.12171   0.01267  Uiso   1.00
O15    O     0.89110   0.82643   0.17498   0.01267  Uiso   1.00
O16    O     0.15759   0.70735   0.25357   0.01267  Uiso   1.00
O17    O     0.30792   0.31156   0.44963   0.01267  Uiso   1.00
O18    O     0.56542   0.51464   0.38450   0.01267  Uiso   1.00
O19    O     0.13103   0.13900   0.50034   0.01267  Uiso   1.00
O20    O     0.25362   0.32395   0.67143   0.01267  Uiso   1.00
O21    O     0.70027   0.24830   0.27323   0.01267  Uiso   1.00
O22    O     0.37775   0.05576   0.31016   0.01267  Uiso   1.00
O23    O     0.63120   0.96096   0.35383   0.01267  Uiso   1.00
O24    O     0.93769   0.12881   0.29398   0.01267  Uiso   1.00
