data_image0
_cell_length_a       21.96
_cell_length_b       7.655
_cell_length_c       6.167
_cell_angle_alpha    90
_cell_angle_beta     91.47
_cell_angle_gamma    90

_symmetry_space_group_name_H-M    "P 1"
_symmetry_int_tables_number       1

loop_
  _symmetry_equiv_pos_as_xyz
  'x, y, z'

loop_
  _atom_site_label
  _atom_site_occupancy
  _atom_site_fract_x
  _atom_site_fract_y
  _atom_site_fract_z
  _atom_site_thermal_displace_type
  _atom_site_B_iso_or_equiv
  _atom_site_type_symbol
  Ce1      1.0000 0.64534  0.25424  0.05018  Biso   1.000  Ce
  O1       1.0000 0.54406  0.36220  0.88560  Biso   1.000  O
  O2       1.0000 0.53758  0.14450  0.14830  Biso   1.000  O
  O3       1.0000 0.65551  0.20370  0.65350  Biso   1.000  O
  O4       1.0000 0.65939  0.04520  0.35320  Biso   1.000  O
  O5       1.0000 0.63765  0.94460  0.90550  Biso   1.000  O
  H1       1.0000 0.60660  0.88470  0.94410  Biso   1.000  H
  O6       1.0000 0.76297  0.89200  0.71720  Biso   1.000  O
  H2       1.0000 0.75980  0.98030  0.80000  Biso   1.000  H
  O7       1.0000 0.66438  0.53980  0.86230  Biso   1.000  O
  O8       1.0000 0.74996  0.64770  0.00550  Biso   1.000  O
  C1       1.0000 0.65570  0.06120  0.55490  Biso   1.000  C
  C2       1.0000 0.65090  0.89490  0.68870  Biso   1.000  C
  H3       1.0000 0.61730  0.82370  0.62980  Biso   1.000  H
  C3       1.0000 0.71000  0.78670  0.68740  Biso   1.000  C
  H4       1.0000 0.71220  0.72840  0.54640  Biso   1.000  H
  C4       1.0000 0.70730  0.64690  0.86220  Biso   1.000  C
  Ce2      1.0000 0.14534  0.75424  0.05018  Biso   1.000  Ce
  O9       1.0000 0.04406  0.86220  0.88560  Biso   1.000  O
  O10      1.0000 0.03758  0.64450  0.14830  Biso   1.000  O
  O11      1.0000 0.15551  0.70370  0.65350  Biso   1.000  O
  O12      1.0000 0.15939  0.54520  0.35320  Biso   1.000  O
  O13      1.0000 0.13765  0.44460  0.90550  Biso   1.000  O
  H5       1.0000 0.10660  0.38470  0.94410  Biso   1.000  H
  O14      1.0000 0.26297  0.39200  0.71720  Biso   1.000  O
  H6       1.0000 0.25980  0.48030  0.80000  Biso   1.000  H
  O15      1.0000 0.16438  0.03980  0.86230  Biso   1.000  O
  O16      1.0000 0.24996  0.14770  0.00550  Biso   1.000  O
  C5       1.0000 0.15570  0.56120  0.55490  Biso   1.000  C
  C6       1.0000 0.15090  0.39490  0.68870  Biso   1.000  C
  H7       1.0000 0.11730  0.32370  0.62980  Biso   1.000  H
  C7       1.0000 0.21000  0.28670  0.68740  Biso   1.000  C
  H8       1.0000 0.21220  0.22840  0.54640  Biso   1.000  H
  C8       1.0000 0.20730  0.14690  0.86220  Biso   1.000  C
  Ce3      1.0000 0.35466  0.25424  0.94982  Biso   1.000  Ce
  O17      1.0000 0.45594  0.36220  0.11440  Biso   1.000  O
  O18      1.0000 0.46242  0.14450  0.85170  Biso   1.000  O
  O19      1.0000 0.34449  0.20370  0.34650  Biso   1.000  O
  O20      1.0000 0.34061  0.04520  0.64680  Biso   1.000  O
  O21      1.0000 0.36235  0.94460  0.09450  Biso   1.000  O
  H9       1.0000 0.39340  0.88470  0.05590  Biso   1.000  H
  O22      1.0000 0.23703  0.89200  0.28280  Biso   1.000  O
  H10      1.0000 0.24020  0.98030  0.20000  Biso   1.000  H
  O23      1.0000 0.33562  0.53980  0.13770  Biso   1.000  O
  O24      1.0000 0.25004  0.64770  0.99450  Biso   1.000  O
  C9       1.0000 0.34430  0.06120  0.44510  Biso   1.000  C
  C10      1.0000 0.34910  0.89490  0.31130  Biso   1.000  C
  H11      1.0000 0.38270  0.82370  0.37020  Biso   1.000  H
  C11      1.0000 0.29000  0.78670  0.31260  Biso   1.000  C
  H12      1.0000 0.28780  0.72840  0.45360  Biso   1.000  H
  C12      1.0000 0.29270  0.64690  0.13780  Biso   1.000  C
  Ce4      1.0000 0.85466  0.75424  0.94982  Biso   1.000  Ce
  O25      1.0000 0.95594  0.86220  0.11440  Biso   1.000  O
  O26      1.0000 0.96242  0.64450  0.85170  Biso   1.000  O
  O27      1.0000 0.84449  0.70370  0.34650  Biso   1.000  O
  O28      1.0000 0.84061  0.54520  0.64680  Biso   1.000  O
  O29      1.0000 0.86235  0.44460  0.09450  Biso   1.000  O
  H13      1.0000 0.89340  0.38470  0.05590  Biso   1.000  H
  O30      1.0000 0.73703  0.39200  0.28280  Biso   1.000  O
  H14      1.0000 0.74020  0.48030  0.20000  Biso   1.000  H
  O31      1.0000 0.83562  0.03980  0.13770  Biso   1.000  O
  O32      1.0000 0.75004  0.14770  0.99450  Biso   1.000  O
  C13      1.0000 0.84430  0.56120  0.44510  Biso   1.000  C
  C14      1.0000 0.84910  0.39490  0.31130  Biso   1.000  C
  H15      1.0000 0.88270  0.32370  0.37020  Biso   1.000  H
  C15      1.0000 0.79000  0.28670  0.31260  Biso   1.000  C
  H16      1.0000 0.78780  0.22840  0.45360  Biso   1.000  H
  C16      1.0000 0.79270  0.14690  0.13780  Biso   1.000  C
  S1       1.0000 0.50000  0.25470  0.00000  Biso   1.000  S
  S2       1.0000 0.00000  0.75470  0.00000  Biso   1.000  S
