data_image0
_cell_length_a       7.6439
_cell_length_b       22.013
_cell_length_c       6.1556
_cell_angle_alpha    90
_cell_angle_beta     90
_cell_angle_gamma    90

_symmetry_space_group_name_H-M    "P 1"
_symmetry_int_tables_number       1

loop_
  _symmetry_equiv_pos_as_xyz
  'x, y, z'

loop_
  _atom_site_label
  _atom_site_occupancy
  _atom_site_fract_x
  _atom_site_fract_y
  _atom_site_fract_z
  _atom_site_thermal_displace_type
  _atom_site_B_iso_or_equiv
  _atom_site_type_symbol
  Ce1      1.0000 0.47932  0.35423  0.43918  Biso   1.000  Ce
  O1       1.0000 0.38470  0.46168  0.58120  Biso   1.000  O
  O2       1.0000 0.60070  0.45698  0.31160  Biso   1.000  O
  O3       1.0000 0.52740  0.34561  0.83360  Biso   1.000  O
  O4       1.0000 0.68660  0.33662  0.13760  Biso   1.000  O
  O5       1.0000 0.78760  0.36198  0.58460  Biso   1.000  O
  H1       1.0000 0.84570  0.39050  0.53860  Biso   1.000  H
  O6       1.0000 0.84170  0.23674  0.78300  Biso   1.000  O
  H2       1.0000 0.76340  0.24350  0.69530  Biso   1.000  H
  O7       1.0000 0.19320  0.33570  0.63300  Biso   1.000  O
  O8       1.0000 0.08500  0.25059  0.49330  Biso   1.000  O
  C1       1.0000 0.66990  0.34310  0.93640  Biso   1.000  C
  C2       1.0000 0.83750  0.34910  0.80080  Biso   1.000  C
  H3       1.0000 0.90780  0.38280  0.85720  Biso   1.000  H
  C3       1.0000 0.94550  0.29010  0.81050  Biso   1.000  C
  H4       1.0000 0.00430  0.28800  0.95180  Biso   1.000  H
  C4       1.0000 0.08570  0.29240  0.63070  Biso   1.000  C
  Ce2      1.0000 0.52068  0.64577  0.43918  Biso   1.000  Ce
  O9       1.0000 0.61530  0.53832  0.58120  Biso   1.000  O
  O10      1.0000 0.39930  0.54302  0.31160  Biso   1.000  O
  O11      1.0000 0.47260  0.65439  0.83360  Biso   1.000  O
  O12      1.0000 0.31340  0.66338  0.13760  Biso   1.000  O
  O13      1.0000 0.21240  0.63802  0.58460  Biso   1.000  O
  H5       1.0000 0.15430  0.60950  0.53860  Biso   1.000  H
  O14      1.0000 0.15830  0.76326  0.78300  Biso   1.000  O
  H6       1.0000 0.23660  0.75650  0.69530  Biso   1.000  H
  O15      1.0000 0.80680  0.66430  0.63300  Biso   1.000  O
  O16      1.0000 0.91500  0.74941  0.49330  Biso   1.000  O
  C5       1.0000 0.33010  0.65690  0.93640  Biso   1.000  C
  C6       1.0000 0.16250  0.65090  0.80080  Biso   1.000  C
  H7       1.0000 0.09220  0.61720  0.85720  Biso   1.000  H
  C7       1.0000 0.05450  0.70990  0.81050  Biso   1.000  C
  H8       1.0000 0.99570  0.71200  0.95180  Biso   1.000  H
  C8       1.0000 0.91430  0.70760  0.63070  Biso   1.000  C
  Ce3      1.0000 0.02068  0.85423  0.56082  Biso   1.000  Ce
  O17      1.0000 0.11530  0.96168  0.41880  Biso   1.000  O
  O18      1.0000 0.89930  0.95698  0.68840  Biso   1.000  O
  O19      1.0000 0.97260  0.84561  0.16640  Biso   1.000  O
  O20      1.0000 0.81340  0.83662  0.86240  Biso   1.000  O
  O21      1.0000 0.71240  0.86198  0.41540  Biso   1.000  O
  H9       1.0000 0.65430  0.89050  0.46140  Biso   1.000  H
  O22      1.0000 0.65830  0.73674  0.21700  Biso   1.000  O
  H10      1.0000 0.73660  0.74350  0.30470  Biso   1.000  H
  O23      1.0000 0.30680  0.83570  0.36700  Biso   1.000  O
  O24      1.0000 0.41500  0.75059  0.50670  Biso   1.000  O
  C9       1.0000 0.83010  0.84310  0.06360  Biso   1.000  C
  C10      1.0000 0.66250  0.84910  0.19920  Biso   1.000  C
  H11      1.0000 0.59220  0.88280  0.14280  Biso   1.000  H
  C11      1.0000 0.55450  0.79010  0.18950  Biso   1.000  C
  H12      1.0000 0.49570  0.78800  0.04820  Biso   1.000  H
  C12      1.0000 0.41430  0.79240  0.36930  Biso   1.000  C
  Ce4      1.0000 0.97932  0.14577  0.56082  Biso   1.000  Ce
  O25      1.0000 0.88470  0.03832  0.41880  Biso   1.000  O
  O26      1.0000 0.10070  0.04302  0.68840  Biso   1.000  O
  O27      1.0000 0.02740  0.15439  0.16640  Biso   1.000  O
  O28      1.0000 0.18660  0.16338  0.86240  Biso   1.000  O
  O29      1.0000 0.28760  0.13802  0.41540  Biso   1.000  O
  H13      1.0000 0.34570  0.10950  0.46140  Biso   1.000  H
  O30      1.0000 0.34170  0.26326  0.21700  Biso   1.000  O
  H14      1.0000 0.26340  0.25650  0.30470  Biso   1.000  H
  O31      1.0000 0.69320  0.16430  0.36700  Biso   1.000  O
  O32      1.0000 0.58500  0.24941  0.50670  Biso   1.000  O
  C13      1.0000 0.16990  0.15690  0.06360  Biso   1.000  C
  C14      1.0000 0.33750  0.15090  0.19920  Biso   1.000  C
  H15      1.0000 0.40780  0.11720  0.14280  Biso   1.000  H
  C15      1.0000 0.44550  0.20990  0.18950  Biso   1.000  C
  H16      1.0000 0.50430  0.21200  0.04820  Biso   1.000  H
  C16      1.0000 0.58570  0.20760  0.36930  Biso   1.000  C
  S1       1.0000 0.50000  0.50000  0.44660  Biso   1.000  S
  S2       1.0000 0.00000  0.00000  0.55340  Biso   1.000  S
