data_image0
_cell_length_a       7.6486
_cell_length_b       22.019
_cell_length_c       6.155
_cell_angle_alpha    90
_cell_angle_beta     90
_cell_angle_gamma    90

_symmetry_space_group_name_H-M    "P 1"
_symmetry_int_tables_number       1

loop_
  _symmetry_equiv_pos_as_xyz
  'x, y, z'

loop_
  _atom_site_label
  _atom_site_occupancy
  _atom_site_fract_x
  _atom_site_fract_y
  _atom_site_fract_z
  _atom_site_thermal_displace_type
  _atom_site_B_iso_or_equiv
  _atom_site_type_symbol
  Ce1      1.0000 0.47938  0.85422  0.56072  Biso   1.000  Ce
  O1       1.0000 0.38470  0.96179  0.41850  Biso   1.000  O
  O2       1.0000 0.60130  0.95719  0.68700  Biso   1.000  O
  O3       1.0000 0.52740  0.84580  0.16490  Biso   1.000  O
  O4       1.0000 0.68610  0.83676  0.86320  Biso   1.000  O
  O5       1.0000 0.78780  0.86209  0.41660  Biso   1.000  O
  H1       1.0000 0.85920  0.88530  0.47120  Biso   1.000  H
  O6       1.0000 0.84160  0.73682  0.21730  Biso   1.000  O
  H2       1.0000 0.76350  0.74360  0.30540  Biso   1.000  H
  O7       1.0000 0.19270  0.83551  0.36780  Biso   1.000  O
  O8       1.0000 0.08600  0.75043  0.50630  Biso   1.000  O
  C1       1.0000 0.67010  0.84335  0.06530  Biso   1.000  C
  C2       1.0000 0.83790  0.84894  0.19910  Biso   1.000  C
  H3       1.0000 0.90820  0.88260  0.14240  Biso   1.000  H
  C3       1.0000 0.94540  0.79023  0.18980  Biso   1.000  C
  H4       1.0000 0.00350  0.78810  0.04810  Biso   1.000  H
  C4       1.0000 0.08670  0.79219  0.36780  Biso   1.000  C
  Ce2      1.0000 0.52062  0.14578  0.56072  Biso   1.000  Ce
  O9       1.0000 0.61530  0.03821  0.41850  Biso   1.000  O
  O10      1.0000 0.39870  0.04281  0.68700  Biso   1.000  O
  O11      1.0000 0.47260  0.15420  0.16490  Biso   1.000  O
  O12      1.0000 0.31390  0.16324  0.86320  Biso   1.000  O
  O13      1.0000 0.21220  0.13791  0.41660  Biso   1.000  O
  H5       1.0000 0.14080  0.11470  0.47120  Biso   1.000  H
  O14      1.0000 0.15840  0.26318  0.21730  Biso   1.000  O
  H6       1.0000 0.23650  0.25640  0.30540  Biso   1.000  H
  O15      1.0000 0.80730  0.16449  0.36780  Biso   1.000  O
  O16      1.0000 0.91400  0.24957  0.50630  Biso   1.000  O
  C5       1.0000 0.32990  0.15665  0.06530  Biso   1.000  C
  C6       1.0000 0.16210  0.15106  0.19910  Biso   1.000  C
  H7       1.0000 0.09180  0.11740  0.14240  Biso   1.000  H
  C7       1.0000 0.05460  0.20977  0.18980  Biso   1.000  C
  H8       1.0000 0.99650  0.21190  0.04810  Biso   1.000  H
  C8       1.0000 0.91330  0.20781  0.36780  Biso   1.000  C
  Ce3      1.0000 0.02062  0.35422  0.43928  Biso   1.000  Ce
  O17      1.0000 0.11530  0.46179  0.58150  Biso   1.000  O
  O18      1.0000 0.89870  0.45719  0.31300  Biso   1.000  O
  O19      1.0000 0.97260  0.34580  0.83510  Biso   1.000  O
  O20      1.0000 0.81390  0.33676  0.13680  Biso   1.000  O
  O21      1.0000 0.71220  0.36209  0.58340  Biso   1.000  O
  H9       1.0000 0.64080  0.38530  0.52880  Biso   1.000  H
  O22      1.0000 0.65840  0.23682  0.78270  Biso   1.000  O
  H10      1.0000 0.73650  0.24360  0.69460  Biso   1.000  H
  O23      1.0000 0.30730  0.33551  0.63220  Biso   1.000  O
  O24      1.0000 0.41400  0.25043  0.49370  Biso   1.000  O
  C9       1.0000 0.82990  0.34335  0.93470  Biso   1.000  C
  C10      1.0000 0.66210  0.34894  0.80090  Biso   1.000  C
  H11      1.0000 0.59180  0.38260  0.85760  Biso   1.000  H
  C11      1.0000 0.55460  0.29023  0.81020  Biso   1.000  C
  H12      1.0000 0.49650  0.28810  0.95190  Biso   1.000  H
  C12      1.0000 0.41330  0.29219  0.63220  Biso   1.000  C
  Ce4      1.0000 0.97938  0.64578  0.43928  Biso   1.000  Ce
  O25      1.0000 0.88470  0.53821  0.58150  Biso   1.000  O
  O26      1.0000 0.10130  0.54281  0.31300  Biso   1.000  O
  O27      1.0000 0.02740  0.65420  0.83510  Biso   1.000  O
  O28      1.0000 0.18610  0.66324  0.13680  Biso   1.000  O
  O29      1.0000 0.28780  0.63791  0.58340  Biso   1.000  O
  H13      1.0000 0.35920  0.61470  0.52880  Biso   1.000  H
  O30      1.0000 0.34160  0.76318  0.78270  Biso   1.000  O
  H14      1.0000 0.26350  0.75640  0.69460  Biso   1.000  H
  O31      1.0000 0.69270  0.66449  0.63220  Biso   1.000  O
  O32      1.0000 0.58600  0.74957  0.49370  Biso   1.000  O
  C13      1.0000 0.17010  0.65665  0.93470  Biso   1.000  C
  C14      1.0000 0.33790  0.65106  0.80090  Biso   1.000  C
  H15      1.0000 0.40820  0.61740  0.85760  Biso   1.000  H
  C15      1.0000 0.44540  0.70977  0.81020  Biso   1.000  C
  H16      1.0000 0.50350  0.71190  0.95190  Biso   1.000  H
  C16      1.0000 0.58670  0.70781  0.63220  Biso   1.000  C
  S1       1.0000 0.50000  0.00000  0.55320  Biso   1.000  S
  S2       1.0000 0.00000  0.50000  0.44680  Biso   1.000  S
