data_image0
_cell_length_a       21.963
_cell_length_b       7.6577
_cell_length_c       6.1689
_cell_angle_alpha    90
_cell_angle_beta     91.48
_cell_angle_gamma    90

_symmetry_space_group_name_H-M    "P 1"
_symmetry_int_tables_number       1

loop_
  _symmetry_equiv_pos_as_xyz
  'x, y, z'

loop_
  _atom_site_label
  _atom_site_occupancy
  _atom_site_fract_x
  _atom_site_fract_y
  _atom_site_fract_z
  _atom_site_thermal_displace_type
  _atom_site_B_iso_or_equiv
  _atom_site_type_symbol
  Ce1      1.0000 0.35468  0.74659  0.94994  Biso   1.000  Ce
  O1       1.0000 0.45610  0.63830  0.11420  Biso   1.000  O
  O2       1.0000 0.46270  0.85580  0.85140  Biso   1.000  O
  O3       1.0000 0.34400  0.79890  0.34450  Biso   1.000  O
  O4       1.0000 0.34090  0.95550  0.64660  Biso   1.000  O
  O5       1.0000 0.36230  0.05590  0.09720  Biso   1.000  O
  H1       1.0000 0.39380  0.11290  0.06130  Biso   1.000  H
  O6       1.0000 0.23679  0.10920  0.28250  Biso   1.000  O
  H2       1.0000 0.24510  0.02420  0.19860  Biso   1.000  H
  O7       1.0000 0.33530  0.46180  0.13920  Biso   1.000  O
  O8       1.0000 0.24990  0.35450  0.99560  Biso   1.000  O
  C1       1.0000 0.34440  0.93920  0.44530  Biso   1.000  C
  C2       1.0000 0.34960  0.10740  0.30930  Biso   1.000  C
  H3       1.0000 0.38320  0.17890  0.36750  Biso   1.000  H
  C3       1.0000 0.29030  0.21230  0.31380  Biso   1.000  C
  H4       1.0000 0.28820  0.27020  0.45510  Biso   1.000  H
  C4       1.0000 0.29290  0.35430  0.13720  Biso   1.000  C
  O9       1.0000 0.38850  0.54780  0.64310  Biso   1.000  O
  H5       1.0000 0.41620  0.49150  0.57580  Biso   1.000  H
  H6       1.0000 0.36670  0.61300  0.55800  Biso   1.000  H
  Ce2      1.0000 0.85468  0.24659  0.94994  Biso   1.000  Ce
  O10      1.0000 0.95610  0.13830  0.11420  Biso   1.000  O
  O11      1.0000 0.96270  0.35580  0.85140  Biso   1.000  O
  O12      1.0000 0.84400  0.29890  0.34450  Biso   1.000  O
  O13      1.0000 0.84090  0.45550  0.64660  Biso   1.000  O
  O14      1.0000 0.86230  0.55590  0.09720  Biso   1.000  O
  H7       1.0000 0.89380  0.61290  0.06130  Biso   1.000  H
  O15      1.0000 0.73679  0.60920  0.28250  Biso   1.000  O
  H8       1.0000 0.74510  0.52420  0.19860  Biso   1.000  H
  O16      1.0000 0.83530  0.96180  0.13920  Biso   1.000  O
  O17      1.0000 0.74990  0.85450  0.99560  Biso   1.000  O
  C5       1.0000 0.84440  0.43920  0.44530  Biso   1.000  C
  C6       1.0000 0.84960  0.60740  0.30930  Biso   1.000  C
  H9       1.0000 0.88320  0.67890  0.36750  Biso   1.000  H
  C7       1.0000 0.79030  0.71230  0.31380  Biso   1.000  C
  H10      1.0000 0.78820  0.77020  0.45510  Biso   1.000  H
  C8       1.0000 0.79290  0.85430  0.13720  Biso   1.000  C
  O18      1.0000 0.88850  0.04780  0.64310  Biso   1.000  O
  H11      1.0000 0.91620  0.99150  0.57580  Biso   1.000  H
  H12      1.0000 0.86670  0.11300  0.55800  Biso   1.000  H
  Ce3      1.0000 0.64532  0.74659  0.05006  Biso   1.000  Ce
  O19      1.0000 0.54390  0.63830  0.88580  Biso   1.000  O
  O20      1.0000 0.53730  0.85580  0.14860  Biso   1.000  O
  O21      1.0000 0.65600  0.79890  0.65550  Biso   1.000  O
  O22      1.0000 0.65910  0.95550  0.35340  Biso   1.000  O
  O23      1.0000 0.63770  0.05590  0.90280  Biso   1.000  O
  H13      1.0000 0.60620  0.11290  0.93870  Biso   1.000  H
  O24      1.0000 0.76321  0.10920  0.71750  Biso   1.000  O
  H14      1.0000 0.75490  0.02420  0.80140  Biso   1.000  H
  O25      1.0000 0.66470  0.46180  0.86080  Biso   1.000  O
  O26      1.0000 0.75010  0.35450  0.00440  Biso   1.000  O
  C9       1.0000 0.65560  0.93920  0.55470  Biso   1.000  C
  C10      1.0000 0.65040  0.10740  0.69070  Biso   1.000  C
  H15      1.0000 0.61680  0.17890  0.63250  Biso   1.000  H
  C11      1.0000 0.70970  0.21230  0.68620  Biso   1.000  C
  H16      1.0000 0.71180  0.27020  0.54490  Biso   1.000  H
  C12      1.0000 0.70710  0.35430  0.86280  Biso   1.000  C
  O27      1.0000 0.61150  0.54780  0.35690  Biso   1.000  O
  H17      1.0000 0.58380  0.49150  0.42420  Biso   1.000  H
  H18      1.0000 0.63330  0.61300  0.44200  Biso   1.000  H
  Ce4      1.0000 0.14532  0.24659  0.05006  Biso   1.000  Ce
  O28      1.0000 0.04390  0.13830  0.88580  Biso   1.000  O
  O29      1.0000 0.03730  0.35580  0.14860  Biso   1.000  O
  O30      1.0000 0.15600  0.29890  0.65550  Biso   1.000  O
  O31      1.0000 0.15910  0.45550  0.35340  Biso   1.000  O
  O32      1.0000 0.13770  0.55590  0.90280  Biso   1.000  O
  H19      1.0000 0.10620  0.61290  0.93870  Biso   1.000  H
  O33      1.0000 0.26321  0.60920  0.71750  Biso   1.000  O
  H20      1.0000 0.25490  0.52420  0.80140  Biso   1.000  H
  O34      1.0000 0.16470  0.96180  0.86080  Biso   1.000  O
  O35      1.0000 0.25010  0.85450  0.00440  Biso   1.000  O
  C13      1.0000 0.15560  0.43920  0.55470  Biso   1.000  C
  C14      1.0000 0.15040  0.60740  0.69070  Biso   1.000  C
  H21      1.0000 0.11680  0.67890  0.63250  Biso   1.000  H
  C15      1.0000 0.20970  0.71230  0.68620  Biso   1.000  C
  H22      1.0000 0.21180  0.77020  0.54490  Biso   1.000  H
  C16      1.0000 0.20710  0.85430  0.86280  Biso   1.000  C
  O36      1.0000 0.11150  0.04780  0.35690  Biso   1.000  O
  H23      1.0000 0.08380  0.99150  0.42420  Biso   1.000  H
  H24      1.0000 0.13330  0.11300  0.44200  Biso   1.000  H
  S1       1.0000 0.50000  0.74510  0.00000  Biso   1.000  S
  S2       1.0000 0.00000  0.24510  0.00000  Biso   1.000  S
