data_YIVNIC_clean
_audit_creation_date              2015-10-16
_audit_creation_method            'Materials Studio'
_symmetry_space_group_name_H-M    'P1'
_symmetry_Int_Tables_number       1
_symmetry_cell_setting            triclinic
loop_
_symmetry_equiv_pos_as_xyz
  x,y,z
_cell_length_a                    11.3273
_cell_length_b                    11.5744
_cell_length_c                    16.2434
_cell_angle_alpha                 105.5050
_cell_angle_beta                  110.4060
_cell_angle_gamma                 90.0000
loop_
_atom_site_label
_atom_site_type_symbol
_atom_site_fract_x
_atom_site_fract_y
_atom_site_fract_z
_atom_site_U_iso_or_equiv
_atom_site_adp_type
_atom_site_occupancy
V1     V     0.76421   0.06031   0.71038   0.01267  Uiso   1.00
V2     V     0.05383   0.43969   0.28962   0.01267  Uiso   1.00
V3     V     0.94617   0.56031   0.71038   0.01267  Uiso   1.00
V4     V     0.80301   0.81828   0.78482   0.01267  Uiso   1.00
V5     V     0.19699   0.18172   0.21518   0.01267  Uiso   1.00
V6     V     0.98181   0.31828   0.78482   0.01267  Uiso   1.00
V7     V     0.23579   0.93969   0.28962   0.01267  Uiso   1.00
V8     V     0.01819   0.68172   0.21518   0.01267  Uiso   1.00
Cu1    Cu    0.00000   0.00000   0.00000   0.01267  Uiso   1.00
Cu2    Cu    0.00000   0.50000  -0.00000   0.01267  Uiso   1.00
Cu3    Cu    0.00000   0.50000   0.50000   0.01267  Uiso   1.00
Cu4    Cu    0.50000   0.00000   0.50000   0.01267  Uiso   1.00
H1     H     0.68760   0.80820   0.55580   0.01267  Uiso   1.00
H2     H     0.21130   0.80960   0.77180   0.01267  Uiso   1.00
H3     H     0.31860   0.55420   0.40980   0.01267  Uiso   1.00
H4     H     0.23540   0.68300   0.12640   0.01267  Uiso   1.00
H5     H     0.72930   0.36400   0.41660   0.01267  Uiso   1.00
H6     H     0.43950   0.69040   0.22820   0.01267  Uiso   1.00
H7     H     0.80680   0.66980   0.93800   0.01267  Uiso   1.00
H8     H     0.92900   0.75090   0.60040   0.01267  Uiso   1.00
H9     H     0.31270   0.13600   0.58340   0.01267  Uiso   1.00
H10    H     0.50450   0.13870   0.36020   0.01267  Uiso   1.00
H11    H     0.78130   0.86040   0.31140   0.01267  Uiso   1.00
H12    H     0.34210   0.35130   0.74240   0.01267  Uiso   1.00
H13    H     0.40030   0.85130   0.74240   0.01267  Uiso   1.00
H14    H     0.14430   0.36130   0.63980   0.01267  Uiso   1.00
H15    H     0.07100   0.24910   0.39960   0.01267  Uiso   1.00
H16    H     0.39340   0.32570   0.15960   0.01267  Uiso   1.00
H17    H     0.19320   0.33020   0.06200   0.01267  Uiso   1.00
H18    H     0.76620   0.82570   0.15960   0.01267  Uiso   1.00
H19    H     0.68730   0.86400   0.41660   0.01267  Uiso   1.00
H20    H     0.60660   0.67430   0.84040   0.01267  Uiso   1.00
H21    H     0.78870   0.19040   0.22820   0.01267  Uiso   1.00
H22    H     0.53010   0.36040   0.31140   0.01267  Uiso   1.00
H23    H     0.46990   0.63960   0.68860   0.01267  Uiso   1.00
H24    H     0.30990   0.38580   0.43100   0.01267  Uiso   1.00
H25    H     0.12110   0.88580   0.43100   0.01267  Uiso   1.00
H26    H     0.65790   0.64870   0.25760   0.01267  Uiso   1.00
H27    H     0.90880   0.94580   0.59020   0.01267  Uiso   1.00
H28    H     0.69010   0.61420   0.56900   0.01267  Uiso   1.00
H29    H     0.27070   0.63600   0.58340   0.01267  Uiso   1.00
H30    H     0.09120   0.05420   0.40980   0.01267  Uiso   1.00
H31    H     0.59970   0.14870   0.25760   0.01267  Uiso   1.00
H32    H     0.13180   0.69180   0.44420   0.01267  Uiso   1.00
H33    H     0.89100   0.18300   0.12640   0.01267  Uiso   1.00
H34    H     0.85570   0.63870   0.36020   0.01267  Uiso   1.00
H35    H     0.31240   0.19180   0.44420   0.01267  Uiso   1.00
H36    H     0.32860   0.74910   0.39960   0.01267  Uiso   1.00
H37    H     0.13120   0.16980   0.93800   0.01267  Uiso   1.00
H38    H     0.21870   0.13960   0.68860   0.01267  Uiso   1.00
H39    H     0.56050   0.30960   0.77180   0.01267  Uiso   1.00
H40    H     0.10900   0.81700   0.87360   0.01267  Uiso   1.00
H41    H     0.49550   0.86130   0.63980   0.01267  Uiso   1.00
H42    H     0.23380   0.17430   0.84040   0.01267  Uiso   1.00
H43    H     0.76460   0.31700   0.87360   0.01267  Uiso   1.00
H44    H     0.86820   0.30820   0.55580   0.01267  Uiso   1.00
H45    H     0.87890   0.11420   0.56900   0.01267  Uiso   1.00
H46    H     0.86880   0.83020   0.06200   0.01267  Uiso   1.00
H47    H     0.67140   0.25090   0.60040   0.01267  Uiso   1.00
H48    H     0.68140   0.44580   0.59020   0.01267  Uiso   1.00
C1     C     0.08503   0.74390   0.47406   0.01267  Uiso   1.00
C2     C     0.27359   0.07990   0.67858   0.01267  Uiso   1.00
C3     C     0.38098   0.91120   0.71096   0.01267  Uiso   1.00
C4     C     0.56913   0.50640   0.27266   0.01267  Uiso   1.00
C5     C     0.49827   0.43850   0.50614   0.01267  Uiso   1.00
C6     C     0.14734   0.09540   0.90348   0.01267  Uiso   1.00
C7     C     0.71477   0.42240   0.38374   0.01267  Uiso   1.00
C8     C     0.40286   0.72220   0.43572   0.01267  Uiso   1.00
C9     C     0.91497   0.25610   0.52594   0.01267  Uiso   1.00
C10    C     0.03286   0.22220   0.43572   0.01267  Uiso   1.00
C11    C     0.72641   0.92010   0.32142   0.01267  Uiso   1.00
C12    C     0.38903   0.24390   0.47406   0.01267  Uiso   1.00
C13    C     0.79138   0.90100   0.15456   0.01267  Uiso   1.00
C14    C     0.43087   0.49360   0.72734   0.01267  Uiso   1.00
C15    C     0.59714   0.27780   0.56428   0.01267  Uiso   1.00
C16    C     0.56359   0.08290   0.35138   0.01267  Uiso   1.00
C17    C     0.44145   0.50860   0.20690   0.01267  Uiso   1.00
C18    C     0.73181   0.39060   0.86602   0.01267  Uiso   1.00
C19    C     0.78779   0.58290   0.35138   0.01267  Uiso   1.00
C20    C     0.39063   0.61480   0.19486   0.01267  Uiso   1.00
C21    C     0.80423   0.11480   0.19486   0.01267  Uiso   1.00
C22    C     0.61097   0.75610   0.52594   0.01267  Uiso   1.00
C23    C     0.40499   0.57990   0.67858   0.01267  Uiso   1.00
C24    C     0.60937   0.38520   0.80514   0.01267  Uiso   1.00
C25    C     0.50173   0.56150   0.49386   0.01267  Uiso   1.00
C26    C     0.43641   0.91710   0.64862   0.01267  Uiso   1.00
C27    C     0.24386   0.40460   0.09652   0.01267  Uiso   1.00
C28    C     0.23455   0.99140   0.79310   0.01267  Uiso   1.00
C29    C     0.96714   0.77780   0.56428   0.01267  Uiso   1.00
C30    C     0.38668   0.36000   0.46496   0.01267  Uiso   1.00
C31    C     0.61332   0.64000   0.53504   0.01267  Uiso   1.00
C32    C     0.60396   0.39510   0.55832   0.01267  Uiso   1.00
C33    C     0.86579   0.10940   0.13398   0.01267  Uiso   1.00
C34    C     0.66897   0.92240   0.38374   0.01267  Uiso   1.00
C35    C     0.85266   0.90460   0.09652   0.01267  Uiso   1.00
C36    C     0.29647   0.99360   0.72734   0.01267  Uiso   1.00
C37    C     0.99213   0.06150   0.49386   0.01267  Uiso   1.00
C38    C     0.33103   0.07760   0.61626   0.01267  Uiso   1.00
C39    C     0.21221   0.41710   0.64862   0.01267  Uiso   1.00
C40    C     0.07828   0.86000   0.46496   0.01267  Uiso   1.00
C41    C     0.95436   0.89510   0.55832   0.01267  Uiso   1.00
C42    C     0.92172   0.14000   0.53504   0.01267  Uiso   1.00
C43    C     0.75614   0.59540   0.90348   0.01267  Uiso   1.00
C44    C     0.00787   0.93850   0.50614   0.01267  Uiso   1.00
C45    C     0.26819   0.60940   0.13398   0.01267  Uiso   1.00
C46    C     0.28523   0.57760   0.61626   0.01267  Uiso   1.00
C47    C     0.59501   0.42010   0.32142   0.01267  Uiso   1.00
C48    C     0.36318   0.40100   0.15456   0.01267  Uiso   1.00
C49    C     0.55855   0.49140   0.79310   0.01267  Uiso   1.00
C50    C     0.67002   0.58880   0.28904   0.01267  Uiso   1.00
C51    C     0.76545   0.00860   0.20690   0.01267  Uiso   1.00
C52    C     0.70353   0.00640   0.27266   0.01267  Uiso   1.00
C53    C     0.20862   0.09900   0.84544   0.01267  Uiso   1.00
C54    C     0.19577   0.88520   0.80514   0.01267  Uiso   1.00
C55    C     0.32998   0.41120   0.71096   0.01267  Uiso   1.00
C56    C     0.13421   0.89060   0.86602   0.01267  Uiso   1.00
C57    C     0.61902   0.08880   0.28904   0.01267  Uiso   1.00
C58    C     0.04564   0.10490   0.44168   0.01267  Uiso   1.00
C59    C     0.63682   0.59900   0.84544   0.01267  Uiso   1.00
C60    C     0.39604   0.60490   0.44168   0.01267  Uiso   1.00
N1     N     0.10835   0.99330   0.91490   0.01267  Uiso   1.00
N2     N     0.19345   0.50670   0.08510   0.01267  Uiso   1.00
N3     N     0.49211   0.20050   0.52202   0.01267  Uiso   1.00
N4     N     0.18772   0.49780   0.59924   0.01267  Uiso   1.00
N5     N     0.02991   0.70050   0.52202   0.01267  Uiso   1.00
N6     N     0.58848   0.00220   0.40076   0.01267  Uiso   1.00
N7     N     0.97009   0.29950   0.47798   0.01267  Uiso   1.00
N8     N     0.81228   0.50220   0.40076   0.01267  Uiso   1.00
N9     N     0.41152   0.99780   0.59924   0.01267  Uiso   1.00
N10    N     0.50789   0.79950   0.47798   0.01267  Uiso   1.00
N11    N     0.89165   0.00670   0.08510   0.01267  Uiso   1.00
N12    N     0.80655   0.49330   0.91490   0.01267  Uiso   1.00
O1     O     0.88501   0.17620   0.73442   0.01267  Uiso   1.00
O2     O     0.92580   0.52690   0.59940   0.01267  Uiso   1.00
O3     O     0.12301   0.13700   0.10182   0.01267  Uiso   1.00
O4     O     0.11499   0.82380   0.26558   0.01267  Uiso   1.00
O5     O     0.02119   0.36300   0.89818   0.01267  Uiso   1.00
O6     O     0.10220   0.57210   0.26700   0.01267  Uiso   1.00
O7     O     0.07420   0.47310   0.40060   0.01267  Uiso   1.00
O8     O     0.87699   0.86300   0.89818   0.01267  Uiso   1.00
O9     O     0.89780   0.42790   0.73300   0.01267  Uiso   1.00
O10    O     0.15059   0.32380   0.26558   0.01267  Uiso   1.00
O11    O     0.83520   0.92790   0.73300   0.01267  Uiso   1.00
O12    O     0.97881   0.63700   0.10182   0.01267  Uiso   1.00
O13    O     0.67360   0.02690   0.59940   0.01267  Uiso   1.00
O14    O     0.16480   0.07210   0.26700   0.01267  Uiso   1.00
O15    O     0.84941   0.67620   0.73442   0.01267  Uiso   1.00
O16    O     0.32640   0.97310   0.40060   0.01267  Uiso   1.00
