data_image0
_cell_length_a       24.2742
_cell_length_b       16.125
_cell_length_c       22.0331
_cell_angle_alpha    90
_cell_angle_beta     100.22
_cell_angle_gamma    90

_symmetry_space_group_name_H-M    "P 1"
_symmetry_int_tables_number       1

loop_
  _symmetry_equiv_pos_as_xyz
  'x, y, z'

loop_
  _atom_site_label
  _atom_site_occupancy
  _atom_site_fract_x
  _atom_site_fract_y
  _atom_site_fract_z
  _atom_site_thermal_displace_type
  _atom_site_B_iso_or_equiv
  _atom_site_type_symbol
  Pr1      1.0000 0.25877  0.21054  0.59563  Biso   1.000  Pr
  Si1      1.0000 0.37955  0.27381  0.00670  Biso   1.000  Si
  C1       1.0000 0.35720  0.25880  0.92220  Biso   1.000  C
  C2       1.0000 0.39290  0.23390  0.88190  Biso   1.000  C
  H1       1.0000 0.43000  0.22180  0.89830  Biso   1.000  H
  C3       1.0000 0.30150  0.26970  0.89430  Biso   1.000  C
  H2       1.0000 0.27540  0.28290  0.91910  Biso   1.000  H
  C4       1.0000 0.28330  0.26160  0.83140  Biso   1.000  C
  H3       1.0000 0.24600  0.27130  0.81440  Biso   1.000  H
  C5       1.0000 0.37540  0.22660  0.81920  Biso   1.000  C
  H4       1.0000 0.40080  0.21300  0.79380  Biso   1.000  H
  C6       1.0000 0.32000  0.23980  0.79470  Biso   1.000  C
  C7       1.0000 0.29940  0.23070  0.72570  Biso   1.000  C
  C8       1.0000 0.45760  0.27570  0.02800  Biso   1.000  C
  C9       1.0000 0.48710  0.34440  0.05000  Biso   1.000  C
  H5       1.0000 0.46770  0.39350  0.05310  Biso   1.000  H
  C10      1.0000 0.48810  0.20380  0.02500  Biso   1.000  C
  H6       1.0000 0.46920  0.15500  0.01210  Biso   1.000  H
  C11      1.0000 0.54520  0.34410  0.06800  Biso   1.000  C
  H7       1.0000 0.56380  0.39200  0.08380  Biso   1.000  H
  C12      1.0000 0.54630  0.20230  0.04060  Biso   1.000  C
  H8       1.0000 0.56570  0.15350  0.03640  Biso   1.000  H
  C13      1.0000 0.57510  0.27260  0.06220  Biso   1.000  C
  C14      1.0000 0.63790  0.27430  0.07930  Biso   1.000  C
  C15      1.0000 0.35100  0.37560  0.02610  Biso   1.000  C
  C16      1.0000 0.36020  0.44350  0.98800  Biso   1.000  C
  H9       1.0000 0.38000  0.43580  0.95600  Biso   1.000  H
  C17      1.0000 0.32270  0.39030  0.07330  Biso   1.000  C
  H10      1.0000 0.31570  0.34650  0.09830  Biso   1.000  H
  C18      1.0000 0.30370  0.47150  0.08510  Biso   1.000  C
  H11      1.0000 0.28630  0.48090  0.11880  Biso   1.000  H
  C19      1.0000 0.33910  0.52270  0.99900  Biso   1.000  C
  H12      1.0000 0.34450  0.56670  0.97340  Biso   1.000  H
  C20      1.0000 0.31110  0.53540  0.04660  Biso   1.000  C
  C21      1.0000 0.28980  0.61870  0.05870  Biso   1.000  C
  C22      1.0000 0.35280  0.18840  0.05000  Biso   1.000  C
  C23      1.0000 0.32220  0.12310  0.02210  Biso   1.000  C
  H13      1.0000 0.31390  0.12190  0.97920  Biso   1.000  H
  C24      1.0000 0.36620  0.18570  0.11310  Biso   1.000  C
  H14      1.0000 0.38790  0.22800  0.13390  Biso   1.000  H
  C25      1.0000 0.34810  0.12090  0.14670  Biso   1.000  C
  H15      1.0000 0.35740  0.12080  0.18950  Biso   1.000  H
  C26      1.0000 0.30290  0.05880  0.05460  Biso   1.000  C
  H16      1.0000 0.28080  0.01740  0.03340  Biso   1.000  H
  C27      1.0000 0.31600  0.05610  0.11630  Biso   1.000  C
  C28      1.0000 0.29240  0.98680  0.15030  Biso   1.000  C
  O1       1.0000 0.33420  0.21660  0.69060  Biso   1.000  O
  O2       1.0000 0.24810  0.23790  0.70470  Biso   1.000  O
  O3       1.0000 0.66516  0.21130  0.06530  Biso   1.000  O
  O4       1.0000 0.66138  0.33620  0.10670  Biso   1.000  O
  O5       1.0000 0.28300  0.63900  0.11210  Biso   1.000  O
  O6       1.0000 0.27710  0.67030  0.01380  Biso   1.000  O
  O7       1.0000 0.30020  0.99490  0.20950  Biso   1.000  O
  O8       1.0000 0.26720  0.92920  0.12300  Biso   1.000  O
  Pr2      1.0000 0.75877  0.71054  0.59563  Biso   1.000  Pr
  Si2      1.0000 0.87955  0.77381  0.00670  Biso   1.000  Si
  C29      1.0000 0.85720  0.75880  0.92220  Biso   1.000  C
  C30      1.0000 0.89290  0.73390  0.88190  Biso   1.000  C
  H17      1.0000 0.93000  0.72180  0.89830  Biso   1.000  H
  C31      1.0000 0.80150  0.76970  0.89430  Biso   1.000  C
  H18      1.0000 0.77540  0.78290  0.91910  Biso   1.000  H
  C32      1.0000 0.78330  0.76160  0.83140  Biso   1.000  C
  H19      1.0000 0.74600  0.77130  0.81440  Biso   1.000  H
  C33      1.0000 0.87540  0.72660  0.81920  Biso   1.000  C
  H20      1.0000 0.90080  0.71300  0.79380  Biso   1.000  H
  C34      1.0000 0.82000  0.73980  0.79470  Biso   1.000  C
  C35      1.0000 0.79940  0.73070  0.72570  Biso   1.000  C
  C36      1.0000 0.95760  0.77570  0.02800  Biso   1.000  C
  C37      1.0000 0.98710  0.84440  0.05000  Biso   1.000  C
  H21      1.0000 0.96770  0.89350  0.05310  Biso   1.000  H
  C38      1.0000 0.98810  0.70380  0.02500  Biso   1.000  C
  H22      1.0000 0.96920  0.65500  0.01210  Biso   1.000  H
  C39      1.0000 0.04520  0.84410  0.06800  Biso   1.000  C
  H23      1.0000 0.06380  0.89200  0.08380  Biso   1.000  H
  C40      1.0000 0.04630  0.70230  0.04060  Biso   1.000  C
  H24      1.0000 0.06570  0.65350  0.03640  Biso   1.000  H
  C41      1.0000 0.07510  0.77260  0.06220  Biso   1.000  C
  C42      1.0000 0.13790  0.77430  0.07930  Biso   1.000  C
  C43      1.0000 0.85100  0.87560  0.02610  Biso   1.000  C
  C44      1.0000 0.86020  0.94350  0.98800  Biso   1.000  C
  H25      1.0000 0.88000  0.93580  0.95600  Biso   1.000  H
  C45      1.0000 0.82270  0.89030  0.07330  Biso   1.000  C
  H26      1.0000 0.81570  0.84650  0.09830  Biso   1.000  H
  C46      1.0000 0.80370  0.97150  0.08510  Biso   1.000  C
  H27      1.0000 0.78630  0.98090  0.11880  Biso   1.000  H
  C47      1.0000 0.83910  0.02270  0.99900  Biso   1.000  C
  H28      1.0000 0.84450  0.06670  0.97340  Biso   1.000  H
  C48      1.0000 0.81110  0.03540  0.04660  Biso   1.000  C
  C49      1.0000 0.78980  0.11870  0.05870  Biso   1.000  C
  C50      1.0000 0.85280  0.68840  0.05000  Biso   1.000  C
  C51      1.0000 0.82220  0.62310  0.02210  Biso   1.000  C
  H29      1.0000 0.81390  0.62190  0.97920  Biso   1.000  H
  C52      1.0000 0.86620  0.68570  0.11310  Biso   1.000  C
  H30      1.0000 0.88790  0.72800  0.13390  Biso   1.000  H
  C53      1.0000 0.84810  0.62090  0.14670  Biso   1.000  C
  H31      1.0000 0.85740  0.62080  0.18950  Biso   1.000  H
  C54      1.0000 0.80290  0.55880  0.05460  Biso   1.000  C
  H32      1.0000 0.78080  0.51740  0.03340  Biso   1.000  H
  C55      1.0000 0.81600  0.55610  0.11630  Biso   1.000  C
  C56      1.0000 0.79240  0.48680  0.15030  Biso   1.000  C
  O9       1.0000 0.83420  0.71660  0.69060  Biso   1.000  O
  O10      1.0000 0.74810  0.73790  0.70470  Biso   1.000  O
  O11      1.0000 0.16516  0.71130  0.06530  Biso   1.000  O
  O12      1.0000 0.16138  0.83620  0.10670  Biso   1.000  O
  O13      1.0000 0.78300  0.13900  0.11210  Biso   1.000  O
  O14      1.0000 0.77710  0.17030  0.01380  Biso   1.000  O
  O15      1.0000 0.80020  0.49490  0.20950  Biso   1.000  O
  O16      1.0000 0.76720  0.42920  0.12300  Biso   1.000  O
  Pr3      1.0000 0.74123  0.21054  0.90437  Biso   1.000  Pr
  Si3      1.0000 0.62045  0.27381  0.49330  Biso   1.000  Si
  C57      1.0000 0.64280  0.25880  0.57780  Biso   1.000  C
  C58      1.0000 0.60710  0.23390  0.61810  Biso   1.000  C
  H33      1.0000 0.57000  0.22180  0.60170  Biso   1.000  H
  C59      1.0000 0.69850  0.26970  0.60570  Biso   1.000  C
  H34      1.0000 0.72460  0.28290  0.58090  Biso   1.000  H
  C60      1.0000 0.71670  0.26160  0.66860  Biso   1.000  C
  H35      1.0000 0.75400  0.27130  0.68560  Biso   1.000  H
  C61      1.0000 0.62460  0.22660  0.68080  Biso   1.000  C
  H36      1.0000 0.59920  0.21300  0.70620  Biso   1.000  H
  C62      1.0000 0.68000  0.23980  0.70530  Biso   1.000  C
  C63      1.0000 0.70060  0.23070  0.77430  Biso   1.000  C
  C64      1.0000 0.54240  0.27570  0.47200  Biso   1.000  C
  C65      1.0000 0.51290  0.34440  0.45000  Biso   1.000  C
  H37      1.0000 0.53230  0.39350  0.44690  Biso   1.000  H
  C66      1.0000 0.51190  0.20380  0.47500  Biso   1.000  C
  H38      1.0000 0.53080  0.15500  0.48790  Biso   1.000  H
  C67      1.0000 0.45480  0.34410  0.43200  Biso   1.000  C
  H39      1.0000 0.43620  0.39200  0.41620  Biso   1.000  H
  C68      1.0000 0.45370  0.20230  0.45940  Biso   1.000  C
  H40      1.0000 0.43430  0.15350  0.46360  Biso   1.000  H
  C69      1.0000 0.42490  0.27260  0.43780  Biso   1.000  C
  C70      1.0000 0.36210  0.27430  0.42070  Biso   1.000  C
  C71      1.0000 0.64900  0.37560  0.47390  Biso   1.000  C
  C72      1.0000 0.63980  0.44350  0.51200  Biso   1.000  C
  H41      1.0000 0.62000  0.43580  0.54400  Biso   1.000  H
  C73      1.0000 0.67730  0.39030  0.42670  Biso   1.000  C
  H42      1.0000 0.68430  0.34650  0.40170  Biso   1.000  H
  C74      1.0000 0.69630  0.47150  0.41490  Biso   1.000  C
  H43      1.0000 0.71370  0.48090  0.38120  Biso   1.000  H
  C75      1.0000 0.66090  0.52270  0.50100  Biso   1.000  C
  H44      1.0000 0.65550  0.56670  0.52660  Biso   1.000  H
  C76      1.0000 0.68890  0.53540  0.45340  Biso   1.000  C
  C77      1.0000 0.71020  0.61870  0.44130  Biso   1.000  C
  C78      1.0000 0.64720  0.18840  0.45000  Biso   1.000  C
  C79      1.0000 0.67780  0.12310  0.47790  Biso   1.000  C
  H45      1.0000 0.68610  0.12190  0.52080  Biso   1.000  H
  C80      1.0000 0.63380  0.18570  0.38690  Biso   1.000  C
  H46      1.0000 0.61210  0.22800  0.36610  Biso   1.000  H
  C81      1.0000 0.65190  0.12090  0.35330  Biso   1.000  C
  H47      1.0000 0.64260  0.12080  0.31050  Biso   1.000  H
  C82      1.0000 0.69710  0.05880  0.44540  Biso   1.000  C
  H48      1.0000 0.71920  0.01740  0.46660  Biso   1.000  H
  C83      1.0000 0.68400  0.05610  0.38370  Biso   1.000  C
  C84      1.0000 0.70760  0.98680  0.34970  Biso   1.000  C
  O17      1.0000 0.66580  0.21660  0.80940  Biso   1.000  O
  O18      1.0000 0.75190  0.23790  0.79530  Biso   1.000  O
  O19      1.0000 0.33484  0.21130  0.43470  Biso   1.000  O
  O20      1.0000 0.33862  0.33620  0.39330  Biso   1.000  O
  O21      1.0000 0.71700  0.63900  0.38790  Biso   1.000  O
  O22      1.0000 0.72290  0.67030  0.48620  Biso   1.000  O
  O23      1.0000 0.69980  0.99490  0.29050  Biso   1.000  O
  O24      1.0000 0.73280  0.92920  0.37700  Biso   1.000  O
  Pr4      1.0000 0.24123  0.71054  0.90437  Biso   1.000  Pr
  Si4      1.0000 0.12045  0.77381  0.49330  Biso   1.000  Si
  C85      1.0000 0.14280  0.75880  0.57780  Biso   1.000  C
  C86      1.0000 0.10710  0.73390  0.61810  Biso   1.000  C
  H49      1.0000 0.07000  0.72180  0.60170  Biso   1.000  H
  C87      1.0000 0.19850  0.76970  0.60570  Biso   1.000  C
  H50      1.0000 0.22460  0.78290  0.58090  Biso   1.000  H
  C88      1.0000 0.21670  0.76160  0.66860  Biso   1.000  C
  H51      1.0000 0.25400  0.77130  0.68560  Biso   1.000  H
  C89      1.0000 0.12460  0.72660  0.68080  Biso   1.000  C
  H52      1.0000 0.09920  0.71300  0.70620  Biso   1.000  H
  C90      1.0000 0.18000  0.73980  0.70530  Biso   1.000  C
  C91      1.0000 0.20060  0.73070  0.77430  Biso   1.000  C
  C92      1.0000 0.04240  0.77570  0.47200  Biso   1.000  C
  C93      1.0000 0.01290  0.84440  0.45000  Biso   1.000  C
  H53      1.0000 0.03230  0.89350  0.44690  Biso   1.000  H
  C94      1.0000 0.01190  0.70380  0.47500  Biso   1.000  C
  H54      1.0000 0.03080  0.65500  0.48790  Biso   1.000  H
  C95      1.0000 0.95480  0.84410  0.43200  Biso   1.000  C
  H55      1.0000 0.93620  0.89200  0.41620  Biso   1.000  H
  C96      1.0000 0.95370  0.70230  0.45940  Biso   1.000  C
  H56      1.0000 0.93430  0.65350  0.46360  Biso   1.000  H
  C97      1.0000 0.92490  0.77260  0.43780  Biso   1.000  C
  C98      1.0000 0.86210  0.77430  0.42070  Biso   1.000  C
  C99      1.0000 0.14900  0.87560  0.47390  Biso   1.000  C
  C100     1.0000 0.13980  0.94350  0.51200  Biso   1.000  C
  H57      1.0000 0.12000  0.93580  0.54400  Biso   1.000  H
  C101     1.0000 0.17730  0.89030  0.42670  Biso   1.000  C
  H58      1.0000 0.18430  0.84650  0.40170  Biso   1.000  H
  C102     1.0000 0.19630  0.97150  0.41490  Biso   1.000  C
  H59      1.0000 0.21370  0.98090  0.38120  Biso   1.000  H
  C103     1.0000 0.16090  0.02270  0.50100  Biso   1.000  C
  H60      1.0000 0.15550  0.06670  0.52660  Biso   1.000  H
  C104     1.0000 0.18890  0.03540  0.45340  Biso   1.000  C
  C105     1.0000 0.21020  0.11870  0.44130  Biso   1.000  C
  C106     1.0000 0.14720  0.68840  0.45000  Biso   1.000  C
  C107     1.0000 0.17780  0.62310  0.47790  Biso   1.000  C
  H61      1.0000 0.18610  0.62190  0.52080  Biso   1.000  H
  C108     1.0000 0.13380  0.68570  0.38690  Biso   1.000  C
  H62      1.0000 0.11210  0.72800  0.36610  Biso   1.000  H
  C109     1.0000 0.15190  0.62090  0.35330  Biso   1.000  C
  H63      1.0000 0.14260  0.62080  0.31050  Biso   1.000  H
  C110     1.0000 0.19710  0.55880  0.44540  Biso   1.000  C
  H64      1.0000 0.21920  0.51740  0.46660  Biso   1.000  H
  C111     1.0000 0.18400  0.55610  0.38370  Biso   1.000  C
  C112     1.0000 0.20760  0.48680  0.34970  Biso   1.000  C
  O25      1.0000 0.16580  0.71660  0.80940  Biso   1.000  O
  O26      1.0000 0.25190  0.73790  0.79530  Biso   1.000  O
  O27      1.0000 0.83484  0.71130  0.43470  Biso   1.000  O
  O28      1.0000 0.83862  0.83620  0.39330  Biso   1.000  O
  O29      1.0000 0.21700  0.13900  0.38790  Biso   1.000  O
  O30      1.0000 0.22290  0.17030  0.48620  Biso   1.000  O
  O31      1.0000 0.19980  0.49490  0.29050  Biso   1.000  O
  O32      1.0000 0.23280  0.42920  0.37700  Biso   1.000  O
  Pr5      1.0000 0.74123  0.78946  0.40437  Biso   1.000  Pr
  Si5      1.0000 0.62045  0.72619  0.99330  Biso   1.000  Si
  C113     1.0000 0.64280  0.74120  0.07780  Biso   1.000  C
  C114     1.0000 0.60710  0.76610  0.11810  Biso   1.000  C
  H65      1.0000 0.57000  0.77820  0.10170  Biso   1.000  H
  C115     1.0000 0.69850  0.73030  0.10570  Biso   1.000  C
  H66      1.0000 0.72460  0.71710  0.08090  Biso   1.000  H
  C116     1.0000 0.71670  0.73840  0.16860  Biso   1.000  C
  H67      1.0000 0.75400  0.72870  0.18560  Biso   1.000  H
  C117     1.0000 0.62460  0.77340  0.18080  Biso   1.000  C
  H68      1.0000 0.59920  0.78700  0.20620  Biso   1.000  H
  C118     1.0000 0.68000  0.76020  0.20530  Biso   1.000  C
  C119     1.0000 0.70060  0.76930  0.27430  Biso   1.000  C
  C120     1.0000 0.54240  0.72430  0.97200  Biso   1.000  C
  C121     1.0000 0.51290  0.65560  0.95000  Biso   1.000  C
  H69      1.0000 0.53230  0.60650  0.94690  Biso   1.000  H
  C122     1.0000 0.51190  0.79620  0.97500  Biso   1.000  C
  H70      1.0000 0.53080  0.84500  0.98790  Biso   1.000  H
  C123     1.0000 0.45480  0.65590  0.93200  Biso   1.000  C
  H71      1.0000 0.43620  0.60800  0.91620  Biso   1.000  H
  C124     1.0000 0.45370  0.79770  0.95940  Biso   1.000  C
  H72      1.0000 0.43430  0.84650  0.96360  Biso   1.000  H
  C125     1.0000 0.42490  0.72740  0.93780  Biso   1.000  C
  C126     1.0000 0.36210  0.72570  0.92070  Biso   1.000  C
  C127     1.0000 0.64900  0.62440  0.97390  Biso   1.000  C
  C128     1.0000 0.63980  0.55650  0.01200  Biso   1.000  C
  H73      1.0000 0.62000  0.56420  0.04400  Biso   1.000  H
  C129     1.0000 0.67730  0.60970  0.92670  Biso   1.000  C
  H74      1.0000 0.68430  0.65350  0.90170  Biso   1.000  H
  C130     1.0000 0.69630  0.52850  0.91490  Biso   1.000  C
  H75      1.0000 0.71370  0.51910  0.88120  Biso   1.000  H
  C131     1.0000 0.66090  0.47730  0.00100  Biso   1.000  C
  H76      1.0000 0.65550  0.43330  0.02660  Biso   1.000  H
  C132     1.0000 0.68890  0.46460  0.95340  Biso   1.000  C
  C133     1.0000 0.71020  0.38130  0.94130  Biso   1.000  C
  C134     1.0000 0.64720  0.81160  0.95000  Biso   1.000  C
  C135     1.0000 0.67780  0.87690  0.97790  Biso   1.000  C
  H77      1.0000 0.68610  0.87810  0.02080  Biso   1.000  H
  C136     1.0000 0.63380  0.81430  0.88690  Biso   1.000  C
  H78      1.0000 0.61210  0.77200  0.86610  Biso   1.000  H
  C137     1.0000 0.65190  0.87910  0.85330  Biso   1.000  C
  H79      1.0000 0.64260  0.87920  0.81050  Biso   1.000  H
  C138     1.0000 0.69710  0.94120  0.94540  Biso   1.000  C
  H80      1.0000 0.71920  0.98260  0.96660  Biso   1.000  H
  C139     1.0000 0.68400  0.94390  0.88370  Biso   1.000  C
  C140     1.0000 0.70760  0.01320  0.84970  Biso   1.000  C
  O33      1.0000 0.66580  0.78340  0.30940  Biso   1.000  O
  O34      1.0000 0.75190  0.76210  0.29530  Biso   1.000  O
  O35      1.0000 0.33484  0.78870  0.93470  Biso   1.000  O
  O36      1.0000 0.33862  0.66380  0.89330  Biso   1.000  O
  O37      1.0000 0.71700  0.36100  0.88790  Biso   1.000  O
  O38      1.0000 0.72290  0.32970  0.98620  Biso   1.000  O
  O39      1.0000 0.69980  0.00510  0.79050  Biso   1.000  O
  O40      1.0000 0.73280  0.07080  0.87700  Biso   1.000  O
  Pr6      1.0000 0.24123  0.28946  0.40437  Biso   1.000  Pr
  Si6      1.0000 0.12045  0.22619  0.99330  Biso   1.000  Si
  C141     1.0000 0.14280  0.24120  0.07780  Biso   1.000  C
  C142     1.0000 0.10710  0.26610  0.11810  Biso   1.000  C
  H81      1.0000 0.07000  0.27820  0.10170  Biso   1.000  H
  C143     1.0000 0.19850  0.23030  0.10570  Biso   1.000  C
  H82      1.0000 0.22460  0.21710  0.08090  Biso   1.000  H
  C144     1.0000 0.21670  0.23840  0.16860  Biso   1.000  C
  H83      1.0000 0.25400  0.22870  0.18560  Biso   1.000  H
  C145     1.0000 0.12460  0.27340  0.18080  Biso   1.000  C
  H84      1.0000 0.09920  0.28700  0.20620  Biso   1.000  H
  C146     1.0000 0.18000  0.26020  0.20530  Biso   1.000  C
  C147     1.0000 0.20060  0.26930  0.27430  Biso   1.000  C
  C148     1.0000 0.04240  0.22430  0.97200  Biso   1.000  C
  C149     1.0000 0.01290  0.15560  0.95000  Biso   1.000  C
  H85      1.0000 0.03230  0.10650  0.94690  Biso   1.000  H
  C150     1.0000 0.01190  0.29620  0.97500  Biso   1.000  C
  H86      1.0000 0.03080  0.34500  0.98790  Biso   1.000  H
  C151     1.0000 0.95480  0.15590  0.93200  Biso   1.000  C
  H87      1.0000 0.93620  0.10800  0.91620  Biso   1.000  H
  C152     1.0000 0.95370  0.29770  0.95940  Biso   1.000  C
  H88      1.0000 0.93430  0.34650  0.96360  Biso   1.000  H
  C153     1.0000 0.92490  0.22740  0.93780  Biso   1.000  C
  C154     1.0000 0.86210  0.22570  0.92070  Biso   1.000  C
  C155     1.0000 0.14900  0.12440  0.97390  Biso   1.000  C
  C156     1.0000 0.13980  0.05650  0.01200  Biso   1.000  C
  H89      1.0000 0.12000  0.06420  0.04400  Biso   1.000  H
  C157     1.0000 0.17730  0.10970  0.92670  Biso   1.000  C
  H90      1.0000 0.18430  0.15350  0.90170  Biso   1.000  H
  C158     1.0000 0.19630  0.02850  0.91490  Biso   1.000  C
  H91      1.0000 0.21370  0.01910  0.88120  Biso   1.000  H
  C159     1.0000 0.16090  0.97730  0.00100  Biso   1.000  C
  H92      1.0000 0.15550  0.93330  0.02660  Biso   1.000  H
  C160     1.0000 0.18890  0.96460  0.95340  Biso   1.000  C
  C161     1.0000 0.21020  0.88130  0.94130  Biso   1.000  C
  C162     1.0000 0.14720  0.31160  0.95000  Biso   1.000  C
  C163     1.0000 0.17780  0.37690  0.97790  Biso   1.000  C
  H93      1.0000 0.18610  0.37810  0.02080  Biso   1.000  H
  C164     1.0000 0.13380  0.31430  0.88690  Biso   1.000  C
  H94      1.0000 0.11210  0.27200  0.86610  Biso   1.000  H
  C165     1.0000 0.15190  0.37910  0.85330  Biso   1.000  C
  H95      1.0000 0.14260  0.37920  0.81050  Biso   1.000  H
  C166     1.0000 0.19710  0.44120  0.94540  Biso   1.000  C
  H96      1.0000 0.21920  0.48260  0.96660  Biso   1.000  H
  C167     1.0000 0.18400  0.44390  0.88370  Biso   1.000  C
  C168     1.0000 0.20760  0.51320  0.84970  Biso   1.000  C
  O41      1.0000 0.16580  0.28340  0.30940  Biso   1.000  O
  O42      1.0000 0.25190  0.26210  0.29530  Biso   1.000  O
  O43      1.0000 0.83484  0.28870  0.93470  Biso   1.000  O
  O44      1.0000 0.83862  0.16380  0.89330  Biso   1.000  O
  O45      1.0000 0.21700  0.86100  0.88790  Biso   1.000  O
  O46      1.0000 0.22290  0.82970  0.98620  Biso   1.000  O
  O47      1.0000 0.19980  0.50510  0.79050  Biso   1.000  O
  O48      1.0000 0.23280  0.57080  0.87700  Biso   1.000  O
  Pr7      1.0000 0.25877  0.78946  0.09563  Biso   1.000  Pr
  Si7      1.0000 0.37955  0.72619  0.50670  Biso   1.000  Si
  C169     1.0000 0.35720  0.74120  0.42220  Biso   1.000  C
  C170     1.0000 0.39290  0.76610  0.38190  Biso   1.000  C
  H97      1.0000 0.43000  0.77820  0.39830  Biso   1.000  H
  C171     1.0000 0.30150  0.73030  0.39430  Biso   1.000  C
  H98      1.0000 0.27540  0.71710  0.41910  Biso   1.000  H
  C172     1.0000 0.28330  0.73840  0.33140  Biso   1.000  C
  H99      1.0000 0.24600  0.72870  0.31440  Biso   1.000  H
  C173     1.0000 0.37540  0.77340  0.31920  Biso   1.000  C
  H100     1.0000 0.40080  0.78700  0.29380  Biso   1.000  H
  C174     1.0000 0.32000  0.76020  0.29470  Biso   1.000  C
  C175     1.0000 0.29940  0.76930  0.22570  Biso   1.000  C
  C176     1.0000 0.45760  0.72430  0.52800  Biso   1.000  C
  C177     1.0000 0.48710  0.65560  0.55000  Biso   1.000  C
  H101     1.0000 0.46770  0.60650  0.55310  Biso   1.000  H
  C178     1.0000 0.48810  0.79620  0.52500  Biso   1.000  C
  H102     1.0000 0.46920  0.84500  0.51210  Biso   1.000  H
  C179     1.0000 0.54520  0.65590  0.56800  Biso   1.000  C
  H103     1.0000 0.56380  0.60800  0.58380  Biso   1.000  H
  C180     1.0000 0.54630  0.79770  0.54060  Biso   1.000  C
  H104     1.0000 0.56570  0.84650  0.53640  Biso   1.000  H
  C181     1.0000 0.57510  0.72740  0.56220  Biso   1.000  C
  C182     1.0000 0.63790  0.72570  0.57930  Biso   1.000  C
  C183     1.0000 0.35100  0.62440  0.52610  Biso   1.000  C
  C184     1.0000 0.36020  0.55650  0.48800  Biso   1.000  C
  H105     1.0000 0.38000  0.56420  0.45600  Biso   1.000  H
  C185     1.0000 0.32270  0.60970  0.57330  Biso   1.000  C
  H106     1.0000 0.31570  0.65350  0.59830  Biso   1.000  H
  C186     1.0000 0.30370  0.52850  0.58510  Biso   1.000  C
  H107     1.0000 0.28630  0.51910  0.61880  Biso   1.000  H
  C187     1.0000 0.33910  0.47730  0.49900  Biso   1.000  C
  H108     1.0000 0.34450  0.43330  0.47340  Biso   1.000  H
  C188     1.0000 0.31110  0.46460  0.54660  Biso   1.000  C
  C189     1.0000 0.28980  0.38130  0.55870  Biso   1.000  C
  C190     1.0000 0.35280  0.81160  0.55000  Biso   1.000  C
  C191     1.0000 0.32220  0.87690  0.52210  Biso   1.000  C
  H109     1.0000 0.31390  0.87810  0.47920  Biso   1.000  H
  C192     1.0000 0.36620  0.81430  0.61310  Biso   1.000  C
  H110     1.0000 0.38790  0.77200  0.63390  Biso   1.000  H
  C193     1.0000 0.34810  0.87910  0.64670  Biso   1.000  C
  H111     1.0000 0.35740  0.87920  0.68950  Biso   1.000  H
  C194     1.0000 0.30290  0.94120  0.55460  Biso   1.000  C
  H112     1.0000 0.28080  0.98260  0.53340  Biso   1.000  H
  C195     1.0000 0.31600  0.94390  0.61630  Biso   1.000  C
  C196     1.0000 0.29240  0.01320  0.65030  Biso   1.000  C
  O49      1.0000 0.33420  0.78340  0.19060  Biso   1.000  O
  O50      1.0000 0.24810  0.76210  0.20470  Biso   1.000  O
  O51      1.0000 0.66516  0.78870  0.56530  Biso   1.000  O
  O52      1.0000 0.66138  0.66380  0.60670  Biso   1.000  O
  O53      1.0000 0.28300  0.36100  0.61210  Biso   1.000  O
  O54      1.0000 0.27710  0.32970  0.51380  Biso   1.000  O
  O55      1.0000 0.30020  0.00510  0.70950  Biso   1.000  O
  O56      1.0000 0.26720  0.07080  0.62300  Biso   1.000  O
  Pr8      1.0000 0.75877  0.28946  0.09563  Biso   1.000  Pr
  Si8      1.0000 0.87955  0.22619  0.50670  Biso   1.000  Si
  C197     1.0000 0.85720  0.24120  0.42220  Biso   1.000  C
  C198     1.0000 0.89290  0.26610  0.38190  Biso   1.000  C
  H113     1.0000 0.93000  0.27820  0.39830  Biso   1.000  H
  C199     1.0000 0.80150  0.23030  0.39430  Biso   1.000  C
  H114     1.0000 0.77540  0.21710  0.41910  Biso   1.000  H
  C200     1.0000 0.78330  0.23840  0.33140  Biso   1.000  C
  H115     1.0000 0.74600  0.22870  0.31440  Biso   1.000  H
  C201     1.0000 0.87540  0.27340  0.31920  Biso   1.000  C
  H116     1.0000 0.90080  0.28700  0.29380  Biso   1.000  H
  C202     1.0000 0.82000  0.26020  0.29470  Biso   1.000  C
  C203     1.0000 0.79940  0.26930  0.22570  Biso   1.000  C
  C204     1.0000 0.95760  0.22430  0.52800  Biso   1.000  C
  C205     1.0000 0.98710  0.15560  0.55000  Biso   1.000  C
  H117     1.0000 0.96770  0.10650  0.55310  Biso   1.000  H
  C206     1.0000 0.98810  0.29620  0.52500  Biso   1.000  C
  H118     1.0000 0.96920  0.34500  0.51210  Biso   1.000  H
  C207     1.0000 0.04520  0.15590  0.56800  Biso   1.000  C
  H119     1.0000 0.06380  0.10800  0.58380  Biso   1.000  H
  C208     1.0000 0.04630  0.29770  0.54060  Biso   1.000  C
  H120     1.0000 0.06570  0.34650  0.53640  Biso   1.000  H
  C209     1.0000 0.07510  0.22740  0.56220  Biso   1.000  C
  C210     1.0000 0.13790  0.22570  0.57930  Biso   1.000  C
  C211     1.0000 0.85100  0.12440  0.52610  Biso   1.000  C
  C212     1.0000 0.86020  0.05650  0.48800  Biso   1.000  C
  H121     1.0000 0.88000  0.06420  0.45600  Biso   1.000  H
  C213     1.0000 0.82270  0.10970  0.57330  Biso   1.000  C
  H122     1.0000 0.81570  0.15350  0.59830  Biso   1.000  H
  C214     1.0000 0.80370  0.02850  0.58510  Biso   1.000  C
  H123     1.0000 0.78630  0.01910  0.61880  Biso   1.000  H
  C215     1.0000 0.83910  0.97730  0.49900  Biso   1.000  C
  H124     1.0000 0.84450  0.93330  0.47340  Biso   1.000  H
  C216     1.0000 0.81110  0.96460  0.54660  Biso   1.000  C
  C217     1.0000 0.78980  0.88130  0.55870  Biso   1.000  C
  C218     1.0000 0.85280  0.31160  0.55000  Biso   1.000  C
  C219     1.0000 0.82220  0.37690  0.52210  Biso   1.000  C
  H125     1.0000 0.81390  0.37810  0.47920  Biso   1.000  H
  C220     1.0000 0.86620  0.31430  0.61310  Biso   1.000  C
  H126     1.0000 0.88790  0.27200  0.63390  Biso   1.000  H
  C221     1.0000 0.84810  0.37910  0.64670  Biso   1.000  C
  H127     1.0000 0.85740  0.37920  0.68950  Biso   1.000  H
  C222     1.0000 0.80290  0.44120  0.55460  Biso   1.000  C
  H128     1.0000 0.78080  0.48260  0.53340  Biso   1.000  H
  C223     1.0000 0.81600  0.44390  0.61630  Biso   1.000  C
  C224     1.0000 0.79240  0.51320  0.65030  Biso   1.000  C
  O57      1.0000 0.83420  0.28340  0.19060  Biso   1.000  O
  O58      1.0000 0.74810  0.26210  0.20470  Biso   1.000  O
  O59      1.0000 0.16516  0.28870  0.56530  Biso   1.000  O
  O60      1.0000 0.16138  0.16380  0.60670  Biso   1.000  O
  O61      1.0000 0.78300  0.86100  0.61210  Biso   1.000  O
  O62      1.0000 0.77710  0.82970  0.51380  Biso   1.000  O
  O63      1.0000 0.80020  0.50510  0.70950  Biso   1.000  O
  O64      1.0000 0.76720  0.57080  0.62300  Biso   1.000  O
