data_YIWBEN_clean
_audit_creation_date              2015-10-16
_audit_creation_method            'Materials Studio'
_symmetry_space_group_name_H-M    'P1'
_symmetry_Int_Tables_number       1
_symmetry_cell_setting            triclinic
loop_
_symmetry_equiv_pos_as_xyz
  x,y,z
_cell_length_a                    14.0500
_cell_length_b                    16.3488
_cell_length_c                    16.6020
_cell_angle_alpha                 105.8810
_cell_angle_beta                  90.0000
_cell_angle_gamma                 115.4480
loop_
_atom_site_label
_atom_site_type_symbol
_atom_site_fract_x
_atom_site_fract_y
_atom_site_fract_z
_atom_site_U_iso_or_equiv
_atom_site_adp_type
_atom_site_occupancy
Cd1    Cd    0.04594   0.55838   0.91134   0.01267  Uiso   1.00
Cd2    Cd    0.48756   0.44162   0.58866   0.01267  Uiso   1.00
Cd3    Cd    0.95406   0.44162   0.08866   0.01267  Uiso   1.00
Cd4    Cd    0.51244   0.55838   0.41134   0.01267  Uiso   1.00
H1     H     0.24910   0.33440   0.48720   0.01267  Uiso   1.00
H2     H     0.34520   0.54480   0.19970   0.01267  Uiso   1.00
H3     H     0.08530   0.33440   0.98720   0.01267  Uiso   1.00
H4     H     0.74860   0.66540   0.01000   0.01267  Uiso   1.00
H5     H     0.07880   0.75740   0.29200   0.01267  Uiso   1.00
H6     H     0.30810   0.97980   0.61650   0.01267  Uiso   1.00
H7     H     0.37230   0.22640   0.43480   0.01267  Uiso   1.00
H8     H     0.75850   0.31940   0.45120   0.01267  Uiso   1.00
H9     H     0.32140   0.24260   0.20800   0.01267  Uiso   1.00
H10    H     0.92120   0.24260   0.70800   0.01267  Uiso   1.00
H11    H     0.66070   0.86000   0.14770   0.01267  Uiso   1.00
H12    H     0.39110   0.27320   0.80580   0.01267  Uiso   1.00
H13    H     0.43910   0.68060   0.04880   0.01267  Uiso   1.00
H14    H     0.75050   0.11400   0.07110   0.01267  Uiso   1.00
H15    H     0.67170   0.97980   0.11650   0.01267  Uiso   1.00
H16    H     0.33930   0.14000   0.85230   0.01267  Uiso   1.00
H17    H     0.65480   0.45520   0.80030   0.01267  Uiso   1.00
H18    H     0.35780   0.46400   0.83610   0.01267  Uiso   1.00
H19    H     0.25140   0.33460   0.99000   0.01267  Uiso   1.00
H20    H     0.39550   0.66360   0.53210   0.01267  Uiso   1.00
H21    H     0.89380   0.53600   0.66390   0.01267  Uiso   1.00
H22    H     0.91680   0.66540   0.51000   0.01267  Uiso   1.00
H23    H     0.75090   0.66560   0.51280   0.01267  Uiso   1.00
H24    H     0.19930   0.86000   0.64770   0.01267  Uiso   1.00
H25    H     0.81040   0.54420   0.18010   0.01267  Uiso   1.00
H26    H     0.18530   0.54360   0.19540   0.01267  Uiso   1.00
H27    H     0.22510   0.07940   0.15640   0.01267  Uiso   1.00
H28    H     0.28450   0.06740   0.38770   0.01267  Uiso   1.00
H29    H     0.53040   0.50960   0.84650   0.01267  Uiso   1.00
H30    H     0.64220   0.53600   0.16390   0.01267  Uiso   1.00
H31    H     0.64170   0.45640   0.30460   0.01267  Uiso   1.00
H32    H     0.97920   0.50960   0.34650   0.01267  Uiso   1.00
H33    H     0.60890   0.72680   0.19420   0.01267  Uiso   1.00
H34    H     0.06030   0.63340   0.49480   0.01267  Uiso   1.00
H35    H     0.71550   0.93260   0.61230   0.01267  Uiso   1.00
H36    H     0.14570   0.92060   0.34360   0.01267  Uiso   1.00
H37    H     0.26620   0.45580   0.31990   0.01267  Uiso   1.00
H38    H     0.08320   0.33460   0.49000   0.01267  Uiso   1.00
H39    H     0.42690   0.36660   0.00520   0.01267  Uiso   1.00
H40    H     0.35830   0.54360   0.69540   0.01267  Uiso   1.00
H41    H     0.14590   0.77360   0.06520   0.01267  Uiso   1.00
H42    H     0.46960   0.49040   0.15350   0.01267  Uiso   1.00
H43    H     0.69190   0.02020   0.38350   0.01267  Uiso   1.00
H44    H     0.81470   0.45640   0.80460   0.01267  Uiso   1.00
H45    H     0.24950   0.88600   0.92890   0.01267  Uiso   1.00
H46    H     0.24150   0.68060   0.54880   0.01267  Uiso   1.00
H47    H     0.80040   0.45520   0.30030   0.01267  Uiso   1.00
H48    H     0.85410   0.22640   0.93480   0.01267  Uiso   1.00
H49    H     0.63650   0.88600   0.42890   0.01267  Uiso   1.00
H50    H     0.77490   0.92060   0.84360   0.01267  Uiso   1.00
H51    H     0.36350   0.11400   0.57110   0.01267  Uiso   1.00
H52    H     0.57310   0.63340   0.99480   0.01267  Uiso   1.00
H53    H     0.10620   0.46400   0.33610   0.01267  Uiso   1.00
H54    H     0.21710   0.93260   0.11230   0.01267  Uiso   1.00
H55    H     0.91470   0.66560   0.01280   0.01267  Uiso   1.00
H56    H     0.11790   0.72680   0.69420   0.01267  Uiso   1.00
H57    H     0.93970   0.36660   0.50520   0.01267  Uiso   1.00
H58    H     0.19960   0.54480   0.69970   0.01267  Uiso   1.00
H59    H     0.56090   0.31940   0.95120   0.01267  Uiso   1.00
H60    H     0.62770   0.77360   0.56520   0.01267  Uiso   1.00
H61    H     0.32830   0.02020   0.88350   0.01267  Uiso   1.00
H62    H     0.73380   0.54420   0.68010   0.01267  Uiso   1.00
H63    H     0.18960   0.45580   0.81990   0.01267  Uiso   1.00
H64    H     0.80070   0.14000   0.35230   0.01267  Uiso   1.00
H65    H     0.88210   0.27320   0.30580   0.01267  Uiso   1.00
H66    H     0.60450   0.33640   0.46790   0.01267  Uiso   1.00
H67    H     0.73190   0.33640   0.96790   0.01267  Uiso   1.00
H68    H     0.85430   0.07940   0.65640   0.01267  Uiso   1.00
H69    H     0.78290   0.06740   0.88770   0.01267  Uiso   1.00
H70    H     0.67860   0.75740   0.79200   0.01267  Uiso   1.00
H71    H     0.02080   0.49040   0.65350   0.01267  Uiso   1.00
H72    H     0.26810   0.66360   0.03210   0.01267  Uiso   1.00
C1     C     0.12290   0.44180   0.59770   0.01267  Uiso   1.00
C2     C     0.26070   0.49960   0.36670   0.01267  Uiso   1.00
C3     C     0.35970   0.11960   0.62810   0.01267  Uiso   1.00
C4     C     0.14850   0.89160   0.28760   0.01267  Uiso   1.00
C5     C     0.13100   0.70540   0.84490   0.01267  Uiso   1.00
C6     C     0.13840   0.37800   0.03180   0.01267  Uiso   1.00
C7     C     0.76040   0.62200   0.46820   0.01267  Uiso   1.00
C8     C     0.79310   0.49980   0.34510   0.01267  Uiso   1.00
C9     C     0.84300   0.42380   0.56180   0.01267  Uiso   1.00
C10    C     0.71320   0.37700   0.00820   0.01267  Uiso   1.00
C11    C     0.75520   0.36460   0.49790   0.01267  Uiso   1.00
C12    C     0.34180   0.50760   0.87530   0.01267  Uiso   1.00
C13    C     0.31110   0.04480   0.73550   0.01267  Uiso   1.00
C14    C     0.80330   0.50040   0.84730   0.01267  Uiso   1.00
C15    C     0.33620   0.62300   0.49180   0.01267  Uiso   1.00
C16    C     0.76110   0.50040   0.13330   0.01267  Uiso   1.00
C17    C     0.69710   0.50040   0.34730   0.01267  Uiso   1.00
C18    C     0.25690   0.10840   0.21240   0.01267  Uiso   1.00
C19    C     0.24480   0.63540   0.50210   0.01267  Uiso   1.00
C20    C     0.73370   0.04480   0.23550   0.01267  Uiso   1.00
C21    C     0.24010   0.88040   0.87190   0.01267  Uiso   1.00
C22    C     0.30290   0.49960   0.65270   0.01267  Uiso   1.00
C23    C     0.41920   0.57620   0.93820   0.01267  Uiso   1.00
C24    C     0.62330   0.78540   0.23260   0.01267  Uiso   1.00
C25    C     0.68730   0.79360   0.75550   0.01267  Uiso   1.00
C26    C     0.42650   0.44860   0.10310   0.01267  Uiso   1.00
C27    C     0.02210   0.44860   0.60310   0.01267  Uiso   1.00
C28    C     0.65810   0.86580   0.20490   0.01267  Uiso   1.00
C29    C     0.05510   0.63940   0.13820   0.01267  Uiso   1.00
C30    C     0.10630   0.79360   0.25550   0.01267  Uiso   1.00
C31    C     0.20770   0.86580   0.70490   0.01267  Uiso   1.00
C32    C     0.75070   0.94660   0.73350   0.01267  Uiso   1.00
C33    C     0.85150   0.10840   0.71240   0.01267  Uiso   1.00
C34    C     0.05890   0.58900   0.44530   0.01267  Uiso   1.00
C35    C     0.68890   0.95520   0.26450   0.01267  Uiso   1.00
C36    C     0.81850   0.20820   0.18650   0.01267  Uiso   1.00
C37    C     0.26630   0.95520   0.76450   0.01267  Uiso   1.00
C38    C     0.70830   0.89840   0.65020   0.01267  Uiso   1.00
C39    C     0.28680   0.62300   0.99180   0.01267  Uiso   1.00
C40    C     0.19590   0.94660   0.23350   0.01267  Uiso   1.00
C41    C     0.65610   0.80220   0.62190   0.01267  Uiso   1.00
C42    C     0.79230   0.13420   0.29510   0.01267  Uiso   1.00
C43    C     0.68110   0.55820   0.90230   0.01267  Uiso   1.00
C44    C     0.83420   0.49240   0.62470   0.01267  Uiso   1.00
C45    C     0.86150   0.62220   0.46700   0.01267  Uiso   1.00
C46    C     0.87710   0.55820   0.40230   0.01267  Uiso   1.00
C47    C     0.58080   0.42380   0.06180   0.01267  Uiso   1.00
C48    C     0.64030   0.88040   0.37190   0.01267  Uiso   1.00
C49    C     0.35710   0.25380   0.33020   0.01267  Uiso   1.00
C50    C     0.80410   0.05340   0.76650   0.01267  Uiso   1.00
C51    C     0.86160   0.62200   0.96820   0.01267  Uiso   1.00
C52    C     0.85390   0.19780   0.87810   0.01267  Uiso   1.00
C53    C     0.60940   0.36460   0.99790   0.01267  Uiso   1.00
C54    C     0.65820   0.49240   0.12470   0.01267  Uiso   1.00
C55    C     0.89370   0.20640   0.74450   0.01267  Uiso   1.00
C56    C     0.23960   0.37800   0.53180   0.01267  Uiso   1.00
C57    C     0.94110   0.41100   0.55470   0.01267  Uiso   1.00
C58    C     0.34190   0.13420   0.79510   0.01267  Uiso   1.00
C59    C     0.57440   0.70540   0.34490   0.01267  Uiso   1.00
C60    C     0.32350   0.03860   0.65520   0.01267  Uiso   1.00
C61    C     0.42560   0.29460   0.65510   0.01267  Uiso   1.00
C62    C     0.14610   0.80220   0.12190   0.01267  Uiso   1.00
C63    C     0.76070   0.62220   0.96700   0.01267  Uiso   1.00
C64    C     0.57350   0.55140   0.89690   0.01267  Uiso   1.00
C65    C     0.29170   0.10160   0.34980   0.01267  Uiso   1.00
C66    C     0.94490   0.36060   0.86180   0.01267  Uiso   1.00
C67    C     0.19670   0.49960   0.15270   0.01267  Uiso   1.00
C68    C     0.73930   0.50040   0.63330   0.01267  Uiso   1.00
C69    C     0.70670   0.49980   0.84510   0.01267  Uiso   1.00
C70    C     0.80990   0.10160   0.84980   0.01267  Uiso   1.00
C71    C     0.31270   0.20640   0.24450   0.01267  Uiso   1.00
C72    C     0.41570   0.36060   0.36180   0.01267  Uiso   1.00
C73    C     0.20690   0.50020   0.65490   0.01267  Uiso   1.00
C74    C     0.58430   0.63940   0.63820   0.01267  Uiso   1.00
C75    C     0.34390   0.19780   0.37810   0.01267  Uiso   1.00
C76    C     0.31890   0.44180   0.09770   0.01267  Uiso   1.00
C77    C     0.39060   0.63540   0.00210   0.01267  Uiso   1.00
C78    C     0.61030   0.79180   0.31350   0.01267  Uiso   1.00
C79    C     0.37670   0.21460   0.76740   0.01267  Uiso   1.00
C80    C     0.67650   0.96140   0.34480   0.01267  Uiso   1.00
C81    C     0.46990   0.41100   0.05470   0.01267  Uiso   1.00
C82    C     0.18150   0.79180   0.81350   0.01267  Uiso   1.00
C83    C     0.23930   0.37780   0.03300   0.01267  Uiso   1.00
C84    C     0.16580   0.50760   0.37530   0.01267  Uiso   1.00
C85    C     0.16210   0.78540   0.73260   0.01267  Uiso   1.00
C86    C     0.53010   0.58900   0.94530   0.01267  Uiso   1.00
C87    C     0.89670   0.25380   0.83020   0.01267  Uiso   1.00
C88    C     0.29330   0.50020   0.15490   0.01267  Uiso   1.00
C89    C     0.71510   0.03860   0.15520   0.01267  Uiso   1.00
C90    C     0.75990   0.11960   0.12810   0.01267  Uiso   1.00
C91    C     0.19010   0.89840   0.15020   0.01267  Uiso   1.00
C92    C     0.74310   0.89160   0.78760   0.01267  Uiso   1.00
C93    C     0.28490   0.96140   0.84480   0.01267  Uiso   1.00
C94    C     0.64290   0.74620   0.66980   0.01267  Uiso   1.00
C95    C     0.10330   0.74620   0.16980   0.01267  Uiso   1.00
C96    C     0.13850   0.37780   0.53300   0.01267  Uiso   1.00
C97    C     0.97790   0.55140   0.39690   0.01267  Uiso   1.00
C98    C     0.15700   0.57620   0.43820   0.01267  Uiso   1.00
C99    C     0.83790   0.21460   0.26740   0.01267  Uiso   1.00
C100   C     0.86900   0.29460   0.15510   0.01267  Uiso   1.00
C101   C     0.23890   0.49960   0.86670   0.01267  Uiso   1.00
C102   C     0.66380   0.37700   0.50820   0.01267  Uiso   1.00
C103   C     0.24930   0.05340   0.26650   0.01267  Uiso   1.00
C104   C     0.38970   0.20820   0.68650   0.01267  Uiso   1.00
N1     N     0.34530   0.55760   0.42880   0.01267  Uiso   1.00
N2     N     0.88320   0.56280   0.90910   0.01267  Uiso   1.00
N3     N     0.32040   0.43720   0.59090   0.01267  Uiso   1.00
N4     N     0.21230   0.55760   0.92880   0.01267  Uiso   1.00
N5     N     0.78770   0.44240   0.07120   0.01267  Uiso   1.00
N6     N     0.11680   0.43720   0.09090   0.01267  Uiso   1.00
N7     N     0.65470   0.44240   0.57120   0.01267  Uiso   1.00
N8     N     0.67960   0.56280   0.40910   0.01267  Uiso   1.00
O1     O     0.54050   0.62260   0.28670   0.01267  Uiso   1.00
O2     O     0.04866   0.59772   0.06030   0.01267  Uiso   1.00
O3     O     0.54906   0.59772   0.56030   0.01267  Uiso   1.00
O4     O     0.42400   0.28380   0.57910   0.01267  Uiso   1.00
O5     O     0.42554   0.40628   0.30930   0.01267  Uiso   1.00
O6     O     0.14020   0.71620   0.92090   0.01267  Uiso   1.00
O7     O     0.08210   0.62260   0.78670   0.01267  Uiso   1.00
O8     O     0.91790   0.37740   0.21330   0.01267  Uiso   1.00
O9     O     0.85980   0.28380   0.07910   0.01267  Uiso   1.00
O10    O     0.45950   0.37740   0.71330   0.01267  Uiso   1.00
O11    O     0.57600   0.71620   0.42090   0.01267  Uiso   1.00
O12    O     0.57446   0.59372   0.69070   0.01267  Uiso   1.00
O13    O     0.01926   0.59372   0.19070   0.01267  Uiso   1.00
O14    O     0.45094   0.40228   0.43970   0.01267  Uiso   1.00
O15    O     0.98074   0.40628   0.80930   0.01267  Uiso   1.00
O16    O     0.95134   0.40228   0.93970   0.01267  Uiso   1.00
