data_image0
_cell_length_a       11.115
_cell_length_b       13.287
_cell_length_c       8.664
_cell_angle_alpha    90
_cell_angle_beta     90
_cell_angle_gamma    90

_symmetry_space_group_name_H-M    "P 1"
_symmetry_int_tables_number       1

loop_
  _symmetry_equiv_pos_as_xyz
  'x, y, z'

loop_
  _atom_site_label
  _atom_site_occupancy
  _atom_site_fract_x
  _atom_site_fract_y
  _atom_site_fract_z
  _atom_site_thermal_displace_type
  _atom_site_B_iso_or_equiv
  _atom_site_type_symbol
  N1       1.0000 0.09600  0.95190  0.19100  Biso   1.000  N
  N2       1.0000 0.36100  0.05800  0.19000  Biso   1.000  N
  C1       1.0000 0.03500  0.93720  0.29300  Biso   1.000  C
  C2       1.0000 0.41300  0.08900  0.28900  Biso   1.000  C
  N3       1.0000 0.90400  0.45190  0.30900  Biso   1.000  N
  N4       1.0000 0.63900  0.55800  0.31000  Biso   1.000  N
  C3       1.0000 0.96500  0.43720  0.20700  Biso   1.000  C
  C4       1.0000 0.58700  0.58900  0.21100  Biso   1.000  C
  N5       1.0000 0.90400  0.45190  0.69100  Biso   1.000  N
  N6       1.0000 0.63900  0.55800  0.69000  Biso   1.000  N
  C5       1.0000 0.96500  0.43720  0.79300  Biso   1.000  C
  C6       1.0000 0.58700  0.58900  0.78900  Biso   1.000  C
  N7       1.0000 0.09600  0.95190  0.80900  Biso   1.000  N
  N8       1.0000 0.36100  0.05800  0.81000  Biso   1.000  N
  C7       1.0000 0.03500  0.93720  0.70700  Biso   1.000  C
  C8       1.0000 0.41300  0.08900  0.71100  Biso   1.000  C
  Cd1      1.0000 0.22899  0.00000  0.00000  Biso   1.000  Cd
  N9       1.0000 0.13900  0.16100  0.00000  Biso   1.000  N
  N10      1.0000 0.33300  0.84900  0.00000  Biso   1.000  N
  C9       1.0000 0.11700  0.24000  0.00000  Biso   1.000  C
  C10      1.0000 0.39000  0.77600  0.00000  Biso   1.000  C
  Cd2      1.0000 0.77101  0.50000  0.50000  Biso   1.000  Cd
  N11      1.0000 0.86100  0.66100  0.50000  Biso   1.000  N
  N12      1.0000 0.66700  0.34900  0.50000  Biso   1.000  N
  C11      1.0000 0.88300  0.74000  0.50000  Biso   1.000  C
  C12      1.0000 0.61000  0.27600  0.50000  Biso   1.000  C
  Cd3      1.0000 0.92600  0.90320  0.50000  Biso   1.000  Cd
  Cd4      1.0000 0.50670  0.13500  0.50000  Biso   1.000  Cd
  C13      1.0000 0.75700  0.98600  0.50000  Biso   1.000  C
  C14      1.0000 0.67200  0.03500  0.50000  Biso   1.000  C
  Cd5      1.0000 0.07400  0.40320  0.00000  Biso   1.000  Cd
  Cd6      1.0000 0.49330  0.63500  0.00000  Biso   1.000  Cd
  C15      1.0000 0.24300  0.48600  0.00000  Biso   1.000  C
  C16      1.0000 0.32800  0.53500  0.00000  Biso   1.000  C
