data_YIWLEV_clean
_audit_creation_date              2014-07-02
_audit_creation_method            'Materials Studio'
_symmetry_space_group_name_H-M    'P1'
_symmetry_Int_Tables_number       1
_symmetry_cell_setting            triclinic
loop_
_symmetry_equiv_pos_as_xyz
  x,y,z
_cell_length_a                    8.8490
_cell_length_b                    8.8490
_cell_length_c                    11.5530
_cell_angle_alpha                 67.4821
_cell_angle_beta                  67.4821
_cell_angle_gamma                 60.0000
loop_
_atom_site_label
_atom_site_type_symbol
_atom_site_fract_x
_atom_site_fract_y
_atom_site_fract_z
_atom_site_U_iso_or_equiv
_atom_site_adp_type
_atom_site_occupancy
Cd1    Cd    0.00000   0.00000   0.00000   0.01267  Uiso   1.00
Cd2    Cd    0.40985   0.40985   0.77045   0.01267  Uiso   1.00
Cd3    Cd    0.59015   0.59015   0.22955   0.01267  Uiso   1.00
C1     C     0.48013   0.48013   0.55961   0.01267  Uiso   1.00
C2     C     0.51987   0.51987   0.44039   0.01267  Uiso   1.00
C3     C     0.25160   0.66270   0.83410   0.01267  Uiso   1.00
C4     C     0.66270   0.25160   0.83410   0.01267  Uiso   1.00
C5     C     0.25160   0.25160   0.83410   0.01267  Uiso   1.00
C6     C     0.74840   0.74840   0.16590   0.01267  Uiso   1.00
C7     C     0.33730   0.74840   0.16590   0.01267  Uiso   1.00
C8     C     0.74840   0.33730   0.16590   0.01267  Uiso   1.00
N1     N     0.16880   0.78600   0.87640   0.01267  Uiso   1.00
N2     N     0.78600   0.16880   0.87640   0.01267  Uiso   1.00
N3     N     0.16880   0.16880   0.87640   0.01267  Uiso   1.00
N4     N     0.83120   0.83120   0.12360   0.01267  Uiso   1.00
N5     N     0.21400   0.83120   0.12360   0.01267  Uiso   1.00
N6     N     0.83120   0.21400   0.12360   0.01267  Uiso   1.00
