data_image0
_cell_length_a       8.778
_cell_length_b       8.778
_cell_length_c       30.64
_cell_angle_alpha    90
_cell_angle_beta     90
_cell_angle_gamma    120

_symmetry_space_group_name_H-M    "P 1"
_symmetry_int_tables_number       1

loop_
  _symmetry_equiv_pos_as_xyz
  'x, y, z'

loop_
  _atom_site_label
  _atom_site_occupancy
  _atom_site_fract_x
  _atom_site_fract_y
  _atom_site_fract_z
  _atom_site_thermal_displace_type
  _atom_site_B_iso_or_equiv
  _atom_site_type_symbol
  Cd1      1.0000 0.00000  0.00000  0.00000  Biso   1.000  Cd
  Cd2      1.0000 0.66667  0.33333  0.33333  Biso   1.000  Cd
  Cd3      1.0000 0.33333  0.66667  0.66667  Biso   1.000  Cd
  Cd4      1.0000 0.33333  0.66667  0.07489  Biso   1.000  Cd
  C1       1.0000 0.33333  0.66667  0.14870  Biso   1.000  C
  Cd5      1.0000 0.00000  0.00000  0.40822  Biso   1.000  Cd
  C2       1.0000 0.00000  0.00000  0.48203  Biso   1.000  C
  Cd6      1.0000 0.66667  0.33333  0.74156  Biso   1.000  Cd
  C3       1.0000 0.66667  0.33333  0.81537  Biso   1.000  C
  Cd7      1.0000 0.66667  0.33333  0.92511  Biso   1.000  Cd
  C4       1.0000 0.66667  0.33333  0.85130  Biso   1.000  C
  Cd8      1.0000 0.33333  0.66667  0.25844  Biso   1.000  Cd
  C5       1.0000 0.33333  0.66667  0.18463  Biso   1.000  C
  Cd9      1.0000 0.00000  0.00000  0.59178  Biso   1.000  Cd
  C6       1.0000 0.00000  0.00000  0.51797  Biso   1.000  C
  N1       1.0000 0.12710  0.87290  0.04360  Biso   1.000  N
  C7       1.0000 0.19340  0.80660  0.05500  Biso   1.000  C
  N2       1.0000 0.79377  0.20623  0.37693  Biso   1.000  N
  C8       1.0000 0.86007  0.13993  0.38833  Biso   1.000  C
  N3       1.0000 0.46043  0.53957  0.71027  Biso   1.000  N
  C9       1.0000 0.52673  0.47327  0.72167  Biso   1.000  C
  N4       1.0000 0.12710  0.25420  0.04360  Biso   1.000  N
  C10      1.0000 0.19340  0.38680  0.05500  Biso   1.000  C
  N5       1.0000 0.79377  0.58753  0.37693  Biso   1.000  N
  C11      1.0000 0.86007  0.72013  0.38833  Biso   1.000  C
  N6       1.0000 0.46043  0.92087  0.71027  Biso   1.000  N
  C12      1.0000 0.52673  0.05347  0.72167  Biso   1.000  C
  N7       1.0000 0.74580  0.87290  0.04360  Biso   1.000  N
  C13      1.0000 0.61320  0.80660  0.05500  Biso   1.000  C
  N8       1.0000 0.41247  0.20623  0.37693  Biso   1.000  N
  C14      1.0000 0.27987  0.13993  0.38833  Biso   1.000  C
  N9       1.0000 0.07913  0.53957  0.71027  Biso   1.000  N
  C15      1.0000 0.94653  0.47327  0.72167  Biso   1.000  C
  N10      1.0000 0.87290  0.12710  0.95640  Biso   1.000  N
  C16      1.0000 0.80660  0.19340  0.94500  Biso   1.000  C
  N11      1.0000 0.53957  0.46043  0.28973  Biso   1.000  N
  C17      1.0000 0.47327  0.52673  0.27833  Biso   1.000  C
  N12      1.0000 0.20623  0.79377  0.62307  Biso   1.000  N
  C18      1.0000 0.13993  0.86007  0.61167  Biso   1.000  C
  N13      1.0000 0.25420  0.12710  0.95640  Biso   1.000  N
  C19      1.0000 0.38680  0.19340  0.94500  Biso   1.000  C
  N14      1.0000 0.92087  0.46043  0.28973  Biso   1.000  N
  C20      1.0000 0.05347  0.52673  0.27833  Biso   1.000  C
  N15      1.0000 0.58753  0.79377  0.62307  Biso   1.000  N
  C21      1.0000 0.72013  0.86007  0.61167  Biso   1.000  C
  N16      1.0000 0.87290  0.74580  0.95640  Biso   1.000  N
  C22      1.0000 0.80660  0.61320  0.94500  Biso   1.000  C
  N17      1.0000 0.53957  0.07913  0.28973  Biso   1.000  N
  C23      1.0000 0.47327  0.94653  0.27833  Biso   1.000  C
  N18      1.0000 0.20623  0.41247  0.62307  Biso   1.000  N
  C24      1.0000 0.13993  0.27987  0.61167  Biso   1.000  C
