data_YIWMEW_clean
_audit_creation_date              2014-07-02
_audit_creation_method            'Materials Studio'
_symmetry_space_group_name_H-M    'P1'
_symmetry_Int_Tables_number       1
_symmetry_cell_setting            triclinic
loop_
_symmetry_equiv_pos_as_xyz
  x,y,z
_cell_length_a                    8.6940
_cell_length_b                    11.2120
_cell_length_c                    13.4830
_cell_angle_alpha                 90.0000
_cell_angle_beta                  90.0000
_cell_angle_gamma                 90.0000
loop_
_atom_site_label
_atom_site_type_symbol
_atom_site_fract_x
_atom_site_fract_y
_atom_site_fract_z
_atom_site_U_iso_or_equiv
_atom_site_adp_type
_atom_site_occupancy
Cd1    Cd    0.00000   0.76624   0.00000   0.01267  Uiso   1.00
Cd2    Cd    0.50000   0.23376   0.50000   0.01267  Uiso   1.00
Cd3    Cd    0.50000   0.06788   0.10077   0.01267  Uiso   1.00
Cd4    Cd    0.50000   0.48572   0.86754   0.01267  Uiso   1.00
Cd5    Cd    0.00000   0.93212   0.60077   0.01267  Uiso   1.00
Cd6    Cd    0.00000   0.51428   0.36754   0.01267  Uiso   1.00
C1     C     0.70730   0.96080   0.06120   0.01267  Uiso   1.00
C2     C     0.70670   0.58000   0.91830   0.01267  Uiso   1.00
C3     C     0.79270   0.03920   0.56120   0.01267  Uiso   1.00
C4     C     0.79330   0.42000   0.41830   0.01267  Uiso   1.00
C5     C     0.20730   0.03920   0.56120   0.01267  Uiso   1.00
C6     C     0.20670   0.42000   0.41830   0.01267  Uiso   1.00
C7     C     0.29270   0.96080   0.06120   0.01267  Uiso   1.00
C8     C     0.29330   0.58000   0.91830   0.01267  Uiso   1.00
C9     C     0.00000   0.87650   0.75800   0.01267  Uiso   1.00
C10    C     0.00000   0.62350   0.23090   0.01267  Uiso   1.00
C11    C     0.50000   0.12350   0.25800   0.01267  Uiso   1.00
C12    C     0.50000   0.37650   0.73090   0.01267  Uiso   1.00
C13    C     0.50000   0.23910   0.01730   0.01267  Uiso   1.00
C14    C     0.50000   0.32720   0.97570   0.01267  Uiso   1.00
C15    C     0.00000   0.76090   0.51730   0.01267  Uiso   1.00
C16    C     0.00000   0.67280   0.47570   0.01267  Uiso   1.00
N1     N     0.80770   0.89920   0.04190   0.01267  Uiso   1.00
N2     N     0.80750   0.63210   0.94930   0.01267  Uiso   1.00
N3     N     0.69230   0.10080   0.54190   0.01267  Uiso   1.00
N4     N     0.69250   0.36790   0.44930   0.01267  Uiso   1.00
N5     N     0.30770   0.10080   0.54190   0.01267  Uiso   1.00
N6     N     0.30750   0.36790   0.44930   0.01267  Uiso   1.00
N7     N     0.19230   0.89920   0.04190   0.01267  Uiso   1.00
N8     N     0.19250   0.63210   0.94930   0.01267  Uiso   1.00
N9     N     0.00000   0.84210   0.83830   0.01267  Uiso   1.00
N10    N     0.00000   0.67750   0.15830   0.01267  Uiso   1.00
N11    N     0.50000   0.15790   0.33830   0.01267  Uiso   1.00
N12    N     0.50000   0.32250   0.65830   0.01267  Uiso   1.00
