data_image0
_cell_length_a       21.628
_cell_length_b       13.998
_cell_length_c       8.945
_cell_angle_alpha    90
_cell_angle_beta     90
_cell_angle_gamma    90

_symmetry_space_group_name_H-M    "P 1"
_symmetry_int_tables_number       1

loop_
  _symmetry_equiv_pos_as_xyz
  'x, y, z'

loop_
  _atom_site_label
  _atom_site_occupancy
  _atom_site_fract_x
  _atom_site_fract_y
  _atom_site_fract_z
  _atom_site_thermal_displace_type
  _atom_site_B_iso_or_equiv
  _atom_site_type_symbol
  N1       1.0000 0.06320  0.28460  0.05300  Biso   1.000  N
  N2       1.0000 0.20180  0.35810  0.06280  Biso   1.000  N
  C1       1.0000 0.03260  0.29460  0.95260  Biso   1.000  C
  C2       1.0000 0.22520  0.38710  0.95680  Biso   1.000  C
  N3       1.0000 0.43680  0.78460  0.94700  Biso   1.000  N
  N4       1.0000 0.29820  0.85810  0.93720  Biso   1.000  N
  C3       1.0000 0.46740  0.79460  0.04740  Biso   1.000  C
  C4       1.0000 0.27480  0.88710  0.04320  Biso   1.000  C
  N5       1.0000 0.93680  0.71540  0.55300  Biso   1.000  N
  N6       1.0000 0.79820  0.64190  0.56280  Biso   1.000  N
  C5       1.0000 0.96740  0.70540  0.45260  Biso   1.000  C
  C6       1.0000 0.77480  0.61290  0.45680  Biso   1.000  C
  N7       1.0000 0.56320  0.21540  0.44700  Biso   1.000  N
  N8       1.0000 0.70180  0.14190  0.43720  Biso   1.000  N
  C7       1.0000 0.53260  0.20540  0.54740  Biso   1.000  C
  C8       1.0000 0.72520  0.11290  0.54320  Biso   1.000  C
  N9       1.0000 0.93680  0.71540  0.94700  Biso   1.000  N
  N10      1.0000 0.79820  0.64190  0.93720  Biso   1.000  N
  C9       1.0000 0.96740  0.70540  0.04740  Biso   1.000  C
  C10      1.0000 0.77480  0.61290  0.04320  Biso   1.000  C
  N11      1.0000 0.56320  0.21540  0.05300  Biso   1.000  N
  N12      1.0000 0.70180  0.14190  0.06280  Biso   1.000  N
  C11      1.0000 0.53260  0.20540  0.95260  Biso   1.000  C
  C12      1.0000 0.72520  0.11290  0.95680  Biso   1.000  C
  N13      1.0000 0.06320  0.28460  0.44700  Biso   1.000  N
  N14      1.0000 0.20180  0.35810  0.43720  Biso   1.000  N
  C13      1.0000 0.03260  0.29460  0.54740  Biso   1.000  C
  C14      1.0000 0.22520  0.38710  0.54320  Biso   1.000  C
  N15      1.0000 0.43680  0.78460  0.55300  Biso   1.000  N
  N16      1.0000 0.29820  0.85810  0.56280  Biso   1.000  N
  C15      1.0000 0.46740  0.79460  0.45260  Biso   1.000  C
  C16      1.0000 0.27480  0.88710  0.45680  Biso   1.000  C
  Cd1      1.0000 0.13000  0.31264  0.25000  Biso   1.000  Cd
  N17      1.0000 0.09490  0.46910  0.25000  Biso   1.000  N
  N18      1.0000 0.16780  0.15420  0.25000  Biso   1.000  N
  C17      1.0000 0.06950  0.53850  0.25000  Biso   1.000  C
  C18      1.0000 0.18770  0.07850  0.25000  Biso   1.000  C
  Cd2      1.0000 0.37000  0.81264  0.75000  Biso   1.000  Cd
  N19      1.0000 0.40510  0.96910  0.75000  Biso   1.000  N
  N20      1.0000 0.33220  0.65420  0.75000  Biso   1.000  N
  C19      1.0000 0.43050  0.03850  0.75000  Biso   1.000  C
  C20      1.0000 0.31230  0.57850  0.75000  Biso   1.000  C
  Cd3      1.0000 0.87000  0.68736  0.75000  Biso   1.000  Cd
  N21      1.0000 0.90510  0.53090  0.75000  Biso   1.000  N
  N22      1.0000 0.83220  0.84580  0.75000  Biso   1.000  N
  C21      1.0000 0.93050  0.46150  0.75000  Biso   1.000  C
  C22      1.0000 0.81230  0.92150  0.75000  Biso   1.000  C
  Cd4      1.0000 0.63000  0.18736  0.25000  Biso   1.000  Cd
  N23      1.0000 0.59490  0.03090  0.25000  Biso   1.000  N
  N24      1.0000 0.66780  0.34580  0.25000  Biso   1.000  N
  C23      1.0000 0.56950  0.96150  0.25000  Biso   1.000  C
  C24      1.0000 0.68770  0.42150  0.25000  Biso   1.000  C
  Cd5      1.0000 0.27139  0.43390  0.75000  Biso   1.000  Cd
  Cd6      1.0000 0.97510  0.31989  0.75000  Biso   1.000  Cd
  C25      1.0000 0.89430  0.21910  0.75000  Biso   1.000  C
  C26      1.0000 0.35310  0.33210  0.75000  Biso   1.000  C
  Cd7      1.0000 0.22861  0.93390  0.25000  Biso   1.000  Cd
  Cd8      1.0000 0.52490  0.81989  0.25000  Biso   1.000  Cd
  C27      1.0000 0.60570  0.71910  0.25000  Biso   1.000  C
  C28      1.0000 0.14690  0.83210  0.25000  Biso   1.000  C
  Cd9      1.0000 0.72861  0.56610  0.25000  Biso   1.000  Cd
  Cd10     1.0000 0.02490  0.68011  0.25000  Biso   1.000  Cd
  C29      1.0000 0.10570  0.78090  0.25000  Biso   1.000  C
  C30      1.0000 0.64690  0.66790  0.25000  Biso   1.000  C
  Cd11     1.0000 0.77139  0.06610  0.75000  Biso   1.000  Cd
  Cd12     1.0000 0.47510  0.18011  0.75000  Biso   1.000  Cd
  C31      1.0000 0.39430  0.28090  0.75000  Biso   1.000  C
  C32      1.0000 0.85310  0.16790  0.75000  Biso   1.000  C
