data_image0
_cell_length_a       22.33
_cell_length_b       13.297
_cell_length_c       8.846
_cell_angle_alpha    90
_cell_angle_beta     90
_cell_angle_gamma    90

_symmetry_space_group_name_H-M    "P 1"
_symmetry_int_tables_number       1

loop_
  _symmetry_equiv_pos_as_xyz
  'x, y, z'

loop_
  _atom_site_label
  _atom_site_occupancy
  _atom_site_fract_x
  _atom_site_fract_y
  _atom_site_fract_z
  _atom_site_thermal_displace_type
  _atom_site_B_iso_or_equiv
  _atom_site_type_symbol
  N1       1.0000 0.07760  0.30230  0.06170  Biso   1.000  N
  N2       1.0000 0.21450  0.37830  0.06140  Biso   1.000  N
  C1       1.0000 0.04830  0.30000  0.95790  Biso   1.000  C
  C2       1.0000 0.24190  0.39310  0.95760  Biso   1.000  C
  N3       1.0000 0.42240  0.80230  0.93830  Biso   1.000  N
  N4       1.0000 0.28550  0.87830  0.93860  Biso   1.000  N
  C3       1.0000 0.45170  0.80000  0.04210  Biso   1.000  C
  C4       1.0000 0.25810  0.89310  0.04240  Biso   1.000  C
  N5       1.0000 0.92240  0.69770  0.56170  Biso   1.000  N
  N6       1.0000 0.78550  0.62170  0.56140  Biso   1.000  N
  C5       1.0000 0.95170  0.70000  0.45790  Biso   1.000  C
  C6       1.0000 0.75810  0.60690  0.45760  Biso   1.000  C
  N7       1.0000 0.57760  0.19770  0.43830  Biso   1.000  N
  N8       1.0000 0.71450  0.12170  0.43860  Biso   1.000  N
  C7       1.0000 0.54830  0.20000  0.54210  Biso   1.000  C
  C8       1.0000 0.74190  0.10690  0.54240  Biso   1.000  C
  N9       1.0000 0.92240  0.69770  0.93830  Biso   1.000  N
  N10      1.0000 0.78550  0.62170  0.93860  Biso   1.000  N
  C9       1.0000 0.95170  0.70000  0.04210  Biso   1.000  C
  C10      1.0000 0.75810  0.60690  0.04240  Biso   1.000  C
  N11      1.0000 0.57760  0.19770  0.06170  Biso   1.000  N
  N12      1.0000 0.71450  0.12170  0.06140  Biso   1.000  N
  C11      1.0000 0.54830  0.20000  0.95790  Biso   1.000  C
  C12      1.0000 0.74190  0.10690  0.95760  Biso   1.000  C
  N13      1.0000 0.07760  0.30230  0.43830  Biso   1.000  N
  N14      1.0000 0.21450  0.37830  0.43860  Biso   1.000  N
  C13      1.0000 0.04830  0.30000  0.54210  Biso   1.000  C
  C14      1.0000 0.24190  0.39310  0.54240  Biso   1.000  C
  N15      1.0000 0.42240  0.80230  0.56170  Biso   1.000  N
  N16      1.0000 0.28550  0.87830  0.56140  Biso   1.000  N
  C15      1.0000 0.45170  0.80000  0.45790  Biso   1.000  C
  C16      1.0000 0.25810  0.89310  0.45760  Biso   1.000  C
  Cd1      1.0000 0.14605  0.34057  0.25000  Biso   1.000  Cd
  N17      1.0000 0.09940  0.49920  0.25000  Biso   1.000  N
  N18      1.0000 0.17890  0.17570  0.25000  Biso   1.000  N
  C17      1.0000 0.06640  0.56020  0.25000  Biso   1.000  C
  C18      1.0000 0.18770  0.09340  0.25000  Biso   1.000  C
  Cd2      1.0000 0.35395  0.84057  0.75000  Biso   1.000  Cd
  N19      1.0000 0.40060  0.99920  0.75000  Biso   1.000  N
  N20      1.0000 0.32110  0.67570  0.75000  Biso   1.000  N
  C19      1.0000 0.43360  0.06020  0.75000  Biso   1.000  C
  C20      1.0000 0.31230  0.59340  0.75000  Biso   1.000  C
  Cd3      1.0000 0.85395  0.65943  0.75000  Biso   1.000  Cd
  N21      1.0000 0.90060  0.50080  0.75000  Biso   1.000  N
  N22      1.0000 0.82110  0.82430  0.75000  Biso   1.000  N
  C21      1.0000 0.93360  0.43980  0.75000  Biso   1.000  C
  C22      1.0000 0.81230  0.90660  0.75000  Biso   1.000  C
  Cd4      1.0000 0.64605  0.15943  0.25000  Biso   1.000  Cd
  N23      1.0000 0.59940  0.00080  0.25000  Biso   1.000  N
  N24      1.0000 0.67890  0.32430  0.25000  Biso   1.000  N
  C23      1.0000 0.56640  0.93980  0.25000  Biso   1.000  C
  C24      1.0000 0.68770  0.40660  0.25000  Biso   1.000  C
  Cd5      1.0000 0.29318  0.42918  0.75000  Biso   1.000  Cd
  Cd6      1.0000 0.99563  0.30661  0.75000  Biso   1.000  Cd
  C25      1.0000 0.92410  0.19250  0.75000  Biso   1.000  C
  C26      1.0000 0.37960  0.34940  0.75000  Biso   1.000  C
  Cd7      1.0000 0.20682  0.92918  0.25000  Biso   1.000  Cd
  Cd8      1.0000 0.50437  0.80661  0.25000  Biso   1.000  Cd
  C27      1.0000 0.57590  0.69250  0.25000  Biso   1.000  C
  C28      1.0000 0.12040  0.84940  0.25000  Biso   1.000  C
  Cd9      1.0000 0.70682  0.57082  0.25000  Biso   1.000  Cd
  Cd10     1.0000 0.00437  0.69339  0.25000  Biso   1.000  Cd
  C29      1.0000 0.07590  0.80750  0.25000  Biso   1.000  C
  C30      1.0000 0.62040  0.65060  0.25000  Biso   1.000  C
  Cd11     1.0000 0.79318  0.07082  0.75000  Biso   1.000  Cd
  Cd12     1.0000 0.49563  0.19339  0.75000  Biso   1.000  Cd
  C31      1.0000 0.42410  0.30750  0.75000  Biso   1.000  C
  C32      1.0000 0.87960  0.15060  0.75000  Biso   1.000  C
