data_image0
_cell_length_a       8.787
_cell_length_b       8.787
_cell_length_c       20.97
_cell_angle_alpha    90
_cell_angle_beta     90
_cell_angle_gamma    120

_symmetry_space_group_name_H-M    "P 1"
_symmetry_int_tables_number       1

loop_
  _symmetry_equiv_pos_as_xyz
  'x, y, z'

loop_
  _atom_site_label
  _atom_site_occupancy
  _atom_site_fract_x
  _atom_site_fract_y
  _atom_site_fract_z
  _atom_site_thermal_displace_type
  _atom_site_B_iso_or_equiv
  _atom_site_type_symbol
  Cd1      1.0000 0.00000  0.00000  0.00000  Biso   1.000  Cd
  Cd2      1.0000 0.00000  0.00000  0.50000  Biso   1.000  Cd
  Cd3      1.0000 0.33333  0.66667  0.11610  Biso   1.000  Cd
  C1       1.0000 0.33333  0.66667  0.22230  Biso   1.000  C
  Cd4      1.0000 0.66667  0.33333  0.61610  Biso   1.000  Cd
  C2       1.0000 0.66667  0.33333  0.72230  Biso   1.000  C
  Cd5      1.0000 0.66667  0.33333  0.88390  Biso   1.000  Cd
  C3       1.0000 0.66667  0.33333  0.77770  Biso   1.000  C
  Cd6      1.0000 0.33333  0.66667  0.38390  Biso   1.000  Cd
  C4       1.0000 0.33333  0.66667  0.27770  Biso   1.000  C
  N1       1.0000 0.12840  0.25680  0.06040  Biso   1.000  N
  C5       1.0000 0.19590  0.39180  0.08100  Biso   1.000  C
  N2       1.0000 0.74320  0.87160  0.06040  Biso   1.000  N
  C6       1.0000 0.60820  0.80410  0.08100  Biso   1.000  C
  N3       1.0000 0.12840  0.87160  0.06040  Biso   1.000  N
  C7       1.0000 0.19590  0.80410  0.08100  Biso   1.000  C
  N4       1.0000 0.87160  0.74320  0.56040  Biso   1.000  N
  C8       1.0000 0.80410  0.60820  0.58100  Biso   1.000  C
  N5       1.0000 0.25680  0.12840  0.56040  Biso   1.000  N
  C9       1.0000 0.39180  0.19590  0.58100  Biso   1.000  C
  N6       1.0000 0.87160  0.12840  0.56040  Biso   1.000  N
  C10      1.0000 0.80410  0.19590  0.58100  Biso   1.000  C
  N7       1.0000 0.25680  0.12840  0.93960  Biso   1.000  N
  C11      1.0000 0.39180  0.19590  0.91900  Biso   1.000  C
  N8       1.0000 0.87160  0.74320  0.93960  Biso   1.000  N
  C12      1.0000 0.80410  0.60820  0.91900  Biso   1.000  C
  N9       1.0000 0.87160  0.12840  0.93960  Biso   1.000  N
  C13      1.0000 0.80410  0.19590  0.91900  Biso   1.000  C
  N10      1.0000 0.74320  0.87160  0.43960  Biso   1.000  N
  C14      1.0000 0.60820  0.80410  0.41900  Biso   1.000  C
  N11      1.0000 0.12840  0.25680  0.43960  Biso   1.000  N
  C15      1.0000 0.19590  0.39180  0.41900  Biso   1.000  C
  N12      1.0000 0.12840  0.87160  0.43960  Biso   1.000  N
  C16      1.0000 0.19590  0.80410  0.41900  Biso   1.000  C
