data_image0
_cell_length_a       22.256
_cell_length_b       13.489
_cell_length_c       8.868
_cell_angle_alpha    90
_cell_angle_beta     90
_cell_angle_gamma    90

_symmetry_space_group_name_H-M    "P 1"
_symmetry_int_tables_number       1

loop_
  _symmetry_equiv_pos_as_xyz
  'x, y, z'

loop_
  _atom_site_label
  _atom_site_occupancy
  _atom_site_fract_x
  _atom_site_fract_y
  _atom_site_fract_z
  _atom_site_thermal_displace_type
  _atom_site_B_iso_or_equiv
  _atom_site_type_symbol
  N1       1.0000 0.07220  0.29710  0.06300  Biso   1.000  N
  N2       1.0000 0.20940  0.37960  0.06100  Biso   1.000  N
  C1       1.0000 0.04430  0.29800  0.95800  Biso   1.000  C
  C2       1.0000 0.23710  0.39920  0.95700  Biso   1.000  C
  N3       1.0000 0.42780  0.79710  0.93700  Biso   1.000  N
  N4       1.0000 0.29060  0.87960  0.93900  Biso   1.000  N
  C3       1.0000 0.45570  0.79800  0.04200  Biso   1.000  C
  C4       1.0000 0.26290  0.89920  0.04300  Biso   1.000  C
  N5       1.0000 0.92780  0.70290  0.56300  Biso   1.000  N
  N6       1.0000 0.79060  0.62040  0.56100  Biso   1.000  N
  C5       1.0000 0.95570  0.70200  0.45800  Biso   1.000  C
  C6       1.0000 0.76290  0.60080  0.45700  Biso   1.000  C
  N7       1.0000 0.57220  0.20290  0.43700  Biso   1.000  N
  N8       1.0000 0.70940  0.12040  0.43900  Biso   1.000  N
  C7       1.0000 0.54430  0.20200  0.54200  Biso   1.000  C
  C8       1.0000 0.73710  0.10080  0.54300  Biso   1.000  C
  N9       1.0000 0.92780  0.70290  0.93700  Biso   1.000  N
  N10      1.0000 0.79060  0.62040  0.93900  Biso   1.000  N
  C9       1.0000 0.95570  0.70200  0.04200  Biso   1.000  C
  C10      1.0000 0.76290  0.60080  0.04300  Biso   1.000  C
  N11      1.0000 0.57220  0.20290  0.06300  Biso   1.000  N
  N12      1.0000 0.70940  0.12040  0.06100  Biso   1.000  N
  C11      1.0000 0.54430  0.20200  0.95800  Biso   1.000  C
  C12      1.0000 0.73710  0.10080  0.95700  Biso   1.000  C
  N13      1.0000 0.07220  0.29710  0.43700  Biso   1.000  N
  N14      1.0000 0.20940  0.37960  0.43900  Biso   1.000  N
  C13      1.0000 0.04430  0.29800  0.54200  Biso   1.000  C
  C14      1.0000 0.23710  0.39920  0.54300  Biso   1.000  C
  N15      1.0000 0.42780  0.79710  0.56300  Biso   1.000  N
  N16      1.0000 0.29060  0.87960  0.56100  Biso   1.000  N
  C15      1.0000 0.45570  0.79800  0.45800  Biso   1.000  C
  C16      1.0000 0.26290  0.89920  0.45700  Biso   1.000  C
  Cd1      1.0000 0.14225  0.33690  0.25000  Biso   1.000  Cd
  N17      1.0000 0.09790  0.49400  0.25000  Biso   1.000  N
  N18      1.0000 0.17740  0.17500  0.25000  Biso   1.000  N
  C17      1.0000 0.06700  0.55600  0.25000  Biso   1.000  C
  C18      1.0000 0.18970  0.09500  0.25000  Biso   1.000  C
  Cd2      1.0000 0.35775  0.83690  0.75000  Biso   1.000  Cd
  N19      1.0000 0.40210  0.99400  0.75000  Biso   1.000  N
  N20      1.0000 0.32260  0.67500  0.75000  Biso   1.000  N
  C19      1.0000 0.43300  0.05600  0.75000  Biso   1.000  C
  C20      1.0000 0.31030  0.59500  0.75000  Biso   1.000  C
  Cd3      1.0000 0.85775  0.66310  0.75000  Biso   1.000  Cd
  N21      1.0000 0.90210  0.50600  0.75000  Biso   1.000  N
  N22      1.0000 0.82260  0.82500  0.75000  Biso   1.000  N
  C21      1.0000 0.93300  0.44400  0.75000  Biso   1.000  C
  C22      1.0000 0.81030  0.90500  0.75000  Biso   1.000  C
  Cd4      1.0000 0.64225  0.16310  0.25000  Biso   1.000  Cd
  N23      1.0000 0.59790  0.00600  0.25000  Biso   1.000  N
  N24      1.0000 0.67740  0.32500  0.25000  Biso   1.000  N
  C23      1.0000 0.56700  0.94400  0.25000  Biso   1.000  C
  C24      1.0000 0.68970  0.40500  0.25000  Biso   1.000  C
  Cd5      1.0000 0.28819  0.43381  0.75000  Biso   1.000  Cd
  Cd6      1.0000 0.99165  0.30630  0.75000  Biso   1.000  Cd
  C25      1.0000 0.91290  0.19600  0.75000  Biso   1.000  C
  C26      1.0000 0.37020  0.34800  0.75000  Biso   1.000  C
  Cd7      1.0000 0.21181  0.93381  0.25000  Biso   1.000  Cd
  Cd8      1.0000 0.50835  0.80630  0.25000  Biso   1.000  Cd
  C27      1.0000 0.58710  0.69600  0.25000  Biso   1.000  C
  C28      1.0000 0.12980  0.84800  0.25000  Biso   1.000  C
  Cd9      1.0000 0.71181  0.56619  0.25000  Biso   1.000  Cd
  Cd10     1.0000 0.00835  0.69370  0.25000  Biso   1.000  Cd
  C29      1.0000 0.08710  0.80400  0.25000  Biso   1.000  C
  C30      1.0000 0.62980  0.65200  0.25000  Biso   1.000  C
  Cd11     1.0000 0.78819  0.06619  0.75000  Biso   1.000  Cd
  Cd12     1.0000 0.49165  0.19370  0.75000  Biso   1.000  Cd
  C31      1.0000 0.41290  0.30400  0.75000  Biso   1.000  C
  C32      1.0000 0.87020  0.15200  0.75000  Biso   1.000  C
