data_image0
_cell_length_a       10.817
_cell_length_b       27.553
_cell_length_c       9.048
_cell_angle_alpha    90
_cell_angle_beta     90
_cell_angle_gamma    90

_symmetry_space_group_name_H-M    "P 1"
_symmetry_int_tables_number       1

loop_
  _symmetry_equiv_pos_as_xyz
  'x, y, z'

loop_
  _atom_site_label
  _atom_site_occupancy
  _atom_site_fract_x
  _atom_site_fract_y
  _atom_site_fract_z
  _atom_site_thermal_displace_type
  _atom_site_B_iso_or_equiv
  _atom_site_type_symbol
  N1       1.0000 0.21000  0.97800  0.19900  Biso   1.000  N
  N2       1.0000 0.47500  0.02400  0.19700  Biso   1.000  N
  N3       1.0000 0.00600  0.21600  0.31900  Biso   1.000  N
  N4       1.0000 0.72500  0.26200  0.34200  Biso   1.000  N
  C1       1.0000 0.16000  0.96400  0.29900  Biso   1.000  C
  C2       1.0000 0.52600  0.03400  0.29800  Biso   1.000  C
  C3       1.0000 0.06000  0.21100  0.21100  Biso   1.000  C
  C4       1.0000 0.30900  0.77200  0.22800  Biso   1.000  C
  N5       1.0000 0.79000  0.47800  0.80100  Biso   1.000  N
  N6       1.0000 0.52500  0.52400  0.80300  Biso   1.000  N
  N7       1.0000 0.99400  0.71600  0.68100  Biso   1.000  N
  N8       1.0000 0.27500  0.76200  0.65800  Biso   1.000  N
  C5       1.0000 0.84000  0.46400  0.70100  Biso   1.000  C
  C6       1.0000 0.47400  0.53400  0.70200  Biso   1.000  C
  C7       1.0000 0.94000  0.71100  0.78900  Biso   1.000  C
  C8       1.0000 0.69100  0.27200  0.77200  Biso   1.000  C
  N9       1.0000 0.79000  0.47800  0.19900  Biso   1.000  N
  N10      1.0000 0.52500  0.52400  0.19700  Biso   1.000  N
  N11      1.0000 0.99400  0.71600  0.31900  Biso   1.000  N
  N12      1.0000 0.27500  0.76200  0.34200  Biso   1.000  N
  C9       1.0000 0.84000  0.46400  0.29900  Biso   1.000  C
  C10      1.0000 0.47400  0.53400  0.29800  Biso   1.000  C
  C11      1.0000 0.94000  0.71100  0.21100  Biso   1.000  C
  C12      1.0000 0.69100  0.27200  0.22800  Biso   1.000  C
  N13      1.0000 0.21000  0.97800  0.80100  Biso   1.000  N
  N14      1.0000 0.47500  0.02400  0.80300  Biso   1.000  N
  N15      1.0000 0.00600  0.21600  0.68100  Biso   1.000  N
  N16      1.0000 0.72500  0.26200  0.65800  Biso   1.000  N
  C13      1.0000 0.16000  0.96400  0.70100  Biso   1.000  C
  C14      1.0000 0.52600  0.03400  0.70200  Biso   1.000  C
  C15      1.0000 0.06000  0.21100  0.78900  Biso   1.000  C
  C16      1.0000 0.30900  0.77200  0.77200  Biso   1.000  C
  Cd1      1.0000 0.34050  0.00000  0.00000  Biso   1.000  Cd
  Cd2      1.0000 0.16210  0.19410  0.00000  Biso   1.000  Cd
  Cd3      1.0000 0.39670  0.80110  0.00000  Biso   1.000  Cd
  N17      1.0000 0.25800  0.08000  0.00000  Biso   1.000  N
  N18      1.0000 0.41000  0.92000  0.00000  Biso   1.000  N
  C17      1.0000 0.23200  0.11800  0.00000  Biso   1.000  C
  C18      1.0000 0.42600  0.88100  0.00000  Biso   1.000  C
  C19      1.0000 0.58100  0.76100  0.00000  Biso   1.000  C
  C20      1.0000 0.32700  0.24200  0.00000  Biso   1.000  C
  Cd4      1.0000 0.65950  0.50000  0.00000  Biso   1.000  Cd
  Cd5      1.0000 0.83790  0.69410  0.00000  Biso   1.000  Cd
  Cd6      1.0000 0.60330  0.30110  0.00000  Biso   1.000  Cd
  N19      1.0000 0.74200  0.58000  0.00000  Biso   1.000  N
  N20      1.0000 0.59000  0.42000  0.00000  Biso   1.000  N
  C21      1.0000 0.76800  0.61800  0.00000  Biso   1.000  C
  C22      1.0000 0.57400  0.38100  0.00000  Biso   1.000  C
  C23      1.0000 0.41900  0.26100  0.00000  Biso   1.000  C
  C24      1.0000 0.67300  0.74200  0.00000  Biso   1.000  C
  Cd7      1.0000 0.86470  0.23700  0.50000  Biso   1.000  Cd
  Cd8      1.0000 0.63190  0.05160  0.50000  Biso   1.000  Cd
  Cd9      1.0000 0.06670  0.93970  0.50000  Biso   1.000  Cd
  N21      1.0000 0.78200  0.15900  0.50000  Biso   1.000  N
  N22      1.0000 0.94000  0.31700  0.50000  Biso   1.000  N
  C25      1.0000 0.73300  0.12300  0.50000  Biso   1.000  C
  C26      1.0000 0.05800  0.85800  0.50000  Biso   1.000  C
  C27      1.0000 0.79100  0.99800  0.50000  Biso   1.000  C
  C28      1.0000 0.88000  0.97800  0.50000  Biso   1.000  C
  Cd10     1.0000 0.13530  0.73700  0.50000  Biso   1.000  Cd
  Cd11     1.0000 0.36810  0.55160  0.50000  Biso   1.000  Cd
  Cd12     1.0000 0.93330  0.43970  0.50000  Biso   1.000  Cd
  N23      1.0000 0.21800  0.65900  0.50000  Biso   1.000  N
  N24      1.0000 0.06000  0.81700  0.50000  Biso   1.000  N
  C29      1.0000 0.26700  0.62300  0.50000  Biso   1.000  C
  C30      1.0000 0.94200  0.35800  0.50000  Biso   1.000  C
  C31      1.0000 0.20900  0.49800  0.50000  Biso   1.000  C
  C32      1.0000 0.12000  0.47800  0.50000  Biso   1.000  C
