data_image0
_cell_length_a       8.814
_cell_length_b       8.814
_cell_length_c       20.567
_cell_angle_alpha    90
_cell_angle_beta     90
_cell_angle_gamma    120

_symmetry_space_group_name_H-M    "P 1"
_symmetry_int_tables_number       1

loop_
  _symmetry_equiv_pos_as_xyz
  'x, y, z'

loop_
  _atom_site_label
  _atom_site_occupancy
  _atom_site_fract_x
  _atom_site_fract_y
  _atom_site_fract_z
  _atom_site_thermal_displace_type
  _atom_site_B_iso_or_equiv
  _atom_site_type_symbol
  Cd1      1.0000 0.00000  0.00000  0.00000  Biso   1.000  Cd
  Cd2      1.0000 0.00000  0.00000  0.50000  Biso   1.000  Cd
  Cd3      1.0000 0.33333  0.66667  0.11370  Biso   1.000  Cd
  C1       1.0000 0.33333  0.66667  0.22200  Biso   1.000  C
  Cd4      1.0000 0.66667  0.33333  0.61370  Biso   1.000  Cd
  C2       1.0000 0.66667  0.33333  0.72200  Biso   1.000  C
  Cd5      1.0000 0.66667  0.33333  0.88630  Biso   1.000  Cd
  C3       1.0000 0.66667  0.33333  0.77800  Biso   1.000  C
  Cd6      1.0000 0.33333  0.66667  0.38630  Biso   1.000  Cd
  C4       1.0000 0.33333  0.66667  0.27800  Biso   1.000  C
  N1       1.0000 0.12600  0.25200  0.06150  Biso   1.000  N
  C5       1.0000 0.19400  0.38800  0.07980  Biso   1.000  C
  N2       1.0000 0.74800  0.87400  0.06150  Biso   1.000  N
  C6       1.0000 0.61200  0.80600  0.07980  Biso   1.000  C
  N3       1.0000 0.12600  0.87400  0.06150  Biso   1.000  N
  C7       1.0000 0.19400  0.80600  0.07980  Biso   1.000  C
  N4       1.0000 0.87400  0.74800  0.56150  Biso   1.000  N
  C8       1.0000 0.80600  0.61200  0.57980  Biso   1.000  C
  N5       1.0000 0.25200  0.12600  0.56150  Biso   1.000  N
  C9       1.0000 0.38800  0.19400  0.57980  Biso   1.000  C
  N6       1.0000 0.87400  0.12600  0.56150  Biso   1.000  N
  C10      1.0000 0.80600  0.19400  0.57980  Biso   1.000  C
  N7       1.0000 0.25200  0.12600  0.93850  Biso   1.000  N
  C11      1.0000 0.38800  0.19400  0.92020  Biso   1.000  C
  N8       1.0000 0.87400  0.74800  0.93850  Biso   1.000  N
  C12      1.0000 0.80600  0.61200  0.92020  Biso   1.000  C
  N9       1.0000 0.87400  0.12600  0.93850  Biso   1.000  N
  C13      1.0000 0.80600  0.19400  0.92020  Biso   1.000  C
  N10      1.0000 0.74800  0.87400  0.43850  Biso   1.000  N
  C14      1.0000 0.61200  0.80600  0.42020  Biso   1.000  C
  N11      1.0000 0.12600  0.25200  0.43850  Biso   1.000  N
  C15      1.0000 0.19400  0.38800  0.42020  Biso   1.000  C
  N12      1.0000 0.12600  0.87400  0.43850  Biso   1.000  N
  C16      1.0000 0.19400  0.80600  0.42020  Biso   1.000  C
