data_YIWPEZ_clean
_audit_creation_date              2015-05-20
_audit_creation_method            'Materials Studio'
_symmetry_space_group_name_H-M    'P1'
_symmetry_Int_Tables_number       1
_symmetry_cell_setting            triclinic
loop_
_symmetry_equiv_pos_as_xyz
  x,y,z
_cell_length_a                    8.7750
_cell_length_b                    8.7750
_cell_length_c                    20.5460
_cell_angle_alpha                 90.0000
_cell_angle_beta                  90.0000
_cell_angle_gamma                 120.0000
loop_
_atom_site_label
_atom_site_type_symbol
_atom_site_fract_x
_atom_site_fract_y
_atom_site_fract_z
_atom_site_U_iso_or_equiv
_atom_site_adp_type
_atom_site_occupancy
Cd1    Cd   -0.00000   0.00000  -0.00000   0.01267  Uiso   1.00
Cd2    Cd   -0.00000   0.00000   0.50000   0.01267  Uiso   1.00
Cd3    Cd    0.66667   0.33334   0.88640   0.01267  Uiso   1.00
Cd4    Cd    0.33333   0.66666   0.38640   0.01267  Uiso   1.00
Cd5    Cd    0.33333   0.66666   0.11360   0.01267  Uiso   1.00
Cd6    Cd    0.66667   0.33334   0.61360   0.01267  Uiso   1.00
C1     C     0.66667   0.33334   0.77500   0.01267  Uiso   1.00
C2     C     0.33333   0.66666   0.27500   0.01267  Uiso   1.00
C3     N     0.33333   0.66666   0.22500   0.01267  Uiso   1.00
C4     N     0.66667   0.33334   0.72500   0.01267  Uiso   1.00
C5     C     0.80500   0.19500   0.91860   0.01267  Uiso   1.00
C6     C     0.39000   0.19500   0.91860   0.01267  Uiso   1.00
C7     C     0.80500   0.61000   0.91860   0.01267  Uiso   1.00
C8     C     0.19500   0.80500   0.41860   0.01267  Uiso   1.00
C9     C     0.61000   0.80500   0.41860   0.01267  Uiso   1.00
C10    C     0.19500   0.39000   0.41860   0.01267  Uiso   1.00
C11    C     0.61000   0.80500   0.08140   0.01267  Uiso   1.00
C12    C     0.19500   0.80500   0.08140   0.01267  Uiso   1.00
C13    C     0.19500   0.39000   0.08140   0.01267  Uiso   1.00
C14    C     0.39000   0.19500   0.58140   0.01267  Uiso   1.00
C15    C     0.80500   0.19500   0.58140   0.01267  Uiso   1.00
C16    C     0.80500   0.61000   0.58140   0.01267  Uiso   1.00
N1     N     0.87740   0.12260   0.93490   0.01267  Uiso   1.00
N2     N     0.24520   0.12260   0.93490   0.01267  Uiso   1.00
N3     N     0.87740   0.75480   0.93490   0.01267  Uiso   1.00
N4     N     0.12260   0.87740   0.43490   0.01267  Uiso   1.00
N5     N     0.75480   0.87740   0.43490   0.01267  Uiso   1.00
N6     N     0.12260   0.24520   0.43490   0.01267  Uiso   1.00
N7     N     0.75480   0.87740   0.06510   0.01267  Uiso   1.00
N8     N     0.12260   0.87740   0.06510   0.01267  Uiso   1.00
N9     N     0.12260   0.24520   0.06510   0.01267  Uiso   1.00
N10    N     0.24520   0.12260   0.56510   0.01267  Uiso   1.00
N11    N     0.87740   0.12260   0.56510   0.01267  Uiso   1.00
N12    N     0.87740   0.75480   0.56510   0.01267  Uiso   1.00
