data_image0
_cell_length_a       8.0451
_cell_length_b       21.3785
_cell_length_c       18.3326
_cell_angle_alpha    90
_cell_angle_beta     90.035
_cell_angle_gamma    90

_symmetry_space_group_name_H-M    "P 1"
_symmetry_int_tables_number       1

loop_
  _symmetry_equiv_pos_as_xyz
  'x, y, z'

loop_
  _atom_site_label
  _atom_site_occupancy
  _atom_site_fract_x
  _atom_site_fract_y
  _atom_site_fract_z
  _atom_site_thermal_displace_type
  _atom_site_B_iso_or_equiv
  _atom_site_type_symbol
  Eu1      1.0000 0.14450  0.58122  0.25030  Biso   1.000  Eu
  Eu2      1.0000 0.65187  0.63167  0.27537  Biso   1.000  Eu
  Cl1      1.0000 0.93330  0.59870  0.36720  Biso   1.000  Cl
  C1       1.0000 0.28600  0.79290  0.25890  Biso   1.000  C
  C2       1.0000 0.13250  0.81320  0.26580  Biso   1.000  C
  H1       1.0000 0.04560  0.78470  0.26940  Biso   1.000  H
  C3       1.0000 0.09800  0.87820  0.26760  Biso   1.000  C
  H2       1.0000 0.99020  0.89280  0.27330  Biso   1.000  H
  C4       1.0000 0.22760  0.91890  0.26090  Biso   1.000  C
  C5       1.0000 0.39200  0.89700  0.25350  Biso   1.000  C
  H3       1.0000 0.47900  0.92530  0.24950  Biso   1.000  H
  C6       1.0000 0.42210  0.83520  0.25210  Biso   1.000  C
  H4       1.0000 0.53000  0.82020  0.24690  Biso   1.000  H
  C7       1.0000 0.32600  0.72350  0.25190  Biso   1.000  C
  C8       1.0000 0.19520  0.98730  0.25830  Biso   1.000  C
  O1       1.0000 0.20540  0.68630  0.26160  Biso   1.000  O
  O2       1.0000 0.46460  0.70570  0.23630  Biso   1.000  O
  O3       1.0000 0.04900  0.00660  0.27450  Biso   1.000  O
  O4       1.0000 0.30950  0.02250  0.23510  Biso   1.000  O
  C9       1.0000 0.87920  0.67520  0.07040  Biso   1.000  C
  C10      1.0000 0.77800  0.73020  0.07770  Biso   1.000  C
  H5       1.0000 0.74850  0.74510  0.12350  Biso   1.000  H
  C11      1.0000 0.72700  0.75950  0.01730  Biso   1.000  C
  H6       1.0000 0.66390  0.79570  0.02210  Biso   1.000  H
  C12      1.0000 0.76450  0.73760  0.94620  Biso   1.000  C
  C13      1.0000 0.86280  0.68640  0.93980  Biso   1.000  C
  H7       1.0000 0.89430  0.67270  0.89370  Biso   1.000  H
  C14      1.0000 0.91690  0.65410  0.00050  Biso   1.000  C
  H8       1.0000 0.97930  0.61780  0.99470  Biso   1.000  H
  C15      1.0000 0.95100  0.64300  0.13440  Biso   1.000  C
  C16      1.0000 0.71070  0.77370  0.87960  Biso   1.000  C
  O5       1.0000 0.88040  0.64760  0.19610  Biso   1.000  O
  O6       1.0000 0.07990  0.61430  0.12840  Biso   1.000  O
  O7       1.0000 0.59370  0.81430  0.88880  Biso   1.000  O
  O8       1.0000 0.77730  0.76550  0.81990  Biso   1.000  O
  C17      1.0000 0.47400  0.52510  0.06880  Biso   1.000  C
  C18      1.0000 0.35600  0.49000  0.03530  Biso   1.000  C
  H9       1.0000 0.25770  0.48200  0.06020  Biso   1.000  H
  C19      1.0000 0.62500  0.53390  0.03320  Biso   1.000  C
  H10      1.0000 0.71150  0.55560  0.05570  Biso   1.000  H
  C20      1.0000 0.44400  0.55050  0.14230  Biso   1.000  C
  O9       1.0000 0.33410  0.53090  0.17950  Biso   1.000  O
  O10      1.0000 0.54400  0.59700  0.15900  Biso   1.000  O
  C21      1.0000 0.43850  0.51750  0.43100  Biso   1.000  C
  C22      1.0000 0.54000  0.55730  0.46840  Biso   1.000  C
  H11      1.0000 0.56790  0.59600  0.44840  Biso   1.000  H
  C23      1.0000 0.39600  0.45990  0.46260  Biso   1.000  C
  H12      1.0000 0.32470  0.43280  0.43790  Biso   1.000  H
  C24      1.0000 0.35820  0.53270  0.36130  Biso   1.000  C
  O11      1.0000 0.40280  0.58520  0.32870  Biso   1.000  O
  O12      1.0000 0.24730  0.50080  0.33480  Biso   1.000  O
  H13      1.0000 0.60640  0.58630  0.19220  Biso   1.000  H
  Eu3      1.0000 0.85550  0.08122  0.24970  Biso   1.000  Eu
  Eu4      1.0000 0.34813  0.13167  0.22463  Biso   1.000  Eu
  Cl2      1.0000 0.06670  0.09870  0.13280  Biso   1.000  Cl
  C25      1.0000 0.71400  0.29290  0.24110  Biso   1.000  C
  C26      1.0000 0.86750  0.31320  0.23420  Biso   1.000  C
  H14      1.0000 0.95440  0.28470  0.23060  Biso   1.000  H
  C27      1.0000 0.90200  0.37820  0.23240  Biso   1.000  C
  H15      1.0000 0.00980  0.39280  0.22670  Biso   1.000  H
  C28      1.0000 0.77240  0.41890  0.23910  Biso   1.000  C
  C29      1.0000 0.60800  0.39700  0.24650  Biso   1.000  C
  H16      1.0000 0.52100  0.42530  0.25050  Biso   1.000  H
  C30      1.0000 0.57790  0.33520  0.24790  Biso   1.000  C
  H17      1.0000 0.47000  0.32020  0.25310  Biso   1.000  H
  C31      1.0000 0.67400  0.22350  0.24810  Biso   1.000  C
  C32      1.0000 0.80480  0.48730  0.24170  Biso   1.000  C
  O13      1.0000 0.79460  0.18630  0.23840  Biso   1.000  O
  O14      1.0000 0.53540  0.20570  0.26370  Biso   1.000  O
  O15      1.0000 0.95100  0.50660  0.22550  Biso   1.000  O
  O16      1.0000 0.69050  0.52250  0.26490  Biso   1.000  O
  C33      1.0000 0.12080  0.17520  0.42960  Biso   1.000  C
  C34      1.0000 0.22200  0.23020  0.42230  Biso   1.000  C
  H18      1.0000 0.25150  0.24510  0.37650  Biso   1.000  H
  C35      1.0000 0.27300  0.25950  0.48270  Biso   1.000  C
  H19      1.0000 0.33610  0.29570  0.47790  Biso   1.000  H
  C36      1.0000 0.23550  0.23760  0.55380  Biso   1.000  C
  C37      1.0000 0.13720  0.18640  0.56020  Biso   1.000  C
  H20      1.0000 0.10570  0.17270  0.60630  Biso   1.000  H
  C38      1.0000 0.08310  0.15410  0.49950  Biso   1.000  C
  H21      1.0000 0.02070  0.11780  0.50530  Biso   1.000  H
  C39      1.0000 0.04900  0.14300  0.36560  Biso   1.000  C
  C40      1.0000 0.28930  0.27370  0.62040  Biso   1.000  C
  O17      1.0000 0.11960  0.14760  0.30390  Biso   1.000  O
  O18      1.0000 0.92010  0.11430  0.37160  Biso   1.000  O
  O19      1.0000 0.40630  0.31430  0.61120  Biso   1.000  O
  O20      1.0000 0.22270  0.26550  0.68010  Biso   1.000  O
  C41      1.0000 0.52600  0.02510  0.43120  Biso   1.000  C
  C42      1.0000 0.64400  0.99000  0.46470  Biso   1.000  C
  H22      1.0000 0.74230  0.98200  0.43980  Biso   1.000  H
  C43      1.0000 0.37500  0.03390  0.46680  Biso   1.000  C
  H23      1.0000 0.28850  0.05560  0.44430  Biso   1.000  H
  C44      1.0000 0.55600  0.05050  0.35770  Biso   1.000  C
  O21      1.0000 0.66590  0.03090  0.32050  Biso   1.000  O
  O22      1.0000 0.45600  0.09700  0.34100  Biso   1.000  O
  C45      1.0000 0.56150  0.01750  0.06900  Biso   1.000  C
  C46      1.0000 0.46000  0.05730  0.03160  Biso   1.000  C
  H24      1.0000 0.43210  0.09600  0.05160  Biso   1.000  H
  C47      1.0000 0.60400  0.95990  0.03740  Biso   1.000  C
  H25      1.0000 0.67530  0.93280  0.06210  Biso   1.000  H
  C48      1.0000 0.64180  0.03270  0.13870  Biso   1.000  C
  O23      1.0000 0.59720  0.08520  0.17130  Biso   1.000  O
  O24      1.0000 0.75270  0.00080  0.16520  Biso   1.000  O
  H26      1.0000 0.39360  0.08630  0.30780  Biso   1.000  H
  Eu5      1.0000 0.85550  0.41878  0.74970  Biso   1.000  Eu
  Eu6      1.0000 0.34813  0.36833  0.72463  Biso   1.000  Eu
  Cl3      1.0000 0.06670  0.40130  0.63280  Biso   1.000  Cl
  C49      1.0000 0.71400  0.20710  0.74110  Biso   1.000  C
  C50      1.0000 0.86750  0.18680  0.73420  Biso   1.000  C
  H27      1.0000 0.95440  0.21530  0.73060  Biso   1.000  H
  C51      1.0000 0.90200  0.12180  0.73240  Biso   1.000  C
  H28      1.0000 0.00980  0.10720  0.72670  Biso   1.000  H
  C52      1.0000 0.77240  0.08110  0.73910  Biso   1.000  C
  C53      1.0000 0.60800  0.10300  0.74650  Biso   1.000  C
  H29      1.0000 0.52100  0.07470  0.75050  Biso   1.000  H
  C54      1.0000 0.57790  0.16480  0.74790  Biso   1.000  C
  H30      1.0000 0.47000  0.17980  0.75310  Biso   1.000  H
  C55      1.0000 0.67400  0.27650  0.74810  Biso   1.000  C
  C56      1.0000 0.80480  0.01270  0.74170  Biso   1.000  C
  O25      1.0000 0.79460  0.31370  0.73840  Biso   1.000  O
  O26      1.0000 0.53540  0.29430  0.76370  Biso   1.000  O
  O27      1.0000 0.95100  0.99340  0.72550  Biso   1.000  O
  O28      1.0000 0.69050  0.97750  0.76490  Biso   1.000  O
  C57      1.0000 0.12080  0.32480  0.92960  Biso   1.000  C
  C58      1.0000 0.22200  0.26980  0.92230  Biso   1.000  C
  H31      1.0000 0.25150  0.25490  0.87650  Biso   1.000  H
  C59      1.0000 0.27300  0.24050  0.98270  Biso   1.000  C
  H32      1.0000 0.33610  0.20430  0.97790  Biso   1.000  H
  C60      1.0000 0.23550  0.26240  0.05380  Biso   1.000  C
  C61      1.0000 0.13720  0.31360  0.06020  Biso   1.000  C
  H33      1.0000 0.10570  0.32730  0.10630  Biso   1.000  H
  C62      1.0000 0.08310  0.34590  0.99950  Biso   1.000  C
  H34      1.0000 0.02070  0.38220  0.00530  Biso   1.000  H
  C63      1.0000 0.04900  0.35700  0.86560  Biso   1.000  C
  C64      1.0000 0.28930  0.22630  0.12040  Biso   1.000  C
  O29      1.0000 0.11960  0.35240  0.80390  Biso   1.000  O
  O30      1.0000 0.92010  0.38570  0.87160  Biso   1.000  O
  O31      1.0000 0.40630  0.18570  0.11120  Biso   1.000  O
  O32      1.0000 0.22270  0.23450  0.18010  Biso   1.000  O
  C65      1.0000 0.52600  0.47490  0.93120  Biso   1.000  C
  C66      1.0000 0.64400  0.51000  0.96470  Biso   1.000  C
  H35      1.0000 0.74230  0.51800  0.93980  Biso   1.000  H
  C67      1.0000 0.37500  0.46610  0.96680  Biso   1.000  C
  H36      1.0000 0.28850  0.44440  0.94430  Biso   1.000  H
  C68      1.0000 0.55600  0.44950  0.85770  Biso   1.000  C
  O33      1.0000 0.66590  0.46910  0.82050  Biso   1.000  O
  O34      1.0000 0.45600  0.40300  0.84100  Biso   1.000  O
  C69      1.0000 0.56150  0.48250  0.56900  Biso   1.000  C
  C70      1.0000 0.46000  0.44270  0.53160  Biso   1.000  C
  H37      1.0000 0.43210  0.40400  0.55160  Biso   1.000  H
  C71      1.0000 0.60400  0.54010  0.53740  Biso   1.000  C
  H38      1.0000 0.67530  0.56720  0.56210  Biso   1.000  H
  C72      1.0000 0.64180  0.46730  0.63870  Biso   1.000  C
  O35      1.0000 0.59720  0.41480  0.67130  Biso   1.000  O
  O36      1.0000 0.75270  0.49920  0.66520  Biso   1.000  O
  H39      1.0000 0.39360  0.41370  0.80780  Biso   1.000  H
  Eu7      1.0000 0.14450  0.91878  0.75030  Biso   1.000  Eu
  Eu8      1.0000 0.65187  0.86833  0.77537  Biso   1.000  Eu
  Cl4      1.0000 0.93330  0.90130  0.86720  Biso   1.000  Cl
  C73      1.0000 0.28600  0.70710  0.75890  Biso   1.000  C
  C74      1.0000 0.13250  0.68680  0.76580  Biso   1.000  C
  H40      1.0000 0.04560  0.71530  0.76940  Biso   1.000  H
  C75      1.0000 0.09800  0.62180  0.76760  Biso   1.000  C
  H41      1.0000 0.99020  0.60720  0.77330  Biso   1.000  H
  C76      1.0000 0.22760  0.58110  0.76090  Biso   1.000  C
  C77      1.0000 0.39200  0.60300  0.75350  Biso   1.000  C
  H42      1.0000 0.47900  0.57470  0.74950  Biso   1.000  H
  C78      1.0000 0.42210  0.66480  0.75210  Biso   1.000  C
  H43      1.0000 0.53000  0.67980  0.74690  Biso   1.000  H
  C79      1.0000 0.32600  0.77650  0.75190  Biso   1.000  C
  C80      1.0000 0.19520  0.51270  0.75830  Biso   1.000  C
  O37      1.0000 0.20540  0.81370  0.76160  Biso   1.000  O
  O38      1.0000 0.46460  0.79430  0.73630  Biso   1.000  O
  O39      1.0000 0.04900  0.49340  0.77450  Biso   1.000  O
  O40      1.0000 0.30950  0.47750  0.73510  Biso   1.000  O
  C81      1.0000 0.87920  0.82480  0.57040  Biso   1.000  C
  C82      1.0000 0.77800  0.76980  0.57770  Biso   1.000  C
  H44      1.0000 0.74850  0.75490  0.62350  Biso   1.000  H
  C83      1.0000 0.72700  0.74050  0.51730  Biso   1.000  C
  H45      1.0000 0.66390  0.70430  0.52210  Biso   1.000  H
  C84      1.0000 0.76450  0.76240  0.44620  Biso   1.000  C
  C85      1.0000 0.86280  0.81360  0.43980  Biso   1.000  C
  H46      1.0000 0.89430  0.82730  0.39370  Biso   1.000  H
  C86      1.0000 0.91690  0.84590  0.50050  Biso   1.000  C
  H47      1.0000 0.97930  0.88220  0.49470  Biso   1.000  H
  C87      1.0000 0.95100  0.85700  0.63440  Biso   1.000  C
  C88      1.0000 0.71070  0.72630  0.37960  Biso   1.000  C
  O41      1.0000 0.88040  0.85240  0.69610  Biso   1.000  O
  O42      1.0000 0.07990  0.88570  0.62840  Biso   1.000  O
  O43      1.0000 0.59370  0.68570  0.38880  Biso   1.000  O
  O44      1.0000 0.77730  0.73450  0.31990  Biso   1.000  O
  C89      1.0000 0.47400  0.97490  0.56880  Biso   1.000  C
  C90      1.0000 0.35600  0.01000  0.53530  Biso   1.000  C
  H48      1.0000 0.25770  0.01800  0.56020  Biso   1.000  H
  C91      1.0000 0.62500  0.96610  0.53320  Biso   1.000  C
  H49      1.0000 0.71150  0.94440  0.55570  Biso   1.000  H
  C92      1.0000 0.44400  0.94950  0.64230  Biso   1.000  C
  O45      1.0000 0.33410  0.96910  0.67950  Biso   1.000  O
  O46      1.0000 0.54400  0.90300  0.65900  Biso   1.000  O
  C93      1.0000 0.43850  0.98250  0.93100  Biso   1.000  C
  C94      1.0000 0.54000  0.94270  0.96840  Biso   1.000  C
  H50      1.0000 0.56790  0.90400  0.94840  Biso   1.000  H
  C95      1.0000 0.39600  0.04010  0.96260  Biso   1.000  C
  H51      1.0000 0.32470  0.06720  0.93790  Biso   1.000  H
  C96      1.0000 0.35820  0.96730  0.86130  Biso   1.000  C
  O47      1.0000 0.40280  0.91480  0.82870  Biso   1.000  O
  O48      1.0000 0.24730  0.99920  0.83480  Biso   1.000  O
  H52      1.0000 0.60640  0.91370  0.69220  Biso   1.000  H
