data_image0
_cell_length_a       14.512
_cell_length_b       14.512
_cell_length_c       8.914
_cell_angle_alpha    90
_cell_angle_beta     90
_cell_angle_gamma    90

_symmetry_space_group_name_H-M    "P 1"
_symmetry_int_tables_number       1

loop_
  _symmetry_equiv_pos_as_xyz
  'x, y, z'

loop_
  _atom_site_label
  _atom_site_occupancy
  _atom_site_fract_x
  _atom_site_fract_y
  _atom_site_fract_z
  _atom_site_thermal_displace_type
  _atom_site_B_iso_or_equiv
  _atom_site_type_symbol
  Zn1      1.0000 0.50381  0.63629  0.38993  Biso   1.000  Zn
  Zn2      1.0000 0.50293  0.87246  0.70778  Biso   1.000  Zn
  Zn3      1.0000 0.36657  0.01407  0.20939  Biso   1.000  Zn
  Zn4      1.0000 0.13088  0.02126  0.88721  Biso   1.000  Zn
  P1       1.0000 0.63883  0.49653  0.25792  Biso   1.000  P
  P2       1.0000 0.34801  0.99071  0.85690  Biso   1.000  P
  P3       1.0000 0.48947  0.85666  0.35490  Biso   1.000  P
  P4       1.0000 0.14069  0.02683  0.24212  Biso   1.000  P
  O1       1.0000 0.38010  0.91260  0.75390  Biso   1.000  O
  O2       1.0000 0.53650  0.87400  0.50350  Biso   1.000  O
  O3       1.0000 0.40690  0.07600  0.83850  Biso   1.000  O
  O4       1.0000 0.34930  0.95690  0.01740  Biso   1.000  O
  O5       1.0000 0.39930  0.91090  0.34210  Biso   1.000  O
  O6       1.0000 0.25010  0.01300  0.80900  Biso   1.000  O
  O7       1.0000 0.60740  0.59650  0.26780  Biso   1.000  O
  O8       1.0000 0.74040  0.49020  0.23480  Biso   1.000  O
  O9       1.0000 0.60910  0.44590  0.40540  Biso   1.000  O
  O10      1.0000 0.59050  0.44500  0.13060  Biso   1.000  O
  O11      1.0000 0.55420  0.88140  0.22560  Biso   1.000  O
  O12      1.0000 0.46050  0.75540  0.33840  Biso   1.000  O
  O13      1.0000 0.24120  0.04910  0.26660  Biso   1.000  O
  O14      1.0000 0.08240  0.06830  0.36990  Biso   1.000  O
  O15      1.0000 0.10330  0.07100  0.09340  Biso   1.000  O
  O16      1.0000 0.12300  0.92310  0.22870  Biso   1.000  O
  Zn5      1.0000 0.49619  0.36371  0.38993  Biso   1.000  Zn
  Zn6      1.0000 0.49707  0.12754  0.70778  Biso   1.000  Zn
  Zn7      1.0000 0.63343  0.98593  0.20939  Biso   1.000  Zn
  Zn8      1.0000 0.86912  0.97874  0.88721  Biso   1.000  Zn
  P5       1.0000 0.36117  0.50347  0.25792  Biso   1.000  P
  P6       1.0000 0.65199  0.00929  0.85690  Biso   1.000  P
  P7       1.0000 0.51053  0.14334  0.35490  Biso   1.000  P
  P8       1.0000 0.85931  0.97317  0.24212  Biso   1.000  P
  O17      1.0000 0.61990  0.08740  0.75390  Biso   1.000  O
  O18      1.0000 0.46350  0.12600  0.50350  Biso   1.000  O
  O19      1.0000 0.59310  0.92400  0.83850  Biso   1.000  O
  O20      1.0000 0.65070  0.04310  0.01740  Biso   1.000  O
  O21      1.0000 0.60070  0.08910  0.34210  Biso   1.000  O
  O22      1.0000 0.74990  0.98700  0.80900  Biso   1.000  O
  O23      1.0000 0.39260  0.40350  0.26780  Biso   1.000  O
  O24      1.0000 0.25960  0.50980  0.23480  Biso   1.000  O
  O25      1.0000 0.39090  0.55410  0.40540  Biso   1.000  O
  O26      1.0000 0.40950  0.55500  0.13060  Biso   1.000  O
  O27      1.0000 0.44580  0.11860  0.22560  Biso   1.000  O
  O28      1.0000 0.53950  0.24460  0.33840  Biso   1.000  O
  O29      1.0000 0.75880  0.95090  0.26660  Biso   1.000  O
  O30      1.0000 0.91760  0.93170  0.36990  Biso   1.000  O
  O31      1.0000 0.89670  0.92900  0.09340  Biso   1.000  O
  O32      1.0000 0.87700  0.07690  0.22870  Biso   1.000  O
  Zn9      1.0000 0.63629  0.49619  0.61007  Biso   1.000  Zn
  Zn10     1.0000 0.87246  0.49707  0.29222  Biso   1.000  Zn
  Zn11     1.0000 0.01407  0.63343  0.79061  Biso   1.000  Zn
  Zn12     1.0000 0.02126  0.86912  0.11279  Biso   1.000  Zn
  P9       1.0000 0.49653  0.36117  0.74208  Biso   1.000  P
  P10      1.0000 0.99071  0.65199  0.14310  Biso   1.000  P
  P11      1.0000 0.85666  0.51053  0.64510  Biso   1.000  P
  P12      1.0000 0.02683  0.85931  0.75788  Biso   1.000  P
  O33      1.0000 0.91260  0.61990  0.24610  Biso   1.000  O
  O34      1.0000 0.87400  0.46350  0.49650  Biso   1.000  O
  O35      1.0000 0.07600  0.59310  0.16150  Biso   1.000  O
  O36      1.0000 0.95690  0.65070  0.98260  Biso   1.000  O
  O37      1.0000 0.91090  0.60070  0.65790  Biso   1.000  O
  O38      1.0000 0.01300  0.74990  0.19100  Biso   1.000  O
  O39      1.0000 0.59650  0.39260  0.73220  Biso   1.000  O
  O40      1.0000 0.49020  0.25960  0.76520  Biso   1.000  O
  O41      1.0000 0.44590  0.39090  0.59460  Biso   1.000  O
  O42      1.0000 0.44500  0.40950  0.86940  Biso   1.000  O
  O43      1.0000 0.88140  0.44580  0.77440  Biso   1.000  O
  O44      1.0000 0.75540  0.53950  0.66160  Biso   1.000  O
  O45      1.0000 0.04910  0.75880  0.73340  Biso   1.000  O
  O46      1.0000 0.06830  0.91760  0.63010  Biso   1.000  O
  O47      1.0000 0.07100  0.89670  0.90660  Biso   1.000  O
  O48      1.0000 0.92310  0.87700  0.77130  Biso   1.000  O
  Zn13     1.0000 0.36371  0.50381  0.61007  Biso   1.000  Zn
  Zn14     1.0000 0.12754  0.50293  0.29222  Biso   1.000  Zn
  Zn15     1.0000 0.98593  0.36657  0.79061  Biso   1.000  Zn
  Zn16     1.0000 0.97874  0.13088  0.11279  Biso   1.000  Zn
  P13      1.0000 0.50347  0.63883  0.74208  Biso   1.000  P
  P14      1.0000 0.00929  0.34801  0.14310  Biso   1.000  P
  P15      1.0000 0.14334  0.48947  0.64510  Biso   1.000  P
  P16      1.0000 0.97317  0.14069  0.75788  Biso   1.000  P
  O49      1.0000 0.08740  0.38010  0.24610  Biso   1.000  O
  O50      1.0000 0.12600  0.53650  0.49650  Biso   1.000  O
  O51      1.0000 0.92400  0.40690  0.16150  Biso   1.000  O
  O52      1.0000 0.04310  0.34930  0.98260  Biso   1.000  O
  O53      1.0000 0.08910  0.39930  0.65790  Biso   1.000  O
  O54      1.0000 0.98700  0.25010  0.19100  Biso   1.000  O
  O55      1.0000 0.40350  0.60740  0.73220  Biso   1.000  O
  O56      1.0000 0.50980  0.74040  0.76520  Biso   1.000  O
  O57      1.0000 0.55410  0.60910  0.59460  Biso   1.000  O
  O58      1.0000 0.55500  0.59050  0.86940  Biso   1.000  O
  O59      1.0000 0.11860  0.55420  0.77440  Biso   1.000  O
  O60      1.0000 0.24460  0.46050  0.66160  Biso   1.000  O
  O61      1.0000 0.95090  0.24120  0.73340  Biso   1.000  O
  O62      1.0000 0.93170  0.08240  0.63010  Biso   1.000  O
  O63      1.0000 0.92900  0.10330  0.90660  Biso   1.000  O
  O64      1.0000 0.07690  0.12300  0.77130  Biso   1.000  O
  Zn17     1.0000 0.00000  0.00000  0.50000  Biso   1.000  Zn
  Zn18     1.0000 0.50000  0.50000  0.00000  Biso   1.000  Zn
