data_image0
_cell_length_a       21.23
_cell_length_b       21.23
_cell_length_c       6.029
_cell_angle_alpha    90
_cell_angle_beta     90
_cell_angle_gamma    90

_symmetry_space_group_name_H-M    "P 1"
_symmetry_int_tables_number       1

loop_
  _symmetry_equiv_pos_as_xyz
  'x, y, z'

loop_
  _atom_site_label
  _atom_site_occupancy
  _atom_site_fract_x
  _atom_site_fract_y
  _atom_site_fract_z
  _atom_site_thermal_displace_type
  _atom_site_B_iso_or_equiv
  _atom_site_type_symbol
  Cd1      1.0000 0.32981  0.76936  0.96341  Biso   1.000  Cd
  O1       1.0000 0.40020  0.85670  0.97490  Biso   1.000  O
  O2       1.0000 0.40400  0.80090  0.65890  Biso   1.000  O
  O3       1.0000 0.31280  0.76740  0.34220  Biso   1.000  O
  H1       1.0000 0.34700  0.79700  0.34000  Biso   1.000  H
  N1       1.0000 0.63540  0.00090  0.49550  Biso   1.000  N
  N2       1.0000 0.66320  0.99220  0.28650  Biso   1.000  N
  N3       1.0000 0.70260  0.07990  0.46030  Biso   1.000  N
  C1       1.0000 0.42490  0.84480  0.78300  Biso   1.000  C
  C2       1.0000 0.48210  0.88210  0.70700  Biso   1.000  C
  C3       1.0000 0.51040  0.92240  0.84700  Biso   1.000  C
  H2       1.0000 0.49660  0.92370  0.99290  Biso   1.000  H
  C4       1.0000 0.56150  0.96410  0.78100  Biso   1.000  C
  H3       1.0000 0.57760  0.99380  0.87980  Biso   1.000  H
  C5       1.0000 0.58560  0.95840  0.56700  Biso   1.000  C
  C6       1.0000 0.55390  0.91850  0.42700  Biso   1.000  C
  H4       1.0000 0.56540  0.91720  0.27870  Biso   1.000  H
  C7       1.0000 0.50550  0.88020  0.49900  Biso   1.000  C
  H5       1.0000 0.48810  0.85170  0.39920  Biso   1.000  H
  C8       1.0000 0.65860  0.05050  0.59500  Biso   1.000  C
  H6       1.0000 0.64720  0.06400  0.73580  Biso   1.000  H
  C9       1.0000 0.70290  0.04100  0.27400  Biso   1.000  C
  H7       1.0000 0.72850  0.04830  0.15100  Biso   1.000  H
  Cd2      1.0000 0.17019  0.73064  0.96341  Biso   1.000  Cd
  O4       1.0000 0.09980  0.64330  0.97490  Biso   1.000  O
  O5       1.0000 0.09600  0.69910  0.65890  Biso   1.000  O
  O6       1.0000 0.18720  0.73260  0.34220  Biso   1.000  O
  H8       1.0000 0.15300  0.70300  0.34000  Biso   1.000  H
  N4       1.0000 0.86460  0.49910  0.49550  Biso   1.000  N
  N5       1.0000 0.83680  0.50780  0.28650  Biso   1.000  N
  N6       1.0000 0.79740  0.42010  0.46030  Biso   1.000  N
  C10      1.0000 0.07510  0.65520  0.78300  Biso   1.000  C
  C11      1.0000 0.01790  0.61790  0.70700  Biso   1.000  C
  C12      1.0000 0.98960  0.57760  0.84700  Biso   1.000  C
  H9       1.0000 0.00340  0.57630  0.99290  Biso   1.000  H
  C13      1.0000 0.93850  0.53590  0.78100  Biso   1.000  C
  H10      1.0000 0.92240  0.50620  0.87980  Biso   1.000  H
  C14      1.0000 0.91440  0.54160  0.56700  Biso   1.000  C
  C15      1.0000 0.94610  0.58150  0.42700  Biso   1.000  C
  H11      1.0000 0.93460  0.58280  0.27870  Biso   1.000  H
  C16      1.0000 0.99450  0.61980  0.49900  Biso   1.000  C
  H12      1.0000 0.01190  0.64830  0.39920  Biso   1.000  H
  C17      1.0000 0.84140  0.44950  0.59500  Biso   1.000  C
  H13      1.0000 0.85280  0.43600  0.73580  Biso   1.000  H
  C18      1.0000 0.79710  0.45900  0.27400  Biso   1.000  C
  H14      1.0000 0.77150  0.45170  0.15100  Biso   1.000  H
  Cd3      1.0000 0.23064  0.82981  0.46341  Biso   1.000  Cd
  O7       1.0000 0.14330  0.90020  0.47490  Biso   1.000  O
  O8       1.0000 0.19910  0.90400  0.15890  Biso   1.000  O
  O9       1.0000 0.23260  0.81280  0.84220  Biso   1.000  O
  H15      1.0000 0.20300  0.84700  0.84000  Biso   1.000  H
  N7       1.0000 0.99910  0.13540  0.99550  Biso   1.000  N
  N8       1.0000 0.00780  0.16320  0.78650  Biso   1.000  N
  N9       1.0000 0.92010  0.20260  0.96030  Biso   1.000  N
  C19      1.0000 0.15520  0.92490  0.28300  Biso   1.000  C
  C20      1.0000 0.11790  0.98210  0.20700  Biso   1.000  C
  C21      1.0000 0.07760  0.01040  0.34700  Biso   1.000  C
  H16      1.0000 0.07630  0.99660  0.49290  Biso   1.000  H
  C22      1.0000 0.03590  0.06150  0.28100  Biso   1.000  C
  H17      1.0000 0.00620  0.07760  0.37980  Biso   1.000  H
  C23      1.0000 0.04160  0.08560  0.06700  Biso   1.000  C
  C24      1.0000 0.08150  0.05390  0.92700  Biso   1.000  C
  H18      1.0000 0.08280  0.06540  0.77870  Biso   1.000  H
  C25      1.0000 0.11980  0.00550  0.99900  Biso   1.000  C
  H19      1.0000 0.14830  0.98810  0.89920  Biso   1.000  H
  C26      1.0000 0.94950  0.15860  0.09500  Biso   1.000  C
  H20      1.0000 0.93600  0.14720  0.23580  Biso   1.000  H
  C27      1.0000 0.95900  0.20290  0.77400  Biso   1.000  C
  H21      1.0000 0.95170  0.22850  0.65100  Biso   1.000  H
  Cd4      1.0000 0.26936  0.67019  0.46341  Biso   1.000  Cd
  O10      1.0000 0.35670  0.59980  0.47490  Biso   1.000  O
  O11      1.0000 0.30090  0.59600  0.15890  Biso   1.000  O
  O12      1.0000 0.26740  0.68720  0.84220  Biso   1.000  O
  H22      1.0000 0.29700  0.65300  0.84000  Biso   1.000  H
  N10      1.0000 0.50090  0.36460  0.99550  Biso   1.000  N
  N11      1.0000 0.49220  0.33680  0.78650  Biso   1.000  N
  N12      1.0000 0.57990  0.29740  0.96030  Biso   1.000  N
  C28      1.0000 0.34480  0.57510  0.28300  Biso   1.000  C
  C29      1.0000 0.38210  0.51790  0.20700  Biso   1.000  C
  C30      1.0000 0.42240  0.48960  0.34700  Biso   1.000  C
  H23      1.0000 0.42370  0.50340  0.49290  Biso   1.000  H
  C31      1.0000 0.46410  0.43850  0.28100  Biso   1.000  C
  H24      1.0000 0.49380  0.42240  0.37980  Biso   1.000  H
  C32      1.0000 0.45840  0.41440  0.06700  Biso   1.000  C
  C33      1.0000 0.41850  0.44610  0.92700  Biso   1.000  C
  H25      1.0000 0.41720  0.43460  0.77870  Biso   1.000  H
  C34      1.0000 0.38020  0.49450  0.99900  Biso   1.000  C
  H26      1.0000 0.35170  0.51190  0.89920  Biso   1.000  H
  C35      1.0000 0.55050  0.34140  0.09500  Biso   1.000  C
  H27      1.0000 0.56400  0.35280  0.23580  Biso   1.000  H
  C36      1.0000 0.54100  0.29710  0.77400  Biso   1.000  C
  H28      1.0000 0.54830  0.27150  0.65100  Biso   1.000  H
  Cd5      1.0000 0.67019  0.23064  0.03659  Biso   1.000  Cd
  O13      1.0000 0.59980  0.14330  0.02510  Biso   1.000  O
  O14      1.0000 0.59600  0.19910  0.34110  Biso   1.000  O
  O15      1.0000 0.68720  0.23260  0.65780  Biso   1.000  O
  H29      1.0000 0.65300  0.20300  0.66000  Biso   1.000  H
  N13      1.0000 0.36460  0.99910  0.50450  Biso   1.000  N
  N14      1.0000 0.33680  0.00780  0.71350  Biso   1.000  N
  N15      1.0000 0.29740  0.92010  0.53970  Biso   1.000  N
  C37      1.0000 0.57510  0.15520  0.21700  Biso   1.000  C
  C38      1.0000 0.51790  0.11790  0.29300  Biso   1.000  C
  C39      1.0000 0.48960  0.07760  0.15300  Biso   1.000  C
  H30      1.0000 0.50340  0.07630  0.00710  Biso   1.000  H
  C40      1.0000 0.43850  0.03590  0.21900  Biso   1.000  C
  H31      1.0000 0.42240  0.00620  0.12020  Biso   1.000  H
  C41      1.0000 0.41440  0.04160  0.43300  Biso   1.000  C
  C42      1.0000 0.44610  0.08150  0.57300  Biso   1.000  C
  H32      1.0000 0.43460  0.08280  0.72130  Biso   1.000  H
  C43      1.0000 0.49450  0.11980  0.50100  Biso   1.000  C
  H33      1.0000 0.51190  0.14830  0.60080  Biso   1.000  H
  C44      1.0000 0.34140  0.94950  0.40500  Biso   1.000  C
  H34      1.0000 0.35280  0.93600  0.26420  Biso   1.000  H
  C45      1.0000 0.29710  0.95900  0.72600  Biso   1.000  C
  H35      1.0000 0.27150  0.95170  0.84900  Biso   1.000  H
  Cd6      1.0000 0.82981  0.26936  0.03659  Biso   1.000  Cd
  O16      1.0000 0.90020  0.35670  0.02510  Biso   1.000  O
  O17      1.0000 0.90400  0.30090  0.34110  Biso   1.000  O
  O18      1.0000 0.81280  0.26740  0.65780  Biso   1.000  O
  H36      1.0000 0.84700  0.29700  0.66000  Biso   1.000  H
  N16      1.0000 0.13540  0.50090  0.50450  Biso   1.000  N
  N17      1.0000 0.16320  0.49220  0.71350  Biso   1.000  N
  N18      1.0000 0.20260  0.57990  0.53970  Biso   1.000  N
  C46      1.0000 0.92490  0.34480  0.21700  Biso   1.000  C
  C47      1.0000 0.98210  0.38210  0.29300  Biso   1.000  C
  C48      1.0000 0.01040  0.42240  0.15300  Biso   1.000  C
  H37      1.0000 0.99660  0.42370  0.00710  Biso   1.000  H
  C49      1.0000 0.06150  0.46410  0.21900  Biso   1.000  C
  H38      1.0000 0.07760  0.49380  0.12020  Biso   1.000  H
  C50      1.0000 0.08560  0.45840  0.43300  Biso   1.000  C
  C51      1.0000 0.05390  0.41850  0.57300  Biso   1.000  C
  H39      1.0000 0.06540  0.41720  0.72130  Biso   1.000  H
  C52      1.0000 0.00550  0.38020  0.50100  Biso   1.000  C
  H40      1.0000 0.98810  0.35170  0.60080  Biso   1.000  H
  C53      1.0000 0.15860  0.55050  0.40500  Biso   1.000  C
  H41      1.0000 0.14720  0.56400  0.26420  Biso   1.000  H
  C54      1.0000 0.20290  0.54100  0.72600  Biso   1.000  C
  H42      1.0000 0.22850  0.54830  0.84900  Biso   1.000  H
  Cd7      1.0000 0.76936  0.17019  0.53659  Biso   1.000  Cd
  O19      1.0000 0.85670  0.09980  0.52510  Biso   1.000  O
  O20      1.0000 0.80090  0.09600  0.84110  Biso   1.000  O
  O21      1.0000 0.76740  0.18720  0.15780  Biso   1.000  O
  H43      1.0000 0.79700  0.15300  0.16000  Biso   1.000  H
  N19      1.0000 0.00090  0.86460  0.00450  Biso   1.000  N
  N20      1.0000 0.99220  0.83680  0.21350  Biso   1.000  N
  N21      1.0000 0.07990  0.79740  0.03970  Biso   1.000  N
  C55      1.0000 0.84480  0.07510  0.71700  Biso   1.000  C
  C56      1.0000 0.88210  0.01790  0.79300  Biso   1.000  C
  C57      1.0000 0.92240  0.98960  0.65300  Biso   1.000  C
  H44      1.0000 0.92370  0.00340  0.50710  Biso   1.000  H
  C58      1.0000 0.96410  0.93850  0.71900  Biso   1.000  C
  H45      1.0000 0.99380  0.92240  0.62020  Biso   1.000  H
  C59      1.0000 0.95840  0.91440  0.93300  Biso   1.000  C
  C60      1.0000 0.91850  0.94610  0.07300  Biso   1.000  C
  H46      1.0000 0.91720  0.93460  0.22130  Biso   1.000  H
  C61      1.0000 0.88020  0.99450  0.00100  Biso   1.000  C
  H47      1.0000 0.85170  0.01190  0.10080  Biso   1.000  H
  C62      1.0000 0.05050  0.84140  0.90500  Biso   1.000  C
  H48      1.0000 0.06400  0.85280  0.76420  Biso   1.000  H
  C63      1.0000 0.04100  0.79710  0.22600  Biso   1.000  C
  H49      1.0000 0.04830  0.77150  0.34900  Biso   1.000  H
  Cd8      1.0000 0.73064  0.32981  0.53659  Biso   1.000  Cd
  O22      1.0000 0.64330  0.40020  0.52510  Biso   1.000  O
  O23      1.0000 0.69910  0.40400  0.84110  Biso   1.000  O
  O24      1.0000 0.73260  0.31280  0.15780  Biso   1.000  O
  H50      1.0000 0.70300  0.34700  0.16000  Biso   1.000  H
  N22      1.0000 0.49910  0.63540  0.00450  Biso   1.000  N
  N23      1.0000 0.50780  0.66320  0.21350  Biso   1.000  N
  N24      1.0000 0.42010  0.70260  0.03970  Biso   1.000  N
  C64      1.0000 0.65520  0.42490  0.71700  Biso   1.000  C
  C65      1.0000 0.61790  0.48210  0.79300  Biso   1.000  C
  C66      1.0000 0.57760  0.51040  0.65300  Biso   1.000  C
  H51      1.0000 0.57630  0.49660  0.50710  Biso   1.000  H
  C67      1.0000 0.53590  0.56150  0.71900  Biso   1.000  C
  H52      1.0000 0.50620  0.57760  0.62020  Biso   1.000  H
  C68      1.0000 0.54160  0.58560  0.93300  Biso   1.000  C
  C69      1.0000 0.58150  0.55390  0.07300  Biso   1.000  C
  H53      1.0000 0.58280  0.56540  0.22130  Biso   1.000  H
  C70      1.0000 0.61980  0.50550  0.00100  Biso   1.000  C
  H54      1.0000 0.64830  0.48810  0.10080  Biso   1.000  H
  C71      1.0000 0.44950  0.65860  0.90500  Biso   1.000  C
  H55      1.0000 0.43600  0.64720  0.76420  Biso   1.000  H
  C72      1.0000 0.45900  0.70290  0.22600  Biso   1.000  C
  H56      1.0000 0.45170  0.72850  0.34900  Biso   1.000  H
