data_image0
_cell_length_a       13.2249
_cell_length_b       13.2989
_cell_length_c       20.3488
_cell_angle_alpha    81.266
_cell_angle_beta     81.426
_cell_angle_gamma    81.246

_symmetry_space_group_name_H-M    "P 1"
_symmetry_int_tables_number       1

loop_
  _symmetry_equiv_pos_as_xyz
  'x, y, z'

loop_
  _atom_site_label
  _atom_site_occupancy
  _atom_site_fract_x
  _atom_site_fract_y
  _atom_site_fract_z
  _atom_site_thermal_displace_type
  _atom_site_B_iso_or_equiv
  _atom_site_type_symbol
  Zn1      1.0000 0.84308  0.73529  0.29524  Biso   1.000  Zn
  N1       1.0000 0.73473  0.81938  0.35314  Biso   1.000  N
  C1       1.0000 0.73290  0.92010  0.35484  Biso   1.000  C
  H1       1.0000 0.78770  0.95360  0.32980  Biso   1.000  H
  C2       1.0000 0.65380  0.97740  0.39170  Biso   1.000  C
  H2       1.0000 0.65470  0.04880  0.39150  Biso   1.000  H
  C3       1.0000 0.57410  0.92940  0.42871  Biso   1.000  C
  C4       1.0000 0.57730  0.82490  0.42814  Biso   1.000  C
  H3       1.0000 0.52430  0.78930  0.45370  Biso   1.000  H
  C5       1.0000 0.65830  0.77260  0.38999  Biso   1.000  C
  H4       1.0000 0.65960  0.70100  0.39000  Biso   1.000  H
  C6       1.0000 0.48630  0.99160  0.46750  Biso   1.000  C
  H5       1.0000 0.46860  0.05880  0.44050  Biso   1.000  H
  H6       1.0000 0.42470  0.95520  0.47560  Biso   1.000  H
  N2       1.0000 0.89141  0.82871  0.20965  Biso   1.000  N
  C7       1.0000 0.83580  0.91490  0.18392  Biso   1.000  C
  H7       1.0000 0.76840  0.93400  0.20570  Biso   1.000  H
  C8       1.0000 0.87230  0.97760  0.12689  Biso   1.000  C
  H8       1.0000 0.83070  0.03830  0.11060  Biso   1.000  H
  C9       1.0000 0.97010  0.95050  0.09411  Biso   1.000  C
  C10      1.0000 0.02770  0.86100  0.12057  Biso   1.000  C
  H9       1.0000 0.09500  0.83990  0.09940  Biso   1.000  H
  C11      1.0000 0.98680  0.80290  0.17759  Biso   1.000  C
  H10      1.0000 0.02740  0.74230  0.19500  Biso   1.000  H
  C12      1.0000 0.01310  0.01640  0.03211  Biso   1.000  C
  H11      1.0000 0.08900  0.01070  0.03030  Biso   1.000  H
  H12      1.0000 0.98430  0.08910  0.03460  Biso   1.000  H
  N3       1.0000 0.75640  0.64310  0.26369  Biso   1.000  N
  C13      1.0000 0.74330  0.54960  0.29787  Biso   1.000  C
  H13      1.0000 0.77870  0.52550  0.33580  Biso   1.000  H
  C14      1.0000 0.68020  0.48800  0.27931  Biso   1.000  C
  H14      1.0000 0.67400  0.42200  0.30380  Biso   1.000  H
  C15      1.0000 0.62590  0.52180  0.22509  Biso   1.000  C
  C16      1.0000 0.63990  0.61890  0.19016  Biso   1.000  C
  H15      1.0000 0.60440  0.64540  0.15270  Biso   1.000  H
  C17      1.0000 0.70510  0.67550  0.21032  Biso   1.000  C
  H16      1.0000 0.71450  0.74070  0.18550  Biso   1.000  H
  C18      1.0000 0.55590  0.45610  0.20480  Biso   1.000  C
  H17      1.0000 0.48590  0.49500  0.20400  Biso   1.000  H
  H18      1.0000 0.55080  0.39450  0.23860  Biso   1.000  H
  Zn2      1.0000 0.29404  0.17530  0.03335  Biso   1.000  Zn
  N4       1.0000 0.40112  0.24010  0.06589  Biso   1.000  N
  C19      1.0000 0.40270  0.23920  0.13173  Biso   1.000  C
  H19      1.0000 0.35860  0.19900  0.16250  Biso   1.000  H
  C20      1.0000 0.46520  0.29390  0.15661  Biso   1.000  C
  H20      1.0000 0.46550  0.28900  0.20360  Biso   1.000  H
  C21      1.0000 0.52820  0.35660  0.11285  Biso   1.000  C
  C22      1.0000 0.52890  0.35380  0.04470  Biso   1.000  C
  H21      1.0000 0.57300  0.39250  0.01280  Biso   1.000  H
  C23      1.0000 0.46670  0.29590  0.02335  Biso   1.000  C
  H22      1.0000 0.46950  0.29470  0.97650  Biso   1.000  H
  C24      1.0000 0.59470  0.42260  0.13605  Biso   1.000  C
  H23      1.0000 0.60010  0.48470  0.10270  Biso   1.000  H
  H24      1.0000 0.66490  0.38440  0.13720  Biso   1.000  H
  N5       1.0000 0.21170  0.10950  0.11876  Biso   1.000  N
  C25      1.0000 0.24740  0.01550  0.14729  Biso   1.000  C
  H25      1.0000 0.31220  0.98320  0.12860  Biso   1.000  H
  C26      1.0000 0.19460  0.96390  0.20240  Biso   1.000  C
  H26      1.0000 0.22380  0.89830  0.22170  Biso   1.000  H
  C27      1.0000 0.09970  0.00740  0.22945  Biso   1.000  C
  C28      1.0000 0.06210  0.10490  0.20083  Biso   1.000  C
  H27      1.0000 0.99740  0.13820  0.21880  Biso   1.000  H
  C29      1.0000 0.11960  0.15320  0.14592  Biso   1.000  C
  H28      1.0000 0.09290  0.21980  0.12670  Biso   1.000  H
  C30      1.0000 0.03910  0.95280  0.28900  Biso   1.000  C
  H29      1.0000 0.05650  0.87770  0.28900  Biso   1.000  H
  H30      1.0000 0.96450  0.97110  0.28570  Biso   1.000  H
  N6       1.0000 0.86280  0.85952  0.52516  Biso   1.000  N
  C31      1.0000 0.94400  0.80020  0.49663  Biso   1.000  C
  H31      1.0000 0.95690  0.73020  0.51520  Biso   1.000  H
  C32      1.0000 0.00950  0.83640  0.44151  Biso   1.000  C
  H32      1.0000 0.06600  0.79190  0.42280  Biso   1.000  H
  C33      1.0000 0.99170  0.93870  0.41383  Biso   1.000  C
  C34      1.0000 0.90670  0.99900  0.44204  Biso   1.000  C
  H33      1.0000 0.89060  0.06850  0.42330  Biso   1.000  H
  C35      1.0000 0.84510  0.95810  0.49741  Biso   1.000  C
  H34      1.0000 0.78800  0.00120  0.51670  Biso   1.000  H
  C36      1.0000 0.06260  0.98150  0.35438  Biso   1.000  C
  H35      1.0000 0.13510  0.95470  0.36060  Biso   1.000  H
  H36      1.0000 0.05460  0.05720  0.35180  Biso   1.000  H
  N7       1.0000 0.19449  0.29569  0.99581  Biso   1.000  N
  C37      1.0000 0.21370  0.39360  0.98905  Biso   1.000  C
  H37      1.0000 0.27060  0.40770  0.00800  Biso   1.000  H
  C38      1.0000 0.15430  0.47430  0.95583  Biso   1.000  C
  H38      1.0000 0.17120  0.54210  0.95150  Biso   1.000  H
  C39      1.0000 0.06960  0.45550  0.92873  Biso   1.000  C
  C40      1.0000 0.04700  0.35570  0.93854  Biso   1.000  C
  H39      1.0000 0.98790  0.34020  0.92270  Biso   1.000  H
  C41      1.0000 0.11080  0.27840  0.97153  Biso   1.000  C
  H40      1.0000 0.09460  0.21020  0.97720  Biso   1.000  H
  C42      1.0000 0.00740  0.53820  0.88697  Biso   1.000  C
  H41      1.0000 0.01460  0.60640  0.89820  Biso   1.000  H
  H42      1.0000 0.93350  0.52890  0.89640  Biso   1.000  H
  Zn3      1.0000 0.76753  0.81168  0.60981  Biso   1.000  Zn
  N8       1.0000 0.86130  0.72516  0.67345  Biso   1.000  N
  C43      1.0000 0.96410  0.72420  0.66653  Biso   1.000  C
  H43      1.0000 0.99580  0.76630  0.62960  Biso   1.000  H
  C44      1.0000 0.02570  0.66450  0.71097  Biso   1.000  C
  H44      1.0000 0.09800  0.66650  0.70460  Biso   1.000  H
  C45      1.0000 0.98130  0.60170  0.76490  Biso   1.000  C
  C46      1.0000 0.87510  0.60290  0.77129  Biso   1.000  C
  H45      1.0000 0.84150  0.56080  0.80730  Biso   1.000  H
  C47      1.0000 0.81810  0.66480  0.72552  Biso   1.000  C
  H46      1.0000 0.74550  0.66470  0.73110  Biso   1.000  H
  C48      1.0000 0.04600  0.53220  0.81274  Biso   1.000  C
  H47      1.0000 0.11730  0.54960  0.80320  Biso   1.000  H
  H48      1.0000 0.04850  0.46050  0.80410  Biso   1.000  H
  N9       1.0000 0.68345  0.71200  0.58438  Biso   1.000  N
  C49      1.0000 0.72760  0.64310  0.54251  Biso   1.000  C
  H49      1.0000 0.79730  0.64560  0.52330  Biso   1.000  H
  C50      1.0000 0.67620  0.56970  0.52667  Biso   1.000  C
  H50      1.0000 0.71080  0.52220  0.49770  Biso   1.000  H
  C51      1.0000 0.57320  0.56470  0.55305  Biso   1.000  C
  C52      1.0000 0.52720  0.63790  0.59465  Biso   1.000  C
  H51      1.0000 0.45660  0.63900  0.61260  Biso   1.000  H
  C53      1.0000 0.58330  0.70830  0.60983  Biso   1.000  C
  H52      1.0000 0.55060  0.75610  0.63920  Biso   1.000  H
  C54      1.0000 0.51450  0.48590  0.53599  Biso   1.000  C
  H53      1.0000 0.45090  0.48150  0.56820  Biso   1.000  H
  H54      1.0000 0.55710  0.41790  0.53990  Biso   1.000  H
  Zn4      1.0000 0.15692  0.26471  0.70476  Biso   1.000  Zn
  N10      1.0000 0.26527  0.18062  0.64686  Biso   1.000  N
  C55      1.0000 0.26710  0.07990  0.64516  Biso   1.000  C
  H55      1.0000 0.21230  0.04640  0.67020  Biso   1.000  H
  C56      1.0000 0.34620  0.02260  0.60830  Biso   1.000  C
  H56      1.0000 0.34530  0.95120  0.60850  Biso   1.000  H
  C57      1.0000 0.42590  0.07060  0.57129  Biso   1.000  C
  C58      1.0000 0.42270  0.17510  0.57186  Biso   1.000  C
  H57      1.0000 0.47570  0.21070  0.54630  Biso   1.000  H
  C59      1.0000 0.34170  0.22740  0.61001  Biso   1.000  C
  H58      1.0000 0.34040  0.29900  0.61000  Biso   1.000  H
  C60      1.0000 0.51370  0.00840  0.53250  Biso   1.000  C
  H59      1.0000 0.53140  0.94120  0.55950  Biso   1.000  H
  H60      1.0000 0.57530  0.04480  0.52440  Biso   1.000  H
  N11      1.0000 0.10859  0.17129  0.79035  Biso   1.000  N
  C61      1.0000 0.16420  0.08510  0.81608  Biso   1.000  C
  H61      1.0000 0.23160  0.06600  0.79430  Biso   1.000  H
  C62      1.0000 0.12770  0.02240  0.87311  Biso   1.000  C
  H62      1.0000 0.16930  0.96170  0.88940  Biso   1.000  H
  C63      1.0000 0.02990  0.04950  0.90589  Biso   1.000  C
  C64      1.0000 0.97230  0.13900  0.87943  Biso   1.000  C
  H63      1.0000 0.90500  0.16010  0.90060  Biso   1.000  H
  C65      1.0000 0.01320  0.19710  0.82241  Biso   1.000  C
  H64      1.0000 0.97260  0.25770  0.80500  Biso   1.000  H
  C66      1.0000 0.98690  0.98360  0.96789  Biso   1.000  C
  H65      1.0000 0.91100  0.98930  0.96970  Biso   1.000  H
  H66      1.0000 0.01570  0.91090  0.96540  Biso   1.000  H
  N12      1.0000 0.24360  0.35690  0.73631  Biso   1.000  N
  C67      1.0000 0.25670  0.45040  0.70213  Biso   1.000  C
  H67      1.0000 0.22130  0.47450  0.66420  Biso   1.000  H
  C68      1.0000 0.31980  0.51200  0.72069  Biso   1.000  C
  H68      1.0000 0.32600  0.57800  0.69620  Biso   1.000  H
  C69      1.0000 0.37410  0.47820  0.77491  Biso   1.000  C
  C70      1.0000 0.36010  0.38110  0.80984  Biso   1.000  C
  H69      1.0000 0.39560  0.35460  0.84730  Biso   1.000  H
  C71      1.0000 0.29490  0.32450  0.78968  Biso   1.000  C
  H70      1.0000 0.28550  0.25930  0.81450  Biso   1.000  H
  C72      1.0000 0.44410  0.54390  0.79520  Biso   1.000  C
  H71      1.0000 0.51410  0.50500  0.79600  Biso   1.000  H
  H72      1.0000 0.44920  0.60550  0.76140  Biso   1.000  H
  Zn5      1.0000 0.70596  0.82470  0.96664  Biso   1.000  Zn
  N13      1.0000 0.59888  0.75990  0.93411  Biso   1.000  N
  C73      1.0000 0.59730  0.76080  0.86827  Biso   1.000  C
  H73      1.0000 0.64140  0.80100  0.83750  Biso   1.000  H
  C74      1.0000 0.53480  0.70610  0.84339  Biso   1.000  C
  H74      1.0000 0.53450  0.71100  0.79640  Biso   1.000  H
  C75      1.0000 0.47180  0.64340  0.88715  Biso   1.000  C
  C76      1.0000 0.47110  0.64620  0.95530  Biso   1.000  C
  H75      1.0000 0.42700  0.60750  0.98720  Biso   1.000  H
  C77      1.0000 0.53330  0.70410  0.97665  Biso   1.000  C
  H76      1.0000 0.53050  0.70530  0.02350  Biso   1.000  H
  C78      1.0000 0.40530  0.57740  0.86395  Biso   1.000  C
  H77      1.0000 0.39990  0.51530  0.89730  Biso   1.000  H
  H78      1.0000 0.33510  0.61560  0.86280  Biso   1.000  H
  N14      1.0000 0.78830  0.89050  0.88124  Biso   1.000  N
  C79      1.0000 0.75260  0.98450  0.85271  Biso   1.000  C
  H79      1.0000 0.68780  0.01680  0.87140  Biso   1.000  H
  C80      1.0000 0.80540  0.03610  0.79760  Biso   1.000  C
  H80      1.0000 0.77620  0.10170  0.77830  Biso   1.000  H
  C81      1.0000 0.90030  0.99260  0.77055  Biso   1.000  C
  C82      1.0000 0.93790  0.89510  0.79917  Biso   1.000  C
  H81      1.0000 0.00260  0.86180  0.78120  Biso   1.000  H
  C83      1.0000 0.88040  0.84680  0.85408  Biso   1.000  C
  H82      1.0000 0.90710  0.78020  0.87330  Biso   1.000  H
  C84      1.0000 0.96090  0.04720  0.71100  Biso   1.000  C
  H83      1.0000 0.94350  0.12230  0.71100  Biso   1.000  H
  H84      1.0000 0.03550  0.02890  0.71430  Biso   1.000  H
  N15      1.0000 0.13720  0.14048  0.47484  Biso   1.000  N
  C85      1.0000 0.05600  0.19980  0.50337  Biso   1.000  C
  H85      1.0000 0.04310  0.26980  0.48480  Biso   1.000  H
  C86      1.0000 0.99050  0.16360  0.55849  Biso   1.000  C
  H86      1.0000 0.93400  0.20810  0.57720  Biso   1.000  H
  C87      1.0000 0.00830  0.06130  0.58617  Biso   1.000  C
  C88      1.0000 0.09330  0.00100  0.55796  Biso   1.000  C
  H87      1.0000 0.10940  0.93150  0.57670  Biso   1.000  H
  C89      1.0000 0.15490  0.04190  0.50259  Biso   1.000  C
  H88      1.0000 0.21200  0.99880  0.48330  Biso   1.000  H
  C90      1.0000 0.93740  0.01850  0.64562  Biso   1.000  C
  H89      1.0000 0.86490  0.04530  0.63940  Biso   1.000  H
  H90      1.0000 0.94540  0.94280  0.64820  Biso   1.000  H
  N16      1.0000 0.80551  0.70431  0.00419  Biso   1.000  N
  C91      1.0000 0.78630  0.60640  0.01095  Biso   1.000  C
  H91      1.0000 0.72940  0.59230  0.99200  Biso   1.000  H
  C92      1.0000 0.84570  0.52570  0.04417  Biso   1.000  C
  H92      1.0000 0.82880  0.45790  0.04850  Biso   1.000  H
  C93      1.0000 0.93040  0.54450  0.07127  Biso   1.000  C
  C94      1.0000 0.95300  0.64430  0.06146  Biso   1.000  C
  H93      1.0000 0.01210  0.65980  0.07730  Biso   1.000  H
  C95      1.0000 0.88920  0.72160  0.02847  Biso   1.000  C
  H94      1.0000 0.90540  0.78980  0.02280  Biso   1.000  H
  C96      1.0000 0.99260  0.46180  0.11303  Biso   1.000  C
  H95      1.0000 0.98540  0.39360  0.10180  Biso   1.000  H
  H96      1.0000 0.06650  0.47110  0.10360  Biso   1.000  H
  Zn6      1.0000 0.23247  0.18832  0.39019  Biso   1.000  Zn
  N17      1.0000 0.13870  0.27484  0.32655  Biso   1.000  N
  C97      1.0000 0.03590  0.27580  0.33347  Biso   1.000  C
  H97      1.0000 0.00420  0.23370  0.37040  Biso   1.000  H
  C98      1.0000 0.97430  0.33550  0.28903  Biso   1.000  C
  H98      1.0000 0.90200  0.33350  0.29540  Biso   1.000  H
  C99      1.0000 0.01870  0.39830  0.23510  Biso   1.000  C
  C100     1.0000 0.12490  0.39710  0.22871  Biso   1.000  C
  H99      1.0000 0.15850  0.43920  0.19270  Biso   1.000  H
  C101     1.0000 0.18190  0.33520  0.27448  Biso   1.000  C
  H100     1.0000 0.25450  0.33530  0.26890  Biso   1.000  H
  C102     1.0000 0.95400  0.46780  0.18726  Biso   1.000  C
  H101     1.0000 0.88270  0.45040  0.19680  Biso   1.000  H
  H102     1.0000 0.95150  0.53950  0.19590  Biso   1.000  H
  N18      1.0000 0.31655  0.28800  0.41562  Biso   1.000  N
  C103     1.0000 0.27240  0.35690  0.45749  Biso   1.000  C
  H103     1.0000 0.20270  0.35440  0.47670  Biso   1.000  H
  C104     1.0000 0.32380  0.43030  0.47333  Biso   1.000  C
  H104     1.0000 0.28920  0.47780  0.50230  Biso   1.000  H
  C105     1.0000 0.42680  0.43530  0.44695  Biso   1.000  C
  C106     1.0000 0.47280  0.36210  0.40535  Biso   1.000  C
  H105     1.0000 0.54340  0.36100  0.38740  Biso   1.000  H
  C107     1.0000 0.41670  0.29170  0.39017  Biso   1.000  C
  H106     1.0000 0.44940  0.24390  0.36080  Biso   1.000  H
  C108     1.0000 0.48550  0.51410  0.46401  Biso   1.000  C
  H107     1.0000 0.54910  0.51850  0.43180  Biso   1.000  H
  H108     1.0000 0.44290  0.58210  0.46010  Biso   1.000  H
