data_image0
_cell_length_a       18.698
_cell_length_b       18.698
_cell_length_c       9.395
_cell_angle_alpha    90
_cell_angle_beta     90
_cell_angle_gamma    90

_symmetry_space_group_name_H-M    "P 1"
_symmetry_int_tables_number       1

loop_
  _symmetry_equiv_pos_as_xyz
  'x, y, z'

loop_
  _atom_site_label
  _atom_site_occupancy
  _atom_site_fract_x
  _atom_site_fract_y
  _atom_site_fract_z
  _atom_site_thermal_displace_type
  _atom_site_B_iso_or_equiv
  _atom_site_type_symbol
  P1       1.0000 0.56608  0.33397  0.09110  Biso   1.000  P
  P2       1.0000 0.45084  0.16591  0.83930  Biso   1.000  P
  P3       1.0000 0.56561  0.05626  0.33650  Biso   1.000  P
  Al1      1.0000 0.45454  0.33454  0.84120  Biso   1.000  Al
  Al2      1.0000 0.56429  0.44771  0.33430  Biso   1.000  Al
  Al3      1.0000 0.56381  0.16629  0.08440  Biso   1.000  Al
  O1       1.0000 0.48580  0.15820  0.98780  Biso   1.000  O
  O2       1.0000 0.37760  0.12730  0.84110  Biso   1.000  O
  O3       1.0000 0.43810  0.24570  0.80500  Biso   1.000  O
  O4       1.0000 0.49670  0.34270  0.00390  Biso   1.000  O
  O5       1.0000 0.55690  0.37100  0.23570  Biso   1.000  O
  O6       1.0000 0.63060  0.36610  0.01060  Biso   1.000  O
  O7       1.0000 0.58290  0.25450  0.11980  Biso   1.000  O
  O8       1.0000 0.50000  0.13460  0.72320  Biso   1.000  O
  O9       1.0000 0.49480  0.01510  0.32320  Biso   1.000  O
  O10      1.0000 0.57830  0.07930  0.49160  Biso   1.000  O
  O11      1.0000 0.62910  0.01050  0.28730  Biso   1.000  O
  O12      1.0000 0.55940  0.12490  0.24660  Biso   1.000  O
  P4       1.0000 0.93392  0.16603  0.09110  Biso   1.000  P
  P5       1.0000 0.04916  0.33409  0.83930  Biso   1.000  P
  P6       1.0000 0.93439  0.44374  0.33650  Biso   1.000  P
  Al4      1.0000 0.04546  0.16546  0.84120  Biso   1.000  Al
  Al5      1.0000 0.93571  0.05229  0.33430  Biso   1.000  Al
  Al6      1.0000 0.93619  0.33371  0.08440  Biso   1.000  Al
  O13      1.0000 0.01420  0.34180  0.98780  Biso   1.000  O
  O14      1.0000 0.12240  0.37270  0.84110  Biso   1.000  O
  O15      1.0000 0.06190  0.25430  0.80500  Biso   1.000  O
  O16      1.0000 0.00330  0.15730  0.00390  Biso   1.000  O
  O17      1.0000 0.94310  0.12900  0.23570  Biso   1.000  O
  O18      1.0000 0.86940  0.13390  0.01060  Biso   1.000  O
  O19      1.0000 0.91710  0.24550  0.11980  Biso   1.000  O
  O20      1.0000 0.00000  0.36540  0.72320  Biso   1.000  O
  O21      1.0000 0.00520  0.48490  0.32320  Biso   1.000  O
  O22      1.0000 0.92170  0.42070  0.49160  Biso   1.000  O
  O23      1.0000 0.87090  0.48950  0.28730  Biso   1.000  O
  O24      1.0000 0.94060  0.37510  0.24660  Biso   1.000  O
  P7       1.0000 0.16603  0.56608  0.09110  Biso   1.000  P
  P8       1.0000 0.33409  0.45084  0.83930  Biso   1.000  P
  P9       1.0000 0.44374  0.56561  0.33650  Biso   1.000  P
  Al7      1.0000 0.16546  0.45454  0.84120  Biso   1.000  Al
  Al8      1.0000 0.05229  0.56429  0.33430  Biso   1.000  Al
  Al9      1.0000 0.33371  0.56381  0.08440  Biso   1.000  Al
  O25      1.0000 0.34180  0.48580  0.98780  Biso   1.000  O
  O26      1.0000 0.37270  0.37760  0.84110  Biso   1.000  O
  O27      1.0000 0.25430  0.43810  0.80500  Biso   1.000  O
  O28      1.0000 0.15730  0.49670  0.00390  Biso   1.000  O
  O29      1.0000 0.12900  0.55690  0.23570  Biso   1.000  O
  O30      1.0000 0.13390  0.63060  0.01060  Biso   1.000  O
  O31      1.0000 0.24550  0.58290  0.11980  Biso   1.000  O
  O32      1.0000 0.36540  0.50000  0.72320  Biso   1.000  O
  O33      1.0000 0.48490  0.49480  0.32320  Biso   1.000  O
  O34      1.0000 0.42070  0.57830  0.49160  Biso   1.000  O
  O35      1.0000 0.48950  0.62910  0.28730  Biso   1.000  O
  O36      1.0000 0.37510  0.55940  0.24660  Biso   1.000  O
  P10      1.0000 0.33397  0.93392  0.09110  Biso   1.000  P
  P11      1.0000 0.16591  0.04916  0.83930  Biso   1.000  P
  P12      1.0000 0.05626  0.93439  0.33650  Biso   1.000  P
  Al10     1.0000 0.33454  0.04546  0.84120  Biso   1.000  Al
  Al11     1.0000 0.44771  0.93571  0.33430  Biso   1.000  Al
  Al12     1.0000 0.16629  0.93619  0.08440  Biso   1.000  Al
  O37      1.0000 0.15820  0.01420  0.98780  Biso   1.000  O
  O38      1.0000 0.12730  0.12240  0.84110  Biso   1.000  O
  O39      1.0000 0.24570  0.06190  0.80500  Biso   1.000  O
  O40      1.0000 0.34270  0.00330  0.00390  Biso   1.000  O
  O41      1.0000 0.37100  0.94310  0.23570  Biso   1.000  O
  O42      1.0000 0.36610  0.86940  0.01060  Biso   1.000  O
  O43      1.0000 0.25450  0.91710  0.11980  Biso   1.000  O
  O44      1.0000 0.13460  0.00000  0.72320  Biso   1.000  O
  O45      1.0000 0.01510  0.00520  0.32320  Biso   1.000  O
  O46      1.0000 0.07930  0.92170  0.49160  Biso   1.000  O
  O47      1.0000 0.01050  0.87090  0.28730  Biso   1.000  O
  O48      1.0000 0.12490  0.94060  0.24660  Biso   1.000  O
  P13      1.0000 0.43392  0.66603  0.90890  Biso   1.000  P
  P14      1.0000 0.54916  0.83409  0.16070  Biso   1.000  P
  P15      1.0000 0.43439  0.94374  0.66350  Biso   1.000  P
  Al13     1.0000 0.54546  0.66546  0.15880  Biso   1.000  Al
  Al14     1.0000 0.43571  0.55229  0.66570  Biso   1.000  Al
  Al15     1.0000 0.43619  0.83371  0.91560  Biso   1.000  Al
  O49      1.0000 0.51420  0.84180  0.01220  Biso   1.000  O
  O50      1.0000 0.62240  0.87270  0.15890  Biso   1.000  O
  O51      1.0000 0.56190  0.75430  0.19500  Biso   1.000  O
  O52      1.0000 0.50330  0.65730  0.99610  Biso   1.000  O
  O53      1.0000 0.44310  0.62900  0.76430  Biso   1.000  O
  O54      1.0000 0.36940  0.63390  0.98940  Biso   1.000  O
  O55      1.0000 0.41710  0.74550  0.88020  Biso   1.000  O
  O56      1.0000 0.50000  0.86540  0.27680  Biso   1.000  O
  O57      1.0000 0.50520  0.98490  0.67680  Biso   1.000  O
  O58      1.0000 0.42170  0.92070  0.50840  Biso   1.000  O
  O59      1.0000 0.37090  0.98950  0.71270  Biso   1.000  O
  O60      1.0000 0.44060  0.87510  0.75340  Biso   1.000  O
  P16      1.0000 0.06608  0.83397  0.90890  Biso   1.000  P
  P17      1.0000 0.95084  0.66591  0.16070  Biso   1.000  P
  P18      1.0000 0.06561  0.55626  0.66350  Biso   1.000  P
  Al16     1.0000 0.95454  0.83454  0.15880  Biso   1.000  Al
  Al17     1.0000 0.06429  0.94771  0.66570  Biso   1.000  Al
  Al18     1.0000 0.06381  0.66629  0.91560  Biso   1.000  Al
  O61      1.0000 0.98580  0.65820  0.01220  Biso   1.000  O
  O62      1.0000 0.87760  0.62730  0.15890  Biso   1.000  O
  O63      1.0000 0.93810  0.74570  0.19500  Biso   1.000  O
  O64      1.0000 0.99670  0.84270  0.99610  Biso   1.000  O
  O65      1.0000 0.05690  0.87100  0.76430  Biso   1.000  O
  O66      1.0000 0.13060  0.86610  0.98940  Biso   1.000  O
  O67      1.0000 0.08290  0.75450  0.88020  Biso   1.000  O
  O68      1.0000 0.00000  0.63460  0.27680  Biso   1.000  O
  O69      1.0000 0.99480  0.51510  0.67680  Biso   1.000  O
  O70      1.0000 0.07830  0.57930  0.50840  Biso   1.000  O
  O71      1.0000 0.12910  0.51050  0.71270  Biso   1.000  O
  O72      1.0000 0.05940  0.62490  0.75340  Biso   1.000  O
  P19      1.0000 0.83397  0.43392  0.90890  Biso   1.000  P
  P20      1.0000 0.66591  0.54916  0.16070  Biso   1.000  P
  P21      1.0000 0.55626  0.43439  0.66350  Biso   1.000  P
  Al19     1.0000 0.83454  0.54546  0.15880  Biso   1.000  Al
  Al20     1.0000 0.94771  0.43571  0.66570  Biso   1.000  Al
  Al21     1.0000 0.66629  0.43619  0.91560  Biso   1.000  Al
  O73      1.0000 0.65820  0.51420  0.01220  Biso   1.000  O
  O74      1.0000 0.62730  0.62240  0.15890  Biso   1.000  O
  O75      1.0000 0.74570  0.56190  0.19500  Biso   1.000  O
  O76      1.0000 0.84270  0.50330  0.99610  Biso   1.000  O
  O77      1.0000 0.87100  0.44310  0.76430  Biso   1.000  O
  O78      1.0000 0.86610  0.36940  0.98940  Biso   1.000  O
  O79      1.0000 0.75450  0.41710  0.88020  Biso   1.000  O
  O80      1.0000 0.63460  0.50000  0.27680  Biso   1.000  O
  O81      1.0000 0.51510  0.50520  0.67680  Biso   1.000  O
  O82      1.0000 0.57930  0.42170  0.50840  Biso   1.000  O
  O83      1.0000 0.51050  0.37090  0.71270  Biso   1.000  O
  O84      1.0000 0.62490  0.44060  0.75340  Biso   1.000  O
  P22      1.0000 0.66603  0.06608  0.90890  Biso   1.000  P
  P23      1.0000 0.83409  0.95084  0.16070  Biso   1.000  P
  P24      1.0000 0.94374  0.06561  0.66350  Biso   1.000  P
  Al22     1.0000 0.66546  0.95454  0.15880  Biso   1.000  Al
  Al23     1.0000 0.55229  0.06429  0.66570  Biso   1.000  Al
  Al24     1.0000 0.83371  0.06381  0.91560  Biso   1.000  Al
  O85      1.0000 0.84180  0.98580  0.01220  Biso   1.000  O
  O86      1.0000 0.87270  0.87760  0.15890  Biso   1.000  O
  O87      1.0000 0.75430  0.93810  0.19500  Biso   1.000  O
  O88      1.0000 0.65730  0.99670  0.99610  Biso   1.000  O
  O89      1.0000 0.62900  0.05690  0.76430  Biso   1.000  O
  O90      1.0000 0.63390  0.13060  0.98940  Biso   1.000  O
  O91      1.0000 0.74550  0.08290  0.88020  Biso   1.000  O
  O92      1.0000 0.86540  0.00000  0.27680  Biso   1.000  O
  O93      1.0000 0.98490  0.99480  0.67680  Biso   1.000  O
  O94      1.0000 0.92070  0.07830  0.50840  Biso   1.000  O
  O95      1.0000 0.98950  0.12910  0.71270  Biso   1.000  O
  O96      1.0000 0.87510  0.05940  0.75340  Biso   1.000  O
