data_image0
_cell_length_a       18.7119
_cell_length_b       18.7119
_cell_length_c       9.3991
_cell_angle_alpha    90
_cell_angle_beta     90
_cell_angle_gamma    90

_symmetry_space_group_name_H-M    "P 1"
_symmetry_int_tables_number       1

loop_
  _symmetry_equiv_pos_as_xyz
  'x, y, z'

loop_
  _atom_site_label
  _atom_site_occupancy
  _atom_site_fract_x
  _atom_site_fract_y
  _atom_site_fract_z
  _atom_site_thermal_displace_type
  _atom_site_B_iso_or_equiv
  _atom_site_type_symbol
  Si1      1.0000 0.66733  0.43493  0.59263  Biso   1.000  Si
  Si2      1.0000 0.83241  0.55072  0.34042  Biso   1.000  Si
  P1       1.0000 0.05259  0.56170  0.16585  Biso   1.000  P
  Al1      1.0000 0.66460  0.54488  0.33858  Biso   1.000  Al
  Al2      1.0000 0.83449  0.43375  0.59170  Biso   1.000  Al
  Al3      1.0000 0.93016  0.44186  0.15934  Biso   1.000  Al
  O1       1.0000 0.65868  0.50071  0.50739  Biso   1.000  O
  O2       1.0000 0.74802  0.42037  0.62086  Biso   1.000  O
  O3       1.0000 0.63561  0.36951  0.52128  Biso   1.000  O
  O4       1.0000 0.63462  0.44221  0.74275  Biso   1.000  O
  O5       1.0000 0.75242  0.56204  0.30635  Biso   1.000  O
  O6       1.0000 0.00651  0.62645  0.20640  Biso   1.000  O
  O7       1.0000 0.87003  0.61837  0.34592  Biso   1.000  O
  O8       1.0000 0.84068  0.51982  0.48882  Biso   1.000  O
  O9       1.0000 0.85918  0.49824  0.22132  Biso   1.000  O
  O10      1.0000 0.11797  0.56803  0.25217  Biso   1.000  O
  O11      1.0000 0.07864  0.57980  0.00746  Biso   1.000  O
  O12      1.0000 0.01487  0.49539  0.17445  Biso   1.000  O
  Si3      1.0000 0.83267  0.06507  0.59263  Biso   1.000  Si
  Si4      1.0000 0.66759  0.94928  0.34042  Biso   1.000  Si
  P2       1.0000 0.44741  0.93830  0.16585  Biso   1.000  P
  Al4      1.0000 0.83540  0.95512  0.33858  Biso   1.000  Al
  Al5      1.0000 0.66551  0.06625  0.59170  Biso   1.000  Al
  Al6      1.0000 0.56984  0.05814  0.15934  Biso   1.000  Al
  O13      1.0000 0.84132  0.99929  0.50739  Biso   1.000  O
  O14      1.0000 0.75198  0.07963  0.62086  Biso   1.000  O
  O15      1.0000 0.86439  0.13049  0.52128  Biso   1.000  O
  O16      1.0000 0.86538  0.05779  0.74275  Biso   1.000  O
  O17      1.0000 0.74758  0.93796  0.30635  Biso   1.000  O
  O18      1.0000 0.49349  0.87355  0.20640  Biso   1.000  O
  O19      1.0000 0.62997  0.88163  0.34592  Biso   1.000  O
  O20      1.0000 0.65932  0.98018  0.48882  Biso   1.000  O
  O21      1.0000 0.64082  0.00176  0.22132  Biso   1.000  O
  O22      1.0000 0.38203  0.93197  0.25217  Biso   1.000  O
  O23      1.0000 0.42136  0.92020  0.00746  Biso   1.000  O
  O24      1.0000 0.48513  0.00461  0.17445  Biso   1.000  O
  Si5      1.0000 0.06507  0.66733  0.59263  Biso   1.000  Si
  Si6      1.0000 0.94928  0.83241  0.34042  Biso   1.000  Si
  P3       1.0000 0.93830  0.05259  0.16585  Biso   1.000  P
  Al7      1.0000 0.95512  0.66460  0.33858  Biso   1.000  Al
  Al8      1.0000 0.06625  0.83449  0.59170  Biso   1.000  Al
  Al9      1.0000 0.05814  0.93016  0.15934  Biso   1.000  Al
  O25      1.0000 0.99929  0.65868  0.50739  Biso   1.000  O
  O26      1.0000 0.07963  0.74802  0.62086  Biso   1.000  O
  O27      1.0000 0.13049  0.63561  0.52128  Biso   1.000  O
  O28      1.0000 0.05779  0.63462  0.74275  Biso   1.000  O
  O29      1.0000 0.93796  0.75242  0.30635  Biso   1.000  O
  O30      1.0000 0.87355  0.00651  0.20640  Biso   1.000  O
  O31      1.0000 0.88163  0.87003  0.34592  Biso   1.000  O
  O32      1.0000 0.98018  0.84068  0.48882  Biso   1.000  O
  O33      1.0000 0.00176  0.85918  0.22132  Biso   1.000  O
  O34      1.0000 0.93197  0.11797  0.25217  Biso   1.000  O
  O35      1.0000 0.92020  0.07864  0.00746  Biso   1.000  O
  O36      1.0000 0.00461  0.01487  0.17445  Biso   1.000  O
  Si7      1.0000 0.43493  0.83267  0.59263  Biso   1.000  Si
  Si8      1.0000 0.55072  0.66759  0.34042  Biso   1.000  Si
  P4       1.0000 0.56170  0.44741  0.16585  Biso   1.000  P
  Al10     1.0000 0.54488  0.83540  0.33858  Biso   1.000  Al
  Al11     1.0000 0.43375  0.66551  0.59170  Biso   1.000  Al
  Al12     1.0000 0.44186  0.56984  0.15934  Biso   1.000  Al
  O37      1.0000 0.50071  0.84132  0.50739  Biso   1.000  O
  O38      1.0000 0.42037  0.75198  0.62086  Biso   1.000  O
  O39      1.0000 0.36951  0.86439  0.52128  Biso   1.000  O
  O40      1.0000 0.44221  0.86538  0.74275  Biso   1.000  O
  O41      1.0000 0.56204  0.74758  0.30635  Biso   1.000  O
  O42      1.0000 0.62645  0.49349  0.20640  Biso   1.000  O
  O43      1.0000 0.61837  0.62997  0.34592  Biso   1.000  O
  O44      1.0000 0.51982  0.65932  0.48882  Biso   1.000  O
  O45      1.0000 0.49824  0.64082  0.22132  Biso   1.000  O
  O46      1.0000 0.56803  0.38203  0.25217  Biso   1.000  O
  O47      1.0000 0.57980  0.42136  0.00746  Biso   1.000  O
  O48      1.0000 0.49539  0.48513  0.17445  Biso   1.000  O
  Si9      1.0000 0.33267  0.56507  0.40737  Biso   1.000  Si
  Si10     1.0000 0.16759  0.44928  0.65958  Biso   1.000  Si
  P5       1.0000 0.94741  0.43830  0.83415  Biso   1.000  P
  Al13     1.0000 0.33540  0.45512  0.66142  Biso   1.000  Al
  Al14     1.0000 0.16551  0.56625  0.40830  Biso   1.000  Al
  Al15     1.0000 0.06984  0.55814  0.84066  Biso   1.000  Al
  O49      1.0000 0.34132  0.49929  0.49261  Biso   1.000  O
  O50      1.0000 0.25198  0.57963  0.37914  Biso   1.000  O
  O51      1.0000 0.36439  0.63049  0.47872  Biso   1.000  O
  O52      1.0000 0.36538  0.55779  0.25725  Biso   1.000  O
  O53      1.0000 0.24758  0.43796  0.69365  Biso   1.000  O
  O54      1.0000 0.99349  0.37355  0.79360  Biso   1.000  O
  O55      1.0000 0.12997  0.38163  0.65408  Biso   1.000  O
  O56      1.0000 0.15932  0.48018  0.51118  Biso   1.000  O
  O57      1.0000 0.14082  0.50176  0.77868  Biso   1.000  O
  O58      1.0000 0.88203  0.43197  0.74783  Biso   1.000  O
  O59      1.0000 0.92136  0.42020  0.99254  Biso   1.000  O
  O60      1.0000 0.98513  0.50461  0.82555  Biso   1.000  O
  Si11     1.0000 0.16733  0.93493  0.40737  Biso   1.000  Si
  Si12     1.0000 0.33241  0.05072  0.65958  Biso   1.000  Si
  P6       1.0000 0.55259  0.06170  0.83415  Biso   1.000  P
  Al16     1.0000 0.16460  0.04488  0.66142  Biso   1.000  Al
  Al17     1.0000 0.33449  0.93375  0.40830  Biso   1.000  Al
  Al18     1.0000 0.43016  0.94186  0.84066  Biso   1.000  Al
  O61      1.0000 0.15868  0.00071  0.49261  Biso   1.000  O
  O62      1.0000 0.24802  0.92037  0.37914  Biso   1.000  O
  O63      1.0000 0.13561  0.86951  0.47872  Biso   1.000  O
  O64      1.0000 0.13462  0.94221  0.25725  Biso   1.000  O
  O65      1.0000 0.25242  0.06204  0.69365  Biso   1.000  O
  O66      1.0000 0.50651  0.12645  0.79360  Biso   1.000  O
  O67      1.0000 0.37003  0.11837  0.65408  Biso   1.000  O
  O68      1.0000 0.34068  0.01982  0.51118  Biso   1.000  O
  O69      1.0000 0.35918  0.99824  0.77868  Biso   1.000  O
  O70      1.0000 0.61797  0.06803  0.74783  Biso   1.000  O
  O71      1.0000 0.57864  0.07980  0.99254  Biso   1.000  O
  O72      1.0000 0.51487  0.99539  0.82555  Biso   1.000  O
  Si13     1.0000 0.93493  0.33267  0.40737  Biso   1.000  Si
  Si14     1.0000 0.05072  0.16759  0.65958  Biso   1.000  Si
  P7       1.0000 0.06170  0.94741  0.83415  Biso   1.000  P
  Al19     1.0000 0.04488  0.33540  0.66142  Biso   1.000  Al
  Al20     1.0000 0.93375  0.16551  0.40830  Biso   1.000  Al
  Al21     1.0000 0.94186  0.06984  0.84066  Biso   1.000  Al
  O73      1.0000 0.00071  0.34132  0.49261  Biso   1.000  O
  O74      1.0000 0.92037  0.25198  0.37914  Biso   1.000  O
  O75      1.0000 0.86951  0.36439  0.47872  Biso   1.000  O
  O76      1.0000 0.94221  0.36538  0.25725  Biso   1.000  O
  O77      1.0000 0.06204  0.24758  0.69365  Biso   1.000  O
  O78      1.0000 0.12645  0.99349  0.79360  Biso   1.000  O
  O79      1.0000 0.11837  0.12997  0.65408  Biso   1.000  O
  O80      1.0000 0.01982  0.15932  0.51118  Biso   1.000  O
  O81      1.0000 0.99824  0.14082  0.77868  Biso   1.000  O
  O82      1.0000 0.06803  0.88203  0.74783  Biso   1.000  O
  O83      1.0000 0.07980  0.92136  0.99254  Biso   1.000  O
  O84      1.0000 0.99539  0.98513  0.82555  Biso   1.000  O
  Si15     1.0000 0.56507  0.16733  0.40737  Biso   1.000  Si
  Si16     1.0000 0.44928  0.33241  0.65958  Biso   1.000  Si
  P8       1.0000 0.43830  0.55259  0.83415  Biso   1.000  P
  Al22     1.0000 0.45512  0.16460  0.66142  Biso   1.000  Al
  Al23     1.0000 0.56625  0.33449  0.40830  Biso   1.000  Al
  Al24     1.0000 0.55814  0.43016  0.84066  Biso   1.000  Al
  O85      1.0000 0.49929  0.15868  0.49261  Biso   1.000  O
  O86      1.0000 0.57963  0.24802  0.37914  Biso   1.000  O
  O87      1.0000 0.63049  0.13561  0.47872  Biso   1.000  O
  O88      1.0000 0.55779  0.13462  0.25725  Biso   1.000  O
  O89      1.0000 0.43796  0.25242  0.69365  Biso   1.000  O
  O90      1.0000 0.37355  0.50651  0.79360  Biso   1.000  O
  O91      1.0000 0.38163  0.37003  0.65408  Biso   1.000  O
  O92      1.0000 0.48018  0.34068  0.51118  Biso   1.000  O
  O93      1.0000 0.50176  0.35918  0.77868  Biso   1.000  O
  O94      1.0000 0.43197  0.61797  0.74783  Biso   1.000  O
  O95      1.0000 0.42020  0.57864  0.99254  Biso   1.000  O
  O96      1.0000 0.50461  0.51487  0.82555  Biso   1.000  O
