data_image0
_cell_length_a       18.741
_cell_length_b       18.741
_cell_length_c       9.414
_cell_angle_alpha    90
_cell_angle_beta     90
_cell_angle_gamma    90

_symmetry_space_group_name_H-M    "P 1"
_symmetry_int_tables_number       1

loop_
  _symmetry_equiv_pos_as_xyz
  'x, y, z'

loop_
  _atom_site_label
  _atom_site_occupancy
  _atom_site_fract_x
  _atom_site_fract_y
  _atom_site_fract_z
  _atom_site_thermal_displace_type
  _atom_site_B_iso_or_equiv
  _atom_site_type_symbol
  P1       1.0000 0.56500  0.05240  0.33410  Biso   1.000  P
  P2       1.0000 0.66590  0.06410  0.91600  Biso   1.000  P
  P3       1.0000 0.45450  0.16530  0.84280  Biso   1.000  P
  Al1      1.0000 0.56590  0.16605  0.09250  Biso   1.000  Al
  Al2      1.0000 0.66653  0.95050  0.15980  Biso   1.000  Al
  Al3      1.0000 0.44392  0.93480  0.33630  Biso   1.000  Al
  O1       1.0000 0.65880  0.98730  0.01070  Biso   1.000  O
  O2       1.0000 0.49580  0.15720  0.00700  Biso   1.000  O
  O3       1.0000 0.62480  0.05810  0.75130  Biso   1.000  O
  O4       1.0000 0.37250  0.12230  0.84130  Biso   1.000  O
  O5       1.0000 0.43810  0.25390  0.80510  Biso   1.000  O
  O6       1.0000 0.75410  0.08120  0.87960  Biso   1.000  O
  O7       1.0000 0.51000  0.12910  0.71300  Biso   1.000  O
  O8       1.0000 0.63050  0.13440  0.01170  Biso   1.000  O
  O9       1.0000 0.48490  0.00570  0.32550  Biso   1.000  O
  O10      1.0000 0.57920  0.07760  0.51060  Biso   1.000  O
  O11      1.0000 0.55770  0.12820  0.23720  Biso   1.000  O
  O12      1.0000 0.63500  0.00020  0.27810  Biso   1.000  O
  P4       1.0000 0.93500  0.44760  0.33410  Biso   1.000  P
  P5       1.0000 0.83410  0.43590  0.91600  Biso   1.000  P
  P6       1.0000 0.04550  0.33470  0.84280  Biso   1.000  P
  Al4      1.0000 0.93410  0.33395  0.09250  Biso   1.000  Al
  Al5      1.0000 0.83347  0.54950  0.15980  Biso   1.000  Al
  Al6      1.0000 0.05608  0.56520  0.33630  Biso   1.000  Al
  O13      1.0000 0.84120  0.51270  0.01070  Biso   1.000  O
  O14      1.0000 0.00420  0.34280  0.00700  Biso   1.000  O
  O15      1.0000 0.87520  0.44190  0.75130  Biso   1.000  O
  O16      1.0000 0.12750  0.37770  0.84130  Biso   1.000  O
  O17      1.0000 0.06190  0.24610  0.80510  Biso   1.000  O
  O18      1.0000 0.74590  0.41880  0.87960  Biso   1.000  O
  O19      1.0000 0.99000  0.37090  0.71300  Biso   1.000  O
  O20      1.0000 0.86950  0.36560  0.01170  Biso   1.000  O
  O21      1.0000 0.01510  0.49430  0.32550  Biso   1.000  O
  O22      1.0000 0.92080  0.42240  0.51060  Biso   1.000  O
  O23      1.0000 0.94230  0.37180  0.23720  Biso   1.000  O
  O24      1.0000 0.86500  0.49980  0.27810  Biso   1.000  O
  P7       1.0000 0.44760  0.56500  0.33410  Biso   1.000  P
  P8       1.0000 0.43590  0.66590  0.91600  Biso   1.000  P
  P9       1.0000 0.33470  0.45450  0.84280  Biso   1.000  P
  Al7      1.0000 0.33395  0.56590  0.09250  Biso   1.000  Al
  Al8      1.0000 0.54950  0.66653  0.15980  Biso   1.000  Al
  Al9      1.0000 0.56520  0.44392  0.33630  Biso   1.000  Al
  O25      1.0000 0.51270  0.65880  0.01070  Biso   1.000  O
  O26      1.0000 0.34280  0.49580  0.00700  Biso   1.000  O
  O27      1.0000 0.44190  0.62480  0.75130  Biso   1.000  O
  O28      1.0000 0.37770  0.37250  0.84130  Biso   1.000  O
  O29      1.0000 0.24610  0.43810  0.80510  Biso   1.000  O
  O30      1.0000 0.41880  0.75410  0.87960  Biso   1.000  O
  O31      1.0000 0.37090  0.51000  0.71300  Biso   1.000  O
  O32      1.0000 0.36560  0.63050  0.01170  Biso   1.000  O
  O33      1.0000 0.49430  0.48490  0.32550  Biso   1.000  O
  O34      1.0000 0.42240  0.57920  0.51060  Biso   1.000  O
  O35      1.0000 0.37180  0.55770  0.23720  Biso   1.000  O
  O36      1.0000 0.49980  0.63500  0.27810  Biso   1.000  O
  P10      1.0000 0.05240  0.93500  0.33410  Biso   1.000  P
  P11      1.0000 0.06410  0.83410  0.91600  Biso   1.000  P
  P12      1.0000 0.16530  0.04550  0.84280  Biso   1.000  P
  Al10     1.0000 0.16605  0.93410  0.09250  Biso   1.000  Al
  Al11     1.0000 0.95050  0.83347  0.15980  Biso   1.000  Al
  Al12     1.0000 0.93480  0.05608  0.33630  Biso   1.000  Al
  O37      1.0000 0.98730  0.84120  0.01070  Biso   1.000  O
  O38      1.0000 0.15720  0.00420  0.00700  Biso   1.000  O
  O39      1.0000 0.05810  0.87520  0.75130  Biso   1.000  O
  O40      1.0000 0.12230  0.12750  0.84130  Biso   1.000  O
  O41      1.0000 0.25390  0.06190  0.80510  Biso   1.000  O
  O42      1.0000 0.08120  0.74590  0.87960  Biso   1.000  O
  O43      1.0000 0.12910  0.99000  0.71300  Biso   1.000  O
  O44      1.0000 0.13440  0.86950  0.01170  Biso   1.000  O
  O45      1.0000 0.00570  0.01510  0.32550  Biso   1.000  O
  O46      1.0000 0.07760  0.92080  0.51060  Biso   1.000  O
  O47      1.0000 0.12820  0.94230  0.23720  Biso   1.000  O
  O48      1.0000 0.00020  0.86500  0.27810  Biso   1.000  O
  P13      1.0000 0.43500  0.94760  0.66590  Biso   1.000  P
  P14      1.0000 0.33410  0.93590  0.08400  Biso   1.000  P
  P15      1.0000 0.54550  0.83470  0.15720  Biso   1.000  P
  Al13     1.0000 0.43410  0.83395  0.90750  Biso   1.000  Al
  Al14     1.0000 0.33347  0.04950  0.84020  Biso   1.000  Al
  Al15     1.0000 0.55608  0.06520  0.66370  Biso   1.000  Al
  O49      1.0000 0.34120  0.01270  0.98930  Biso   1.000  O
  O50      1.0000 0.50420  0.84280  0.99300  Biso   1.000  O
  O51      1.0000 0.37520  0.94190  0.24870  Biso   1.000  O
  O52      1.0000 0.62750  0.87770  0.15870  Biso   1.000  O
  O53      1.0000 0.56190  0.74610  0.19490  Biso   1.000  O
  O54      1.0000 0.24590  0.91880  0.12040  Biso   1.000  O
  O55      1.0000 0.49000  0.87090  0.28700  Biso   1.000  O
  O56      1.0000 0.36950  0.86560  0.98830  Biso   1.000  O
  O57      1.0000 0.51510  0.99430  0.67450  Biso   1.000  O
  O58      1.0000 0.42080  0.92240  0.48940  Biso   1.000  O
  O59      1.0000 0.44230  0.87180  0.76280  Biso   1.000  O
  O60      1.0000 0.36500  0.99980  0.72190  Biso   1.000  O
  P16      1.0000 0.06500  0.55240  0.66590  Biso   1.000  P
  P17      1.0000 0.16590  0.56410  0.08400  Biso   1.000  P
  P18      1.0000 0.95450  0.66530  0.15720  Biso   1.000  P
  Al16     1.0000 0.06590  0.66605  0.90750  Biso   1.000  Al
  Al17     1.0000 0.16653  0.45050  0.84020  Biso   1.000  Al
  Al18     1.0000 0.94392  0.43480  0.66370  Biso   1.000  Al
  O61      1.0000 0.15880  0.48730  0.98930  Biso   1.000  O
  O62      1.0000 0.99580  0.65720  0.99300  Biso   1.000  O
  O63      1.0000 0.12480  0.55810  0.24870  Biso   1.000  O
  O64      1.0000 0.87250  0.62230  0.15870  Biso   1.000  O
  O65      1.0000 0.93810  0.75390  0.19490  Biso   1.000  O
  O66      1.0000 0.25410  0.58120  0.12040  Biso   1.000  O
  O67      1.0000 0.01000  0.62910  0.28700  Biso   1.000  O
  O68      1.0000 0.13050  0.63440  0.98830  Biso   1.000  O
  O69      1.0000 0.98490  0.50570  0.67450  Biso   1.000  O
  O70      1.0000 0.07920  0.57760  0.48940  Biso   1.000  O
  O71      1.0000 0.05770  0.62820  0.76280  Biso   1.000  O
  O72      1.0000 0.13500  0.50020  0.72190  Biso   1.000  O
  P19      1.0000 0.55240  0.43500  0.66590  Biso   1.000  P
  P20      1.0000 0.56410  0.33410  0.08400  Biso   1.000  P
  P21      1.0000 0.66530  0.54550  0.15720  Biso   1.000  P
  Al19     1.0000 0.66605  0.43410  0.90750  Biso   1.000  Al
  Al20     1.0000 0.45050  0.33347  0.84020  Biso   1.000  Al
  Al21     1.0000 0.43480  0.55608  0.66370  Biso   1.000  Al
  O73      1.0000 0.48730  0.34120  0.98930  Biso   1.000  O
  O74      1.0000 0.65720  0.50420  0.99300  Biso   1.000  O
  O75      1.0000 0.55810  0.37520  0.24870  Biso   1.000  O
  O76      1.0000 0.62230  0.62750  0.15870  Biso   1.000  O
  O77      1.0000 0.75390  0.56190  0.19490  Biso   1.000  O
  O78      1.0000 0.58120  0.24590  0.12040  Biso   1.000  O
  O79      1.0000 0.62910  0.49000  0.28700  Biso   1.000  O
  O80      1.0000 0.63440  0.36950  0.98830  Biso   1.000  O
  O81      1.0000 0.50570  0.51510  0.67450  Biso   1.000  O
  O82      1.0000 0.57760  0.42080  0.48940  Biso   1.000  O
  O83      1.0000 0.62820  0.44230  0.76280  Biso   1.000  O
  O84      1.0000 0.50020  0.36500  0.72190  Biso   1.000  O
  P22      1.0000 0.94760  0.06500  0.66590  Biso   1.000  P
  P23      1.0000 0.93590  0.16590  0.08400  Biso   1.000  P
  P24      1.0000 0.83470  0.95450  0.15720  Biso   1.000  P
  Al22     1.0000 0.83395  0.06590  0.90750  Biso   1.000  Al
  Al23     1.0000 0.04950  0.16653  0.84020  Biso   1.000  Al
  Al24     1.0000 0.06520  0.94392  0.66370  Biso   1.000  Al
  O85      1.0000 0.01270  0.15880  0.98930  Biso   1.000  O
  O86      1.0000 0.84280  0.99580  0.99300  Biso   1.000  O
  O87      1.0000 0.94190  0.12480  0.24870  Biso   1.000  O
  O88      1.0000 0.87770  0.87250  0.15870  Biso   1.000  O
  O89      1.0000 0.74610  0.93810  0.19490  Biso   1.000  O
  O90      1.0000 0.91880  0.25410  0.12040  Biso   1.000  O
  O91      1.0000 0.87090  0.01000  0.28700  Biso   1.000  O
  O92      1.0000 0.86560  0.13050  0.98830  Biso   1.000  O
  O93      1.0000 0.99430  0.98490  0.67450  Biso   1.000  O
  O94      1.0000 0.92240  0.07920  0.48940  Biso   1.000  O
  O95      1.0000 0.87180  0.05770  0.76280  Biso   1.000  O
  O96      1.0000 0.99980  0.13500  0.72190  Biso   1.000  O
