data_image0
_cell_length_a       13.95
_cell_length_b       26.713
_cell_length_c       7.628
_cell_angle_alpha    90
_cell_angle_beta     90
_cell_angle_gamma    90

_symmetry_space_group_name_H-M    "P 1"
_symmetry_int_tables_number       1

loop_
  _symmetry_equiv_pos_as_xyz
  'x, y, z'

loop_
  _atom_site_label
  _atom_site_occupancy
  _atom_site_fract_x
  _atom_site_fract_y
  _atom_site_fract_z
  _atom_site_thermal_displace_type
  _atom_site_B_iso_or_equiv
  _atom_site_type_symbol
  Cd1      1.0000 0.69205  0.50000  0.62347  Biso   1.000  Cd
  Cd2      1.0000 0.73930  0.76917  0.62463  Biso   1.000  Cd
  Ni1      1.0000 0.74864  0.63379  0.11515  Biso   1.000  Ni
  Ni2      1.0000 0.47564  0.38378  0.99480  Biso   1.000  Ni
  N1       1.0000 0.71770  0.55680  0.83590  Biso   1.000  N
  N2       1.0000 0.72430  0.55730  0.39950  Biso   1.000  N
  N3       1.0000 0.64290  0.43760  0.83200  Biso   1.000  N
  N4       1.0000 0.34520  0.46590  0.87580  Biso   1.000  N
  N5       1.0000 0.65280  0.44260  0.39400  Biso   1.000  N
  N6       1.0000 0.52820  0.51300  0.57130  Biso   1.000  N
  N7       1.0000 0.76170  0.71180  0.83510  Biso   1.000  N
  N8       1.0000 0.76520  0.71200  0.39570  Biso   1.000  N
  N9       1.0000 0.30700  0.33240  0.15900  Biso   1.000  N
  N10      1.0000 0.60720  0.30260  0.11630  Biso   1.000  N
  N11      1.0000 0.69730  0.82730  0.40300  Biso   1.000  N
  N12      1.0000 0.57240  0.75590  0.58690  Biso   1.000  N
  C1       1.0000 0.72960  0.58560  0.94300  Biso   1.000  C
  C2       1.0000 0.73370  0.58600  0.28880  Biso   1.000  C
  C3       1.0000 0.58100  0.41640  0.89790  Biso   1.000  C
  C4       1.0000 0.39490  0.43490  0.92030  Biso   1.000  C
  C5       1.0000 0.76060  0.68180  0.94000  Biso   1.000  C
  C6       1.0000 0.76110  0.68260  0.28730  Biso   1.000  C
  C7       1.0000 0.37000  0.35160  0.09500  Biso   1.000  C
  C8       1.0000 0.55570  0.33270  0.06900  Biso   1.000  C
  C9       1.0000 0.55150  0.44600  0.36100  Biso   1.000  C
  C10      1.0000 0.49630  0.48060  0.43300  Biso   1.000  C
  C11      1.0000 0.38990  0.48000  0.39100  Biso   1.000  C
  C12      1.0000 0.58980  0.82840  0.39700  Biso   1.000  C
  C13      1.0000 0.54150  0.78510  0.43400  Biso   1.000  C
  C14      1.0000 0.43290  0.78670  0.40900  Biso   1.000  C
  Cd3      1.0000 0.30795  0.00000  0.37653  Biso   1.000  Cd
  Cd4      1.0000 0.26070  0.26917  0.37537  Biso   1.000  Cd
  Ni3      1.0000 0.25136  0.13379  0.88485  Biso   1.000  Ni
  Ni4      1.0000 0.52436  0.88378  0.00520  Biso   1.000  Ni
  N13      1.0000 0.28230  0.05680  0.16410  Biso   1.000  N
  N14      1.0000 0.27570  0.05730  0.60050  Biso   1.000  N
  N15      1.0000 0.35710  0.93760  0.16800  Biso   1.000  N
  N16      1.0000 0.65480  0.96590  0.12420  Biso   1.000  N
  N17      1.0000 0.34720  0.94260  0.60600  Biso   1.000  N
  N18      1.0000 0.47180  0.01300  0.42870  Biso   1.000  N
  N19      1.0000 0.23830  0.21180  0.16490  Biso   1.000  N
  N20      1.0000 0.23480  0.21200  0.60430  Biso   1.000  N
  N21      1.0000 0.69300  0.83240  0.84100  Biso   1.000  N
  N22      1.0000 0.39280  0.80260  0.88370  Biso   1.000  N
  N23      1.0000 0.30270  0.32730  0.59700  Biso   1.000  N
  N24      1.0000 0.42760  0.25590  0.41310  Biso   1.000  N
  C15      1.0000 0.27040  0.08560  0.05700  Biso   1.000  C
  C16      1.0000 0.26630  0.08600  0.71120  Biso   1.000  C
  C17      1.0000 0.41900  0.91640  0.10210  Biso   1.000  C
  C18      1.0000 0.60510  0.93490  0.07970  Biso   1.000  C
  C19      1.0000 0.23940  0.18180  0.06000  Biso   1.000  C
  C20      1.0000 0.23890  0.18260  0.71270  Biso   1.000  C
  C21      1.0000 0.63000  0.85160  0.90500  Biso   1.000  C
  C22      1.0000 0.44430  0.83270  0.93100  Biso   1.000  C
  C23      1.0000 0.44850  0.94600  0.63900  Biso   1.000  C
  C24      1.0000 0.50370  0.98060  0.56700  Biso   1.000  C
  C25      1.0000 0.61010  0.98000  0.60900  Biso   1.000  C
  C26      1.0000 0.41020  0.32840  0.60300  Biso   1.000  C
  C27      1.0000 0.45850  0.28510  0.56600  Biso   1.000  C
  C28      1.0000 0.56710  0.28670  0.59100  Biso   1.000  C
  Cd5      1.0000 0.19205  0.50000  0.87653  Biso   1.000  Cd
  Cd6      1.0000 0.23930  0.76917  0.87537  Biso   1.000  Cd
  Ni5      1.0000 0.24864  0.63379  0.38485  Biso   1.000  Ni
  Ni6      1.0000 0.97564  0.38378  0.50520  Biso   1.000  Ni
  N25      1.0000 0.21770  0.55680  0.66410  Biso   1.000  N
  N26      1.0000 0.22430  0.55730  0.10050  Biso   1.000  N
  N27      1.0000 0.14290  0.43760  0.66800  Biso   1.000  N
  N28      1.0000 0.84520  0.46590  0.62420  Biso   1.000  N
  N29      1.0000 0.15280  0.44260  0.10600  Biso   1.000  N
  N30      1.0000 0.02820  0.51300  0.92870  Biso   1.000  N
  N31      1.0000 0.26170  0.71180  0.66490  Biso   1.000  N
  N32      1.0000 0.26520  0.71200  0.10430  Biso   1.000  N
  N33      1.0000 0.80700  0.33240  0.34100  Biso   1.000  N
  N34      1.0000 0.10720  0.30260  0.38370  Biso   1.000  N
  N35      1.0000 0.19730  0.82730  0.09700  Biso   1.000  N
  N36      1.0000 0.07240  0.75590  0.91310  Biso   1.000  N
  C29      1.0000 0.22960  0.58560  0.55700  Biso   1.000  C
  C30      1.0000 0.23370  0.58600  0.21120  Biso   1.000  C
  C31      1.0000 0.08100  0.41640  0.60210  Biso   1.000  C
  C32      1.0000 0.89490  0.43490  0.57970  Biso   1.000  C
  C33      1.0000 0.26060  0.68180  0.56000  Biso   1.000  C
  C34      1.0000 0.26110  0.68260  0.21270  Biso   1.000  C
  C35      1.0000 0.87000  0.35160  0.40500  Biso   1.000  C
  C36      1.0000 0.05570  0.33270  0.43100  Biso   1.000  C
  C37      1.0000 0.05150  0.44600  0.13900  Biso   1.000  C
  C38      1.0000 0.99630  0.48060  0.06700  Biso   1.000  C
  C39      1.0000 0.88990  0.48000  0.10900  Biso   1.000  C
  C40      1.0000 0.08980  0.82840  0.10300  Biso   1.000  C
  C41      1.0000 0.04150  0.78510  0.06600  Biso   1.000  C
  C42      1.0000 0.93290  0.78670  0.09100  Biso   1.000  C
  Cd7      1.0000 0.80795  0.00000  0.12347  Biso   1.000  Cd
  Cd8      1.0000 0.76070  0.26917  0.12463  Biso   1.000  Cd
  Ni7      1.0000 0.75136  0.13379  0.61515  Biso   1.000  Ni
  Ni8      1.0000 0.02436  0.88378  0.49480  Biso   1.000  Ni
  N37      1.0000 0.78230  0.05680  0.33590  Biso   1.000  N
  N38      1.0000 0.77570  0.05730  0.89950  Biso   1.000  N
  N39      1.0000 0.85710  0.93760  0.33200  Biso   1.000  N
  N40      1.0000 0.15480  0.96590  0.37580  Biso   1.000  N
  N41      1.0000 0.84720  0.94260  0.89400  Biso   1.000  N
  N42      1.0000 0.97180  0.01300  0.07130  Biso   1.000  N
  N43      1.0000 0.73830  0.21180  0.33510  Biso   1.000  N
  N44      1.0000 0.73480  0.21200  0.89570  Biso   1.000  N
  N45      1.0000 0.19300  0.83240  0.65900  Biso   1.000  N
  N46      1.0000 0.89280  0.80260  0.61630  Biso   1.000  N
  N47      1.0000 0.80270  0.32730  0.90300  Biso   1.000  N
  N48      1.0000 0.92760  0.25590  0.08690  Biso   1.000  N
  C43      1.0000 0.77040  0.08560  0.44300  Biso   1.000  C
  C44      1.0000 0.76630  0.08600  0.78880  Biso   1.000  C
  C45      1.0000 0.91900  0.91640  0.39790  Biso   1.000  C
  C46      1.0000 0.10510  0.93490  0.42030  Biso   1.000  C
  C47      1.0000 0.73940  0.18180  0.44000  Biso   1.000  C
  C48      1.0000 0.73890  0.18260  0.78730  Biso   1.000  C
  C49      1.0000 0.13000  0.85160  0.59500  Biso   1.000  C
  C50      1.0000 0.94430  0.83270  0.56900  Biso   1.000  C
  C51      1.0000 0.94850  0.94600  0.86100  Biso   1.000  C
  C52      1.0000 0.00370  0.98060  0.93300  Biso   1.000  C
  C53      1.0000 0.11010  0.98000  0.89100  Biso   1.000  C
  C54      1.0000 0.91020  0.32840  0.89700  Biso   1.000  C
  C55      1.0000 0.95850  0.28510  0.93400  Biso   1.000  C
  C56      1.0000 0.06710  0.28670  0.90900  Biso   1.000  C
