data_YOCDUR_clean
_audit_creation_date              2015-10-16
_audit_creation_method            'Materials Studio'
_symmetry_space_group_name_H-M    'P1'
_symmetry_Int_Tables_number       1
_symmetry_cell_setting            triclinic
loop_
_symmetry_equiv_pos_as_xyz
  x,y,z
_cell_length_a                    24.4878
_cell_length_b                    24.4878
_cell_length_c                    24.4878
_cell_angle_alpha                 62.3598
_cell_angle_beta                  85.8617
_cell_angle_gamma                 117.6400
loop_
_atom_site_label
_atom_site_type_symbol
_atom_site_fract_x
_atom_site_fract_y
_atom_site_fract_z
_atom_site_U_iso_or_equiv
_atom_site_adp_type
_atom_site_occupancy
Zn1    Zn    0.76888   0.46650   0.22576   0.01267  Uiso   1.00
Zn2    Zn    0.69762   0.00536   0.76888   0.01267  Uiso   1.00
Zn3    Zn    0.69850   0.57945   0.18933   0.01267  Uiso   1.00
Zn4    Zn    0.88095   0.11217   0.69850   0.01267  Uiso   1.00
Zn5    Zn    0.11488   0.90525   0.51409   0.01267  Uiso   1.00
Zn6    Zn    0.79037   0.37103   0.11488   0.01267  Uiso   1.00
Zn7    Zn    0.22576   0.99464   0.30774   0.01267  Uiso   1.00
Zn8    Zn    0.51409   0.62897   0.58066   0.01267  Uiso   1.00
Zn9    Zn    0.18933   0.88783   0.23122   0.01267  Uiso   1.00
Zn10   Zn    0.58066   0.09475   0.79037   0.01267  Uiso   1.00
Zn11   Zn    0.55811   0.03098   0.94979   0.01267  Uiso   1.00
Zn12   Zn    0.01923   0.96902   0.47287   0.01267  Uiso   1.00
Zn13   Zn    0.30774   0.53350   0.69762   0.01267  Uiso   1.00
Zn14   Zn    0.23122   0.42055   0.88095   0.01267  Uiso   1.00
Zn15   Zn    0.47287   0.49210   0.55811   0.01267  Uiso   1.00
Zn16   Zn    0.94979   0.50790   0.01923   0.01267  Uiso   1.00
H1     H     0.14680   0.63360   0.02720   0.01267  Uiso   1.00
H2     H     0.70330   0.70400   0.92690   0.01267  Uiso   1.00
H3     H     0.84270   0.74340   0.30190   0.01267  Uiso   1.00
H4     H     0.34040   0.90810   0.39590   0.01267  Uiso   1.00
H5     H     0.78700   0.28440   0.34980   0.01267  Uiso   1.00
H6     H     0.90090   0.79330   0.45920   0.01267  Uiso   1.00
H7     H     0.53760   0.42380   0.29360   0.01267  Uiso   1.00
H8     H     0.31810   0.66240   0.91190   0.01267  Uiso   1.00
H9     H     0.87930   0.56660   0.32150   0.01267  Uiso   1.00
H10    H     0.21970   0.14810   0.49880   0.01267  Uiso   1.00
H11    H     0.26060   0.71230   0.99770   0.01267  Uiso   1.00
H12    H     0.69600   0.09190   0.56770   0.01267  Uiso   1.00
H13    H     0.39590   0.73630   0.69600   0.01267  Uiso   1.00
H14    H     0.03260   0.82850   0.70630   0.01267  Uiso   1.00
H15    H     0.90070   0.85540   0.84270   0.01267  Uiso   1.00
H16    H     0.93600   0.39850   0.81450   0.01267  Uiso   1.00
H17    H     0.16510   0.71460   0.83850   0.01267  Uiso   1.00
H18    H     0.42040   0.24010   0.78330   0.01267  Uiso   1.00
H19    H     0.97660   0.75990   0.81970   0.01267  Uiso   1.00
H20    H     0.99770   0.25830   0.29000   0.01267  Uiso   1.00
H21    H     0.79590   0.26110   0.03260   0.01267  Uiso   1.00
H22    H     0.83850   0.00360   0.44690   0.01267  Uiso   1.00
H23    H     0.34980   0.13680   0.36580   0.01267  Uiso   1.00
H24    H     0.00070   0.36980   0.70330   0.01267  Uiso   1.00
H25    H     0.02720   0.17400   0.33920   0.01267  Uiso   1.00
H26    H     0.91190   0.23000   0.42570   0.01267  Uiso   1.00
H27    H     0.90790   0.23010   0.75640   0.01267  Uiso   1.00
H28    H     0.56770   0.26370   0.34040   0.01267  Uiso   1.00
H29    H     0.45170   0.74170   0.26060   0.01267  Uiso   1.00
H30    H     0.44690   0.28540   0.54950   0.01267  Uiso   1.00
H31    H     0.35310   0.85190   0.92840   0.01267  Uiso   1.00
H32    H     0.51250   0.91350   0.28260   0.01267  Uiso   1.00
H33    H     0.29360   0.83120   0.28260   0.01267  Uiso   1.00
H34    H     0.92690   0.63020   0.36910   0.01267  Uiso   1.00
H35    H     0.54950   0.99640   0.16510   0.01267  Uiso   1.00
H36    H     0.45920   0.36010   0.74750   0.01267  Uiso   1.00
H37    H     0.78330   0.20370   0.97660   0.01267  Uiso   1.00
H38    H     0.94480   0.45630   0.86810   0.01267  Uiso   1.00
H39    H     0.49880   0.71850   0.35310   0.01267  Uiso   1.00
H40    H     0.36580   0.71560   0.49740   0.01267  Uiso   1.00
H41    H     0.70630   0.73890   0.46520   0.01267  Uiso   1.00
H42    H     0.51150   0.18710   0.94480   0.01267  Uiso   1.00
H43    H     0.34430   0.77000   0.31810   0.01267  Uiso   1.00
H44    H     0.28260   0.79510   0.80390   0.01267  Uiso   1.00
H45    H     0.80090   0.68440   0.25090   0.01267  Uiso   1.00
H46    H     0.92840   0.28150   0.21970   0.01267  Uiso   1.00
H47    H     0.45370   0.17160   0.39910   0.01267  Uiso   1.00
H48    H     0.49740   0.86320   0.78700   0.01267  Uiso   1.00
H49    H     0.28260   0.57620   0.88620   0.01267  Uiso   1.00
H50    H     0.11190   0.43340   0.68730   0.01267  Uiso   1.00
H51    H     0.48680   0.82600   0.14680   0.01267  Uiso   1.00
H52    H     0.39910   0.85280   0.42930   0.01267  Uiso   1.00
H53    H     0.42930   0.82840   0.71790   0.01267  Uiso   1.00
H54    H     0.74750   0.20670   0.89240   0.01267  Uiso   1.00
H55    H     0.95470   0.25660   0.90070   0.01267  Uiso   1.00
H56    H     0.36910   0.29600   0.00070   0.01267  Uiso   1.00
H57    H     0.81970   0.79630   0.42040   0.01267  Uiso   1.00
H58    H     0.81450   0.75050   0.78700   0.01267  Uiso   1.00
H59    H     0.80390   0.08650   0.40100   0.01267  Uiso   1.00
H60    H     0.46250   0.24950   0.93600   0.01267  Uiso   1.00
H61    H     0.88350   0.94820   0.80090   0.01267  Uiso   1.00
H62    H     0.40100   0.20490   0.51250   0.01267  Uiso   1.00
H63    H     0.32220   0.33570   0.90790   0.01267  Uiso   1.00
H64    H     0.86810   0.81290   0.67560   0.01267  Uiso   1.00
H65    H     0.06470   0.31560   0.88350   0.01267  Uiso   1.00
H66    H     0.68730   0.79920   0.87930   0.01267  Uiso   1.00
H67    H     0.29000   0.28770   0.45170   0.01267  Uiso   1.00
H68    H     0.67560   0.54370   0.51150   0.01267  Uiso   1.00
H69    H     0.01350   0.76990   0.32220   0.01267  Uiso   1.00
H70    H     0.42570   0.33760   0.34430   0.01267  Uiso   1.00
H71    H     0.33920   0.36640   0.48680   0.01267  Uiso   1.00
H72    H     0.32150   0.20080   0.11190   0.01267  Uiso   1.00
H73    H     0.89240   0.63990   0.90090   0.01267  Uiso   1.00
H74    H     0.78700   0.60150   0.46250   0.01267  Uiso   1.00
H75    H     0.30190   0.14460   0.95470   0.01267  Uiso   1.00
H76    H     0.75640   0.66430   0.01350   0.01267  Uiso   1.00
H77    H     0.88620   0.16880   0.53760   0.01267  Uiso   1.00
H78    H     0.46520   0.17150   0.79590   0.01267  Uiso   1.00
H79    H     0.25090   0.05180   0.06470   0.01267  Uiso   1.00
H80    H     0.71790   0.14720   0.45370   0.01267  Uiso   1.00
C1     C     0.32320   0.13920   0.39240   0.01267  Uiso   1.00
C2     C     0.47730   0.81860   0.28350   0.01267  Uiso   1.00
C3     C     0.28000   0.11620   0.10000   0.01267  Uiso   1.00
C4     C     0.80802   0.37690   0.23168   0.01267  Uiso   1.00
C5     C     0.46840   0.86080   0.81600   0.01267  Uiso   1.00
C6     C     0.98590   0.29070   0.85780   0.01267  Uiso   1.00
C7     C     0.73000   0.81030   0.87330   0.01267  Uiso   1.00
C8     C     0.36858   0.39520   0.80922   0.01267  Uiso   1.00
C9     C     0.47020   0.79190   0.24270   0.01267  Uiso   1.00
C10    C     0.83634   0.23720   0.35386   0.01267  Uiso   1.00
C11    C     0.99087   0.77500   0.34973   0.01267  Uiso   1.00
C12    C     0.81600   0.28440   0.32320   0.01267  Uiso   1.00
C13    C     0.89007   0.69520   0.33873   0.01267  Uiso   1.00
C14    C     0.85150   0.70930   0.30480   0.01267  Uiso   1.00
C15    C     0.81250   0.70620   0.92350   0.01267  Uiso   1.00
C16    C     0.34540   0.24660   0.01400   0.01267  Uiso   1.00
C17    C     0.35700   0.80860   0.87720   0.01267  Uiso   1.00
C18    C     0.34160   0.44220   0.79100   0.01267  Uiso   1.00
C19    C     0.33310   0.64960   0.78830   0.01267  Uiso   1.00
C20    C     0.37795   0.80450   0.37755   0.01267  Uiso   1.00
C21    C     0.50730   0.89560   0.25590   0.01267  Uiso   1.00
C22    C     0.37900   0.72300   0.73860   0.01267  Uiso   1.00
C23    C     0.42655   0.24450   0.37795   0.01267  Uiso   1.00
C24    C     0.28350   0.76080   0.89790   0.01267  Uiso   1.00
C25    C     0.24510   0.05250   0.17200   0.01267  Uiso   1.00
C26    C     0.40060   0.77820   0.75180   0.01267  Uiso   1.00
C27    C     0.91240   0.40570   0.88970   0.01267  Uiso   1.00
C28    C     0.17200   0.41710   0.77550   0.01267  Uiso   1.00
C29    C     0.43020   0.35410   0.77990   0.01267  Uiso   1.00
C30    C     0.70460   0.59430   0.49330   0.01267  Uiso   1.00
C31    C     0.34130   0.23920   0.47730   0.01267  Uiso   1.00
C32    C     0.47000   0.22180   0.37760   0.01267  Uiso   1.00
C33    C     0.79558   0.60480   0.02662   0.01267  Uiso   1.00
C34    C     0.81795   0.19550   0.42655   0.01267  Uiso   1.00
C35    C     0.99411   0.83090   0.40899   0.01267  Uiso   1.00
C36    C     0.49330   0.19790   0.91240   0.01267  Uiso   1.00
C37    C     0.86600   0.64590   0.92390   0.01267  Uiso   1.00
C38    C     0.38250   0.85400   0.90010   0.01267  Uiso   1.00
C39    C     0.54170   0.97140   0.07170   0.01267  Uiso   1.00
C40    C     0.92350   0.73600   0.37030   0.01267  Uiso   1.00
C41    C     0.87210   0.40310   0.98960   0.01267  Uiso   1.00
C42    C     0.76011   0.16910   0.83679   0.01267  Uiso   1.00
C43    C     0.45068   0.90310   0.88242   0.01267  Uiso   1.00
C44    C     0.84600   0.25520   0.85660   0.01267  Uiso   1.00
C45    C     0.49580   0.17570   0.86850   0.01267  Uiso   1.00
C46    C     0.98960   0.86170   0.60730   0.01267  Uiso   1.00
C47    C     0.37030   0.29380   0.89370   0.01267  Uiso   1.00
C48    C     0.95690   0.02860   0.42970   0.01267  Uiso   1.00
C49    C     0.86960   0.05440   0.41620   0.01267  Uiso   1.00
C50    C     0.41353   0.66810   0.49497   0.01267  Uiso   1.00
C51    C     0.30678   0.59050   0.77192   0.01267  Uiso   1.00
C52    C     0.73860   0.11760   0.53840   0.01267  Uiso   1.00
C53    C     0.78413   0.65940   0.99087   0.01267  Uiso   1.00
C54    C     0.89790   0.18140   0.34130   0.01267  Uiso   1.00
C55    C     0.46630   0.18900   0.82270   0.01267  Uiso   1.00
C56    C     0.85854   0.29530   0.88916   0.01267  Uiso   1.00
C57    C     0.98270   0.15710   0.35100   0.01267  Uiso   1.00
C58    C     0.52940   0.94560   0.18480   0.01267  Uiso   1.00
C59    C     0.27520   0.10120   0.05160   0.01267  Uiso   1.00
C60    C     0.95580   0.82430   0.67990   0.01267  Uiso   1.00
C61    C     0.80513   0.77120   0.89007   0.01267  Uiso   1.00
C62    C     0.83693   0.33190   0.25457   0.01267  Uiso   1.00
C63    C     0.93510   0.08230   0.39700   0.01267  Uiso   1.00
C64    C     0.47000   0.94730   0.91070   0.01267  Uiso   1.00
C65    C     0.68833   0.12450   0.85217   0.01267  Uiso   1.00
C66    C     0.83620   0.62000   0.28000   0.01267  Uiso   1.00
C67    C     0.47150   0.71740   0.38250   0.01267  Uiso   1.00
C68    C     0.43820   0.22890   0.81610   0.01267  Uiso   1.00
C69    C     0.46410   0.23530   0.90700   0.01267  Uiso   1.00
C70    C     0.63758   0.40950   0.28372   0.01267  Uiso   1.00
C71    C     0.90010   0.28260   0.24590   0.01267  Uiso   1.00
C72    C     0.95500   0.77110   0.79070   0.01267  Uiso   1.00
C73    C     0.75180   0.15240   0.47000   0.01267  Uiso   1.00
C74    C     0.56210   0.35040   0.31650   0.01267  Uiso   1.00
C75    C     0.88970   0.80210   0.70460   0.01267  Uiso   1.00
C76    C     0.10060   0.86740   0.34160   0.01267  Uiso   1.00
C77    C     0.43617   0.45950   0.68833   0.01267  Uiso   1.00
C78    C     0.37760   0.84760   0.40060   0.01267  Uiso   1.00
C79    C     0.25457   0.09150   0.41353   0.01267  Uiso   1.00
C80    C     0.88916   0.74770   0.81554   0.01267  Uiso   1.00
C81    C     0.33290   0.67810   0.86800   0.01267  Uiso   1.00
C82    C     0.33873   0.22880   0.96607   0.01267  Uiso   1.00
C83    C     0.98830   0.81100   0.72270   0.01267  Uiso   1.00
C84    C     0.45242   0.66690   0.45068   0.01267  Uiso   1.00
C85    C     0.77550   0.94750   0.80740   0.01267  Uiso   1.00
C86    C     0.96607   0.30480   0.80513   0.01267  Uiso   1.00
C87    C     0.77990   0.21010   0.86600   0.01267  Uiso   1.00
C88    C     0.02333   0.87550   0.43617   0.01267  Uiso   1.00
C89    C     0.85770   0.76470   0.77120   0.01267  Uiso   1.00
C90    C     0.79070   0.74570   0.43820   0.01267  Uiso   1.00
C91    C     0.31420   0.19140   0.45160   0.01267  Uiso   1.00
C92    C     0.84720   0.89880   0.82600   0.01267  Uiso   1.00
C93    C     0.23168   0.03970   0.39142   0.01267  Uiso   1.00
C94    C     0.02662   0.82220   0.36858   0.01267  Uiso   1.00
C95    C     0.85217   0.54050   0.02333   0.01267  Uiso   1.00
C96    C     0.80922   0.17780   0.79558   0.01267  Uiso   1.00
C97    C     0.40086   0.80980   0.83634   0.01267  Uiso   1.00
C98    C     0.41620   0.28580   0.52940   0.01267  Uiso   1.00
C99    C     0.07170   0.61340   0.95690   0.01267  Uiso   1.00
C100   C     0.86850   0.36430   0.95580   0.01267  Uiso   1.00
C101   C     0.87330   0.60330   0.31640   0.01267  Uiso   1.00
C102   C     0.49190   0.84290   0.17440   0.01267  Uiso   1.00
C103   C     0.08030   0.39670   0.73000   0.01267  Uiso   1.00
C104   C     0.39142   0.62310   0.56888   0.01267  Uiso   1.00
C105   C     0.31160   0.62670   0.85290   0.01267  Uiso   1.00
C106   C     0.79100   0.13260   0.76680   0.01267  Uiso   1.00
C107   C     0.92390   0.78990   0.43020   0.01267  Uiso   1.00
C108   C     0.91070   0.38070   0.14200   0.01267  Uiso   1.00
C109   C     0.85780   0.84370   0.85150   0.01267  Uiso   1.00
C110   C     0.81554   0.70470   0.43676   0.01267  Uiso   1.00
C111   C     0.72270   0.71100   0.46630   0.01267  Uiso   1.00
C112   C     0.34400   0.88240   0.37900   0.01267  Uiso   1.00
C113   C     0.88242   0.33310   0.21448   0.01267  Uiso   1.00
C114   C     0.30480   0.15630   0.98590   0.01267  Uiso   1.00
C115   C     0.49497   0.90850   0.83693   0.01267  Uiso   1.00
C116   C     0.37755   0.75550   0.81795   0.01267  Uiso   1.00
C117   C     0.87720   0.23420   0.31420   0.01267  Uiso   1.00
C118   C     0.80740   0.58290   0.24510   0.01267  Uiso   1.00
C119   C     0.89370   0.26400   0.81250   0.01267  Uiso   1.00
C120   C     0.40894   0.76280   0.40086   0.01267  Uiso   1.00
C121   C     0.05160   0.32680   0.84720   0.01267  Uiso   1.00
C122   C     0.81610   0.25430   0.95500   0.01267  Uiso   1.00
C123   C     0.82600   0.67320   0.27520   0.01267  Uiso   1.00
C124   C     0.53840   0.27700   0.34400   0.01267  Uiso   1.00
C125   C     0.45390   0.32190   0.34520   0.01267  Uiso   1.00
C126   C     0.31640   0.18970   0.08030   0.01267  Uiso   1.00
C127   C     0.82270   0.28900   0.98830   0.01267  Uiso   1.00
C128   C     0.90120   0.64060   0.34540   0.01267  Uiso   1.00
C129   C     0.14720   0.66790   0.93510   0.01267  Uiso   1.00
C130   C     0.60730   0.59690   0.53100   0.01267  Uiso   1.00
C131   C     0.86800   0.20090   0.45390   0.01267  Uiso   1.00
C132   C     0.47730   0.61930   0.47000   0.01267  Uiso   1.00
C133   C     0.52070   0.91770   0.14720   0.01267  Uiso   1.00
C134   C     0.90700   0.37110   0.85770   0.01267  Uiso   1.00
C135   C     0.53100   0.13830   0.87210   0.01267  Uiso   1.00
C136   C     0.01400   0.35940   0.73940   0.01267  Uiso   1.00
C137   C     0.73940   0.75340   0.90120   0.01267  Uiso   1.00
C138   C     0.24270   0.71290   0.96540   0.01267  Uiso   1.00
C139   C     0.42970   0.38660   0.54170   0.01267  Uiso   1.00
C140   C     0.52040   0.37330   0.31510   0.01267  Uiso   1.00
C141   C     0.34973   0.34060   0.87527   0.01267  Uiso   1.00
C142   C     0.40920   0.29740   0.84600   0.01267  Uiso   1.00
C143   C     0.21448   0.09690   0.45242   0.01267  Uiso   1.00
C144   C     0.87527   0.22500   0.78413   0.01267  Uiso   1.00
C145   C     0.39700   0.33210   0.52070   0.01267  Uiso   1.00
C146   C     0.43676   0.25230   0.85854   0.01267  Uiso   1.00
C147   C     0.77192   0.07870   0.63758   0.01267  Uiso   1.00
C148   C     0.83679   0.59690   0.99411   0.01267  Uiso   1.00
C149   C     0.35386   0.19020   0.40894   0.01267  Uiso   1.00
C150   C     0.39240   0.71560   0.46840   0.01267  Uiso   1.00
C151   C     0.84850   0.10440   0.38830   0.01267  Uiso   1.00
C152   C     0.45160   0.76580   0.35700   0.01267  Uiso   1.00
C153   C     0.31650   0.87860   0.33310   0.01267  Uiso   1.00
C154   C     0.96540   0.20810   0.32170   0.01267  Uiso   1.00
C155   C     0.10000   0.38000   0.78380   0.01267  Uiso   1.00
C156   C     0.35100   0.33370   0.49190   0.01267  Uiso   1.00
C157   C     0.76680   0.55780   0.10060   0.01267  Uiso   1.00
C158   C     0.77120   0.62890   0.46410   0.01267  Uiso   1.00
C159   C     0.38830   0.23680   0.50730   0.01267  Uiso   1.00
C160   C     0.85290   0.16450   0.52040   0.01267  Uiso   1.00
C161   C     0.32170   0.28710   0.47020   0.01267  Uiso   1.00
C162   C     0.85660   0.70260   0.88820   0.01267  Uiso   1.00
C163   C     0.24590   0.14600   0.47150   0.01267  Uiso   1.00
C164   C     0.28372   0.92130   0.30678   0.01267  Uiso   1.00
C165   C     0.88820   0.74480   0.40920   0.01267  Uiso   1.00
C166   C     0.78830   0.12140   0.56210   0.01267  Uiso   1.00
C167   C     0.40899   0.40310   0.76011   0.01267  Uiso   1.00
C168   C     0.17440   0.66630   0.98270   0.01267  Uiso   1.00
C169   C     0.34520   0.79910   0.33290   0.01267  Uiso   1.00
C170   C     0.31510   0.83550   0.31160   0.01267  Uiso   1.00
C171   C     0.56888   0.96030   0.80802   0.01267  Uiso   1.00
C172   C     0.67990   0.63570   0.49580   0.01267  Uiso   1.00
C173   C     0.25590   0.76320   0.84850   0.01267  Uiso   1.00
C174   C     0.14200   0.05270   0.47730   0.01267  Uiso   1.00
C175   C     0.18480   0.71420   0.86960   0.01267  Uiso   1.00
C176   C     0.78380   0.88380   0.83620   0.01267  Uiso   1.00
O1     O     0.33836   0.60890   0.71714   0.01267  Uiso   1.00
O2     O     0.53882   0.10670   0.92568   0.01267  Uiso   1.00
O3     O     0.96762   0.89330   0.56788   0.01267  Uiso   1.00
O4     O     0.66857   0.14083   0.80446   0.01267  Uiso   1.00
O5     O     0.65398   0.07810   0.91272   0.01267  Uiso   1.00
O6     O     0.71534   0.54790   0.12848   0.01267  Uiso   1.00
O7     O     0.80446   0.47303   0.05471   0.01267  Uiso   1.00
O8     O     0.46149   0.57502   0.53381   0.01267  Uiso   1.00
O9     O     0.71714   0.05550   0.67396   0.01267  Uiso   1.00
O10    O     0.67396   0.39110   0.27054   0.01267  Uiso   1.00
O11    O     0.13047   0.92822   0.33655   0.01267  Uiso   1.00
O12    O     0.52460   0.94270   0.04050   0.01267  Uiso   1.00
O13    O     0.89117   0.42498   0.11353   0.01267  Uiso   1.00
O14    O     0.80721   0.52548   0.26247   0.01267  Uiso   1.00
O15    O     0.73523   0.07178   0.79775   0.01267  Uiso   1.00
O16    O     0.59902   0.03040   0.77098   0.01267  Uiso   1.00
O17    O     0.41810   0.43490   0.52460   0.01267  Uiso   1.00
O18    O     0.04700   0.62360   0.91220   0.01267  Uiso   1.00
O19    O     0.05471   0.85917   0.47226   0.01267  Uiso   1.00
O20    O     0.56788   0.53550   0.53882   0.01267  Uiso   1.00
O21    O     0.91220   0.95920   0.46420   0.01267  Uiso   1.00
O22    O     0.33655   0.46702   0.73523   0.01267  Uiso   1.00
O23    O     0.26247   0.06968   0.21205   0.01267  Uiso   1.00
O24    O     0.12848   0.84382   0.32362   0.01267  Uiso   1.00
O25    O     0.03882   0.85930   0.59448   0.01267  Uiso   1.00
O26    O     0.53381   0.99530   0.89117   0.01267  Uiso   1.00
O27    O     0.27054   0.94450   0.33836   0.01267  Uiso   1.00
O28    O     0.21205   0.47452   0.71827   0.01267  Uiso   1.00
O29    O     0.00918   0.92190   0.42412   0.01267  Uiso   1.00
O30    O     0.18782   0.38830   0.82208   0.01267  Uiso   1.00
O31    O     0.42769   0.93510   0.95341   0.01267  Uiso   1.00
O32    O     0.81890   0.41880   0.25150   0.01267  Uiso   1.00
O33    O     0.78962   0.61170   0.20048   0.01267  Uiso   1.00
O34    O     0.57660   0.04080   0.04700   0.01267  Uiso   1.00
O35    O     0.81481   0.07032   0.65707   0.01267  Uiso   1.00
O36    O     0.20048   0.99010   0.18782   0.01267  Uiso   1.00
O37    O     0.11353   0.00470   0.46149   0.01267  Uiso   1.00
O38    O     0.91272   0.56670   0.00918   0.01267  Uiso   1.00
O39    O     0.59990   0.92960   0.81890   0.01267  Uiso   1.00
O40    O     0.43138   0.63000   0.59902   0.01267  Uiso   1.00
O41    O     0.11149   0.06490   0.50741   0.01267  Uiso   1.00
O42    O     0.42412   0.43330   0.65398   0.01267  Uiso   1.00
O43    O     0.25551   0.52812   0.81481   0.01267  Uiso   1.00
O44    O     0.82208   0.00990   0.78962   0.01267  Uiso   1.00
O45    O     0.47226   0.52697   0.66857   0.01267  Uiso   1.00
O46    O     0.92568   0.46450   0.96762   0.01267  Uiso   1.00
O47    O     0.32970   0.58120   0.59990   0.01267  Uiso   1.00
O48    O     0.19862   0.96960   0.43138   0.01267  Uiso   1.00
O49    O     0.95341   0.38110   0.11149   0.01267  Uiso   1.00
O50    O     0.77098   0.37000   0.19862   0.01267  Uiso   1.00
O51    O     0.65707   0.47188   0.27261   0.01267  Uiso   1.00
O52    O     0.71827   0.93032   0.80721   0.01267  Uiso   1.00
O53    O     0.50741   0.61890   0.42769   0.01267  Uiso   1.00
O54    O     0.04050   0.56510   0.01680   0.01267  Uiso   1.00
O55    O     0.01680   0.05730   0.41810   0.01267  Uiso   1.00
O56    O     0.59448   0.63330   0.54622   0.01267  Uiso   1.00
O57    O     0.82048   0.36670   0.03882   0.01267  Uiso   1.00
O58    O     0.32362   0.45210   0.83256   0.01267  Uiso   1.00
O59    O     0.27261   0.92968   0.25551   0.01267  Uiso   1.00
O60    O     0.54622   0.14070   0.82048   0.01267  Uiso   1.00
O61    O     0.83256   0.15618   0.71534   0.01267  Uiso   1.00
O62    O     0.79775   0.53298   0.13047   0.01267  Uiso   1.00
O63    O     0.25150   0.07040   0.32970   0.01267  Uiso   1.00
O64    O     0.46420   0.37640   0.57660   0.01267  Uiso   1.00
