data_YOCMAF_clean
_audit_creation_date              2014-07-02
_audit_creation_method            'Materials Studio'
_symmetry_space_group_name_H-M    'P1'
_symmetry_Int_Tables_number       1
_symmetry_cell_setting            triclinic
loop_
_symmetry_equiv_pos_as_xyz
  x,y,z
_cell_length_a                    10.5684
_cell_length_b                    10.5684
_cell_length_c                    10.9267
_cell_angle_alpha                 78.7836
_cell_angle_beta                  62.4925
_cell_angle_gamma                 108.7450
loop_
_atom_site_label
_atom_site_type_symbol
_atom_site_fract_x
_atom_site_fract_y
_atom_site_fract_z
_atom_site_U_iso_or_equiv
_atom_site_adp_type
_atom_site_occupancy
Dy1    Dy    0.24471   0.43131   0.62013   0.01267  Uiso   1.00
Dy2    Dy    0.55144   0.86484   0.87987   0.01267  Uiso   1.00
Dy3    Dy    0.75529   0.56869   0.37987   0.01267  Uiso   1.00
Dy4    Dy    0.44856   0.13516   0.12013   0.01267  Uiso   1.00
H1     H     0.96390   0.88630   0.81480   0.01267  Uiso   1.00
H2     H     0.10480   0.98960   0.64640   0.01267  Uiso   1.00
H3     H     0.73310   0.89080   0.21710   0.01267  Uiso   1.00
H4     H     0.20110   0.77870   0.68520   0.01267  Uiso   1.00
H5     H     0.13600   0.75120   0.85360   0.01267  Uiso   1.00
H6     H     0.60790   0.95020   0.28290   0.01267  Uiso   1.00
H7     H     0.03610   0.11370   0.18520   0.01267  Uiso   1.00
H8     H     0.89520   0.01040   0.35360   0.01267  Uiso   1.00
H9     H     0.26690   0.10920   0.78290   0.01267  Uiso   1.00
H10    H     0.79890   0.22130   0.31480   0.01267  Uiso   1.00
H11    H     0.86400   0.24880   0.14640   0.01267  Uiso   1.00
H12    H     0.39210   0.04980   0.71710   0.01267  Uiso   1.00
C1     C     0.95360   0.07230   0.74190   0.01267  Uiso   1.00
C2     C     0.98920   0.94800   0.71980   0.01267  Uiso   1.00
C3     C     0.90310   0.85030   0.66860   0.01267  Uiso   1.00
C4     C     0.49900   0.72390   0.37570   0.01267  Uiso   1.00
C5     C     0.31420   0.69550   0.75810   0.01267  Uiso   1.00
C6     C     0.16780   0.70900   0.78020   0.01267  Uiso   1.00
C7     C     0.01890   0.57170   0.83140   0.01267  Uiso   1.00
C8     C     0.59960   0.87470   0.12430   0.01267  Uiso   1.00
C9     C     0.04640   0.92770   0.25810   0.01267  Uiso   1.00
C10    C     0.01080   0.05200   0.28020   0.01267  Uiso   1.00
C11    C     0.09690   0.14970   0.33140   0.01267  Uiso   1.00
C12    C     0.50100   0.27610   0.62430   0.01267  Uiso   1.00
C13    C     0.68580   0.30450   0.24190   0.01267  Uiso   1.00
C14    C     0.83220   0.29100   0.21980   0.01267  Uiso   1.00
C15    C     0.98110   0.42830   0.16860   0.01267  Uiso   1.00
C16    C     0.40040   0.12530   0.87570   0.01267  Uiso   1.00
C17    C     0.62470   0.87470   0.25000   0.01267  Uiso   1.00
C18    C     0.37530   0.12530   0.75000   0.01267  Uiso   1.00
O1     O     0.06770   0.18430   0.71440   0.01267  Uiso   1.00
O2     O     0.81380   0.05740   0.79180   0.01267  Uiso   1.00
O3     O     0.98380   0.81270   0.57230   0.01267  Uiso   1.00
O4     O     0.75397   0.80887   0.72590   0.01267  Uiso   1.00
O5     O     0.35233   0.69157   0.44090   0.01267  Uiso   1.00
O6     O     0.54210   0.63150   0.40820   0.01267  Uiso   1.00
O7     O     0.39870   0.78210   0.78560   0.01267  Uiso   1.00
O8     O     0.34920   0.60560   0.70820   0.01267  Uiso   1.00
O9     O     0.88500   0.55610   0.92770   0.01267  Uiso   1.00
O10    O     0.03477   0.47987   0.77410   0.01267  Uiso   1.00
O11    O     0.63247   0.79323   0.05910   0.01267  Uiso   1.00
O12    O     0.53970   0.95030   0.09180   0.01267  Uiso   1.00
O13    O     0.93230   0.81570   0.28560   0.01267  Uiso   1.00
O14    O     0.18620   0.94260   0.20820   0.01267  Uiso   1.00
O15    O     0.01620   0.18730   0.42770   0.01267  Uiso   1.00
O16    O     0.24603   0.19113   0.27410   0.01267  Uiso   1.00
O17    O     0.64767   0.30843   0.55910   0.01267  Uiso   1.00
O18    O     0.45790   0.36850   0.59180   0.01267  Uiso   1.00
O19    O     0.60130   0.21790   0.21440   0.01267  Uiso   1.00
O20    O     0.65080   0.39440   0.29180   0.01267  Uiso   1.00
O21    O     0.11500   0.44390   0.07230   0.01267  Uiso   1.00
O22    O     0.96523   0.52013   0.22590   0.01267  Uiso   1.00
O23    O     0.36753   0.20677   0.94090   0.01267  Uiso   1.00
O24    O     0.46030   0.04970   0.90820   0.01267  Uiso   1.00
