data_image0
_cell_length_a       18.623
_cell_length_b       18.623
_cell_length_c       6.8973
_cell_angle_alpha    90
_cell_angle_beta     90
_cell_angle_gamma    120

_symmetry_space_group_name_H-M    "P 1"
_symmetry_int_tables_number       1

loop_
  _symmetry_equiv_pos_as_xyz
  'x, y, z'

loop_
  _atom_site_label
  _atom_site_occupancy
  _atom_site_fract_x
  _atom_site_fract_y
  _atom_site_fract_z
  _atom_site_thermal_displace_type
  _atom_site_B_iso_or_equiv
  _atom_site_type_symbol
  O1       1.0000 0.44260  0.41130  0.24820  Biso   1.000  O
  O2       1.0000 0.51910  0.62800  0.01880  Biso   1.000  O
  C1       1.0000 0.44940  0.35860  0.14760  Biso   1.000  C
  C2       1.0000 0.42180  0.27570  0.23680  Biso   1.000  C
  C3       1.0000 0.37610  0.25230  0.40700  Biso   1.000  C
  H1       1.0000 0.36100  0.28980  0.47180  Biso   1.000  H
  O3       1.0000 0.28270  0.08130  0.74120  Biso   1.000  O
  C4       1.0000 0.23560  0.04850  0.91400  Biso   1.000  C
  H2       1.0000 0.23020  0.99310  0.94320  Biso   1.000  H
  H3       1.0000 0.26260  0.08140  0.02630  Biso   1.000  H
  H4       1.0000 0.18140  0.03920  0.90560  Biso   1.000  H
  O4       1.0000 0.58870  0.03130  0.24820  Biso   1.000  O
  O5       1.0000 0.37200  0.89110  0.01880  Biso   1.000  O
  C5       1.0000 0.64140  0.09080  0.14760  Biso   1.000  C
  C6       1.0000 0.72430  0.14610  0.23680  Biso   1.000  C
  C7       1.0000 0.74770  0.12380  0.40700  Biso   1.000  C
  H5       1.0000 0.71020  0.07120  0.47180  Biso   1.000  H
  O6       1.0000 0.91870  0.20140  0.74120  Biso   1.000  O
  C8       1.0000 0.95150  0.18710  0.91400  Biso   1.000  C
  H6       1.0000 0.00690  0.23710  0.94320  Biso   1.000  H
  H7       1.0000 0.91860  0.18120  0.02630  Biso   1.000  H
  H8       1.0000 0.96080  0.14220  0.90560  Biso   1.000  H
  O7       1.0000 0.96870  0.55740  0.24820  Biso   1.000  O
  O8       1.0000 0.10890  0.48090  0.01880  Biso   1.000  O
  C9       1.0000 0.90920  0.55060  0.14760  Biso   1.000  C
  C10      1.0000 0.85390  0.57820  0.23680  Biso   1.000  C
  C11      1.0000 0.87620  0.62390  0.40700  Biso   1.000  C
  H9       1.0000 0.92880  0.63900  0.47180  Biso   1.000  H
  O9       1.0000 0.79860  0.71730  0.74120  Biso   1.000  O
  C12      1.0000 0.81290  0.76440  0.91400  Biso   1.000  C
  H10      1.0000 0.76290  0.76980  0.94320  Biso   1.000  H
  H11      1.0000 0.81880  0.73740  0.02630  Biso   1.000  H
  H12      1.0000 0.85780  0.81860  0.90560  Biso   1.000  H
  O10      1.0000 0.41130  0.44260  0.75180  Biso   1.000  O
  O11      1.0000 0.62800  0.51910  0.98120  Biso   1.000  O
  C13      1.0000 0.35860  0.44940  0.85240  Biso   1.000  C
  C14      1.0000 0.27570  0.42180  0.76320  Biso   1.000  C
  C15      1.0000 0.25230  0.37610  0.59300  Biso   1.000  C
  H13      1.0000 0.28980  0.36100  0.52820  Biso   1.000  H
  O12      1.0000 0.08130  0.28270  0.25880  Biso   1.000  O
  C16      1.0000 0.04850  0.23560  0.08600  Biso   1.000  C
  H14      1.0000 0.99310  0.23020  0.05680  Biso   1.000  H
  H15      1.0000 0.08140  0.26260  0.97370  Biso   1.000  H
  H16      1.0000 0.03920  0.18140  0.09440  Biso   1.000  H
  O13      1.0000 0.03130  0.58870  0.75180  Biso   1.000  O
  O14      1.0000 0.89110  0.37200  0.98120  Biso   1.000  O
  C17      1.0000 0.09080  0.64140  0.85240  Biso   1.000  C
  C18      1.0000 0.14610  0.72430  0.76320  Biso   1.000  C
  C19      1.0000 0.12380  0.74770  0.59300  Biso   1.000  C
  H17      1.0000 0.07120  0.71020  0.52820  Biso   1.000  H
  O15      1.0000 0.20140  0.91870  0.25880  Biso   1.000  O
  C20      1.0000 0.18710  0.95150  0.08600  Biso   1.000  C
  H18      1.0000 0.23710  0.00690  0.05680  Biso   1.000  H
  H19      1.0000 0.18120  0.91860  0.97370  Biso   1.000  H
  H20      1.0000 0.14220  0.96080  0.09440  Biso   1.000  H
  O16      1.0000 0.55740  0.96870  0.75180  Biso   1.000  O
  O17      1.0000 0.48090  0.10890  0.98120  Biso   1.000  O
  C21      1.0000 0.55060  0.90920  0.85240  Biso   1.000  C
  C22      1.0000 0.57820  0.85390  0.76320  Biso   1.000  C
  C23      1.0000 0.62390  0.87620  0.59300  Biso   1.000  C
  H21      1.0000 0.63900  0.92880  0.52820  Biso   1.000  H
  O18      1.0000 0.71730  0.79860  0.25880  Biso   1.000  O
  C24      1.0000 0.76440  0.81290  0.08600  Biso   1.000  C
  H22      1.0000 0.76980  0.76290  0.05680  Biso   1.000  H
  H23      1.0000 0.73740  0.81880  0.97370  Biso   1.000  H
  H24      1.0000 0.81860  0.85780  0.09440  Biso   1.000  H
  O19      1.0000 0.55740  0.58870  0.75180  Biso   1.000  O
  O20      1.0000 0.48090  0.37200  0.98120  Biso   1.000  O
  C25      1.0000 0.55060  0.64140  0.85240  Biso   1.000  C
  C26      1.0000 0.57820  0.72430  0.76320  Biso   1.000  C
  C27      1.0000 0.62390  0.74770  0.59300  Biso   1.000  C
  H25      1.0000 0.63900  0.71020  0.52820  Biso   1.000  H
  O21      1.0000 0.71730  0.91870  0.25880  Biso   1.000  O
  C28      1.0000 0.76440  0.95150  0.08600  Biso   1.000  C
  H26      1.0000 0.76980  0.00690  0.05680  Biso   1.000  H
  H27      1.0000 0.73740  0.91860  0.97370  Biso   1.000  H
  H28      1.0000 0.81860  0.96080  0.09440  Biso   1.000  H
  O22      1.0000 0.41130  0.96870  0.75180  Biso   1.000  O
  O23      1.0000 0.62800  0.10890  0.98120  Biso   1.000  O
  C29      1.0000 0.35860  0.90920  0.85240  Biso   1.000  C
  C30      1.0000 0.27570  0.85390  0.76320  Biso   1.000  C
  C31      1.0000 0.25230  0.87620  0.59300  Biso   1.000  C
  H29      1.0000 0.28980  0.92880  0.52820  Biso   1.000  H
  O24      1.0000 0.08130  0.79860  0.25880  Biso   1.000  O
  C32      1.0000 0.04850  0.81290  0.08600  Biso   1.000  C
  H30      1.0000 0.99310  0.76290  0.05680  Biso   1.000  H
  H31      1.0000 0.08140  0.81880  0.97370  Biso   1.000  H
  H32      1.0000 0.03920  0.85780  0.09440  Biso   1.000  H
  O25      1.0000 0.03130  0.44260  0.75180  Biso   1.000  O
  O26      1.0000 0.89110  0.51910  0.98120  Biso   1.000  O
  C33      1.0000 0.09080  0.44940  0.85240  Biso   1.000  C
  C34      1.0000 0.14610  0.42180  0.76320  Biso   1.000  C
  C35      1.0000 0.12380  0.37610  0.59300  Biso   1.000  C
  H33      1.0000 0.07120  0.36100  0.52820  Biso   1.000  H
  O27      1.0000 0.20140  0.28270  0.25880  Biso   1.000  O
  C36      1.0000 0.18710  0.23560  0.08600  Biso   1.000  C
  H34      1.0000 0.23710  0.23020  0.05680  Biso   1.000  H
  H35      1.0000 0.18120  0.26260  0.97370  Biso   1.000  H
  H36      1.0000 0.14220  0.18140  0.09440  Biso   1.000  H
  O28      1.0000 0.58870  0.55740  0.24820  Biso   1.000  O
  O29      1.0000 0.37200  0.48090  0.01880  Biso   1.000  O
  C37      1.0000 0.64140  0.55060  0.14760  Biso   1.000  C
  C38      1.0000 0.72430  0.57820  0.23680  Biso   1.000  C
  C39      1.0000 0.74770  0.62390  0.40700  Biso   1.000  C
  H37      1.0000 0.71020  0.63900  0.47180  Biso   1.000  H
  O30      1.0000 0.91870  0.71730  0.74120  Biso   1.000  O
  C40      1.0000 0.95150  0.76440  0.91400  Biso   1.000  C
  H38      1.0000 0.00690  0.76980  0.94320  Biso   1.000  H
  H39      1.0000 0.91860  0.73740  0.02630  Biso   1.000  H
  H40      1.0000 0.96080  0.81860  0.90560  Biso   1.000  H
  O31      1.0000 0.96870  0.41130  0.24820  Biso   1.000  O
  O32      1.0000 0.10890  0.62800  0.01880  Biso   1.000  O
  C41      1.0000 0.90920  0.35860  0.14760  Biso   1.000  C
  C42      1.0000 0.85390  0.27570  0.23680  Biso   1.000  C
  C43      1.0000 0.87620  0.25230  0.40700  Biso   1.000  C
  H41      1.0000 0.92880  0.28980  0.47180  Biso   1.000  H
  O33      1.0000 0.79860  0.08130  0.74120  Biso   1.000  O
  C44      1.0000 0.81290  0.04850  0.91400  Biso   1.000  C
  H42      1.0000 0.76290  0.99310  0.94320  Biso   1.000  H
  H43      1.0000 0.81880  0.08140  0.02630  Biso   1.000  H
  H44      1.0000 0.85780  0.03920  0.90560  Biso   1.000  H
  O34      1.0000 0.44260  0.03130  0.24820  Biso   1.000  O
  O35      1.0000 0.51910  0.89110  0.01880  Biso   1.000  O
  C45      1.0000 0.44940  0.09080  0.14760  Biso   1.000  C
  C46      1.0000 0.42180  0.14610  0.23680  Biso   1.000  C
  C47      1.0000 0.37610  0.12380  0.40700  Biso   1.000  C
  H45      1.0000 0.36100  0.07120  0.47180  Biso   1.000  H
  O36      1.0000 0.28270  0.20140  0.74120  Biso   1.000  O
  C48      1.0000 0.23560  0.18710  0.91400  Biso   1.000  C
  H46      1.0000 0.23020  0.23710  0.94320  Biso   1.000  H
  H47      1.0000 0.26260  0.18120  0.02630  Biso   1.000  H
  H48      1.0000 0.18140  0.14220  0.90560  Biso   1.000  H
  Cu1      1.0000 0.47677  0.52323  0.15540  Biso   1.000  Cu
  Cu2      1.0000 0.47677  0.95354  0.15540  Biso   1.000  Cu
  Cu3      1.0000 0.04646  0.52323  0.15540  Biso   1.000  Cu
  Cu4      1.0000 0.52323  0.47677  0.84460  Biso   1.000  Cu
  Cu5      1.0000 0.95354  0.47677  0.84460  Biso   1.000  Cu
  Cu6      1.0000 0.52323  0.04646  0.84460  Biso   1.000  Cu
  C49      1.0000 0.44290  0.22145  0.15120  Biso   1.000  C
  C50      1.0000 0.35230  0.17615  0.48720  Biso   1.000  C
  H49      1.0000 0.47350  0.23675  0.02940  Biso   1.000  H
  C51      1.0000 0.30290  0.15145  0.67040  Biso   1.000  C
  C52      1.0000 0.77855  0.22145  0.15120  Biso   1.000  C
  C53      1.0000 0.82385  0.17615  0.48720  Biso   1.000  C
  H50      1.0000 0.76325  0.23675  0.02940  Biso   1.000  H
  C54      1.0000 0.84855  0.15145  0.67040  Biso   1.000  C
  C55      1.0000 0.77855  0.55710  0.15120  Biso   1.000  C
  C56      1.0000 0.82385  0.64770  0.48720  Biso   1.000  C
  H51      1.0000 0.76325  0.52650  0.02940  Biso   1.000  H
  C57      1.0000 0.84855  0.69710  0.67040  Biso   1.000  C
  C58      1.0000 0.22145  0.44290  0.84880  Biso   1.000  C
  C59      1.0000 0.17615  0.35230  0.51280  Biso   1.000  C
  H52      1.0000 0.23675  0.47350  0.97060  Biso   1.000  H
  C60      1.0000 0.15145  0.30290  0.32960  Biso   1.000  C
  C61      1.0000 0.22145  0.77855  0.84880  Biso   1.000  C
  C62      1.0000 0.17615  0.82385  0.51280  Biso   1.000  C
  H53      1.0000 0.23675  0.76325  0.97060  Biso   1.000  H
  C63      1.0000 0.15145  0.84855  0.32960  Biso   1.000  C
  C64      1.0000 0.55710  0.77855  0.84880  Biso   1.000  C
  C65      1.0000 0.64770  0.82385  0.51280  Biso   1.000  C
  H54      1.0000 0.52650  0.76325  0.97060  Biso   1.000  H
  C66      1.0000 0.69710  0.84855  0.32960  Biso   1.000  C
