data_YODRAM_clean
_audit_creation_date              2015-10-16
_audit_creation_method            'Materials Studio'
_symmetry_space_group_name_H-M    'P1'
_symmetry_Int_Tables_number       1
_symmetry_cell_setting            triclinic
loop_
_symmetry_equiv_pos_as_xyz
  x,y,z
_cell_length_a                    13.1852
_cell_length_b                    20.0198
_cell_length_c                    20.0198
_cell_angle_alpha                 103.2320
_cell_angle_beta                  107.6640
_cell_angle_gamma                 72.3361
loop_
_atom_site_label
_atom_site_type_symbol
_atom_site_fract_x
_atom_site_fract_y
_atom_site_fract_z
_atom_site_U_iso_or_equiv
_atom_site_adp_type
_atom_site_occupancy
Co1    Co    0.43693   0.81803   0.69267   0.01267  Uiso   1.00
Co2    Co    0.06741   0.27567   0.72433   0.01267  Uiso   1.00
Co3    Co    0.43693   0.30733   0.18197   0.01267  Uiso   1.00
Co4    Co    0.56307   0.69267   0.81803   0.01267  Uiso   1.00
Co5    Co    0.32246   0.29254   0.70746   0.01267  Uiso   1.00
Co6    Co    0.00000   0.00000   0.00000   0.01267  Uiso   1.00
Co7    Co    0.56307   0.18197   0.30733   0.01267  Uiso   1.00
Co8    Co    0.93259   0.72433   0.27567   0.01267  Uiso   1.00
Co9    Co    0.67754   0.70746   0.29254   0.01267  Uiso   1.00
H1     H     0.51210   0.32270   0.05830   0.01267  Uiso   1.00
H2     H     0.54380   0.68250   0.06370   0.01267  Uiso   1.00
H3     H     0.35290   0.82180   0.95200   0.01267  Uiso   1.00
H4     H     0.22420   0.93430   0.68230   0.01267  Uiso   1.00
H5     H     0.96840   0.03440   0.15080   0.01267  Uiso   1.00
H6     H     0.74670   0.45890   0.34890   0.01267  Uiso   1.00
H7     H     0.80700   0.19600   0.56080   0.01267  Uiso   1.00
H8     H     0.83920   0.94500   0.31200   0.01267  Uiso   1.00
H9     H     0.77090   0.01500   0.88640   0.01267  Uiso   1.00
H10    H     0.48790   0.05830   0.32270   0.01267  Uiso   1.00
H11    H     0.33400   0.82890   0.53430   0.01267  Uiso   1.00
H12    H     0.77090   0.11360   0.98500   0.01267  Uiso   1.00
H13    H     0.85120   0.26140   0.73860   0.01267  Uiso   1.00
H14    H     0.24240   0.75020   0.65740   0.01267  Uiso   1.00
H15    H     0.64710   0.95200   0.82180   0.01267  Uiso   1.00
H16    H     0.55560   0.60890   0.18810   0.01267  Uiso   1.00
H17    H     0.51740   0.49460   0.16800   0.01267  Uiso   1.00
H18    H     0.33400   0.46570   0.17110   0.01267  Uiso   1.00
H19    H     0.54380   0.93630   0.31750   0.01267  Uiso   1.00
H20    H     0.64710   0.17820   0.04800   0.01267  Uiso   1.00
H21    H     0.91170   0.88830   0.11170   0.01267  Uiso   1.00
H22    H     0.51210   0.94170   0.67730   0.01267  Uiso   1.00
H23    H     0.10160   0.72060   0.56680   0.01267  Uiso   1.00
H24    H     0.83920   0.68800   0.05500   0.01267  Uiso   1.00
H25    H     0.20600   0.43940   0.65540   0.01267  Uiso   1.00
H26    H     0.79400   0.56060   0.34460   0.01267  Uiso   1.00
H27    H     0.77580   0.68230   0.93430   0.01267  Uiso   1.00
H28    H     0.25330   0.54110   0.65110   0.01267  Uiso   1.00
H29    H     0.15450   0.21790   0.09390   0.01267  Uiso   1.00
H30    H     0.45620   0.31750   0.93630   0.01267  Uiso   1.00
H31    H     0.89840   0.56680   0.72060   0.01267  Uiso   1.00
H32    H     0.51740   0.83200   0.50540   0.01267  Uiso   1.00
H33    H     0.75760   0.24980   0.34260   0.01267  Uiso   1.00
H34    H     0.79400   0.65540   0.43940   0.01267  Uiso   1.00
H35    H     0.22910   0.88640   0.01500   0.01267  Uiso   1.00
H36    H     0.03160   0.96560   0.84920   0.01267  Uiso   1.00
H37    H     0.75760   0.65740   0.75020   0.01267  Uiso   1.00
H38    H     0.48260   0.16800   0.49460   0.01267  Uiso   1.00
H39    H     0.85490   0.82720   0.17280   0.01267  Uiso   1.00
H40    H     0.96840   0.84920   0.96560   0.01267  Uiso   1.00
H41    H     0.66600   0.53430   0.82890   0.01267  Uiso   1.00
H42    H     0.16080   0.05500   0.68800   0.01267  Uiso   1.00
H43    H     0.15450   0.90610   0.78210   0.01267  Uiso   1.00
H44    H     0.22420   0.31770   0.06570   0.01267  Uiso   1.00
H45    H     0.22910   0.98500   0.11360   0.01267  Uiso   1.00
H46    H     0.25330   0.34890   0.45890   0.01267  Uiso   1.00
H47    H     0.84550   0.78210   0.90610   0.01267  Uiso   1.00
H48    H     0.55560   0.81190   0.39110   0.01267  Uiso   1.00
H49    H     0.74670   0.65110   0.54110   0.01267  Uiso   1.00
H50    H     0.84550   0.09390   0.21790   0.01267  Uiso   1.00
H51    H     0.22140   0.79490   0.20510   0.01267  Uiso   1.00
H52    H     0.80700   0.43920   0.80400   0.01267  Uiso   1.00
H53    H     0.08830   0.11170   0.88830   0.01267  Uiso   1.00
H54    H     0.48260   0.50540   0.83200   0.01267  Uiso   1.00
H55    H     0.16080   0.31200   0.94500   0.01267  Uiso   1.00
H56    H     0.45620   0.06370   0.68250   0.01267  Uiso   1.00
H57    H     0.44440   0.39110   0.81190   0.01267  Uiso   1.00
H58    H     0.48790   0.67730   0.94170   0.01267  Uiso   1.00
H59    H     0.03160   0.15080   0.03440   0.01267  Uiso   1.00
H60    H     0.77860   0.20510   0.79490   0.01267  Uiso   1.00
H61    H     0.19300   0.80400   0.43920   0.01267  Uiso   1.00
H62    H     0.14880   0.73860   0.26140   0.01267  Uiso   1.00
H63    H     0.44440   0.18810   0.60890   0.01267  Uiso   1.00
H64    H     0.10160   0.43320   0.27940   0.01267  Uiso   1.00
H65    H     0.24240   0.34260   0.24980   0.01267  Uiso   1.00
H66    H     0.19300   0.56080   0.19600   0.01267  Uiso   1.00
H67    H     0.14510   0.17280   0.82720   0.01267  Uiso   1.00
H68    H     0.66600   0.17110   0.46570   0.01267  Uiso   1.00
H69    H     0.89840   0.27940   0.43320   0.01267  Uiso   1.00
H70    H     0.35290   0.04800   0.17820   0.01267  Uiso   1.00
H71    H     0.77580   0.06570   0.31770   0.01267  Uiso   1.00
H72    H     0.20600   0.34460   0.56060   0.01267  Uiso   1.00
C1     C     0.09840   0.12898   0.06262   0.01267  Uiso   1.00
C2     C     0.23350   0.38720   0.23900   0.01267  Uiso   1.00
C3     C     0.43190   0.20850   0.50890   0.01267  Uiso   1.00
C4     C     0.55960   0.67965   0.96515   0.01267  Uiso   1.00
C5     C     0.35540   0.81763   0.81997   0.01267  Uiso   1.00
C6     C     0.76650   0.61280   0.76100   0.01267  Uiso   1.00
C7     C     0.28620   0.80680   0.54140   0.01267  Uiso   1.00
C8     C     0.35540   0.18003   0.18237   0.01267  Uiso   1.00
C9     C     0.23320   0.03319   0.68621   0.01267  Uiso   1.00
C10    C     0.88510   0.11280   0.88720   0.01267  Uiso   1.00
C11    C     0.73590   0.84576   0.30484   0.01267  Uiso   1.00
C12    C     0.20180   0.79152   0.48288   0.01267  Uiso   1.00
C13    C     0.44040   0.32035   0.03485   0.01267  Uiso   1.00
C14    C     0.70650   0.48700   0.31380   0.01267  Uiso   1.00
C15    C     0.69820   0.68705   0.07315   0.01267  Uiso   1.00
C16    C     0.85430   0.19690   0.80310   0.01267  Uiso   1.00
C17    C     0.59430   0.77870   0.42170   0.01267  Uiso   1.00
C18    C     0.27140   0.31729   0.03911   0.01267  Uiso   1.00
C19    C     0.21310   0.03251   0.10929   0.01267  Uiso   1.00
C20    C     0.28860   0.85204   0.92976   0.01267  Uiso   1.00
C21    C     0.27110   0.85721   0.86159   0.01267  Uiso   1.00
C22    C     0.14570   0.80310   0.19690   0.01267  Uiso   1.00
C23    C     0.92620   0.15120   0.84880   0.01267  Uiso   1.00
C24    C     0.85180   0.25720   0.44160   0.01267  Uiso   1.00
C25    C     0.40570   0.42170   0.77870   0.01267  Uiso   1.00
C26    C     0.28860   0.07024   0.14796   0.01267  Uiso   1.00
C27    C     0.79820   0.20848   0.51712   0.01267  Uiso   1.00
C28    C     0.85180   0.55840   0.74280   0.01267  Uiso   1.00
C29    C     0.82870   0.82972   0.90128   0.01267  Uiso   1.00
C30    C     0.43190   0.49110   0.79150   0.01267  Uiso   1.00
C31    C     0.56810   0.79150   0.49110   0.01267  Uiso   1.00
C32    C     0.82870   0.09872   0.17028   0.01267  Uiso   1.00
C33    C     0.72860   0.68271   0.96089   0.01267  Uiso   1.00
C34    C     0.59010   0.39880   0.25140   0.01267  Uiso   1.00
C35    C     0.86710   0.24240   0.50740   0.01267  Uiso   1.00
C36    C     0.78690   0.10929   0.03251   0.01267  Uiso   1.00
C37    C     0.40760   0.03860   0.68300   0.01267  Uiso   1.00
C38    C     0.13290   0.50740   0.24240   0.01267  Uiso   1.00
C39    C     0.27130   0.44780   0.68600   0.01267  Uiso   1.00
C40    C     0.44040   0.96515   0.67965   0.01267  Uiso   1.00
C41    C     0.72890   0.86159   0.85721   0.01267  Uiso   1.00
C42    C     0.26410   0.30484   0.84576   0.01267  Uiso   1.00
C43    C     0.37660   0.53240   0.74020   0.01267  Uiso   1.00
C44    C     0.56810   0.50890   0.20850   0.01267  Uiso   1.00
C45    C     0.90030   0.23060   0.76940   0.01267  Uiso   1.00
C46    C     0.30180   0.07315   0.68705   0.01267  Uiso   1.00
C47    C     0.40570   0.22130   0.57830   0.01267  Uiso   1.00
C48    C     0.59010   0.74860   0.60120   0.01267  Uiso   1.00
C49    C     0.09970   0.76940   0.23060   0.01267  Uiso   1.00
C50    C     0.29350   0.51300   0.68620   0.01267  Uiso   1.00
C51    C     0.73590   0.69516   0.15424   0.01267  Uiso   1.00
C52    C     0.04160   0.73770   0.43010   0.01267  Uiso   1.00
C53    C     0.28620   0.45860   0.19320   0.01267  Uiso   1.00
C54    C     0.69820   0.92685   0.31295   0.01267  Uiso   1.00
C55    C     0.76650   0.23900   0.38720   0.01267  Uiso   1.00
C56    C     0.92990   0.82080   0.17920   0.01267  Uiso   1.00
C57    C     0.59240   0.96140   0.31700   0.01267  Uiso   1.00
C58    C     0.72860   0.03911   0.31729   0.01267  Uiso   1.00
C59    C     0.40990   0.25140   0.39880   0.01267  Uiso   1.00
C60    C     0.23350   0.76100   0.61280   0.01267  Uiso   1.00
C61    C     0.62340   0.74020   0.53240   0.01267  Uiso   1.00
C62    C     0.64460   0.81997   0.81763   0.01267  Uiso   1.00
C63    C     0.40760   0.31700   0.96140   0.01267  Uiso   1.00
C64    C     0.20180   0.51712   0.20848   0.01267  Uiso   1.00
C65    C     0.76680   0.68621   0.03319   0.01267  Uiso   1.00
C66    C     0.72870   0.68600   0.44780   0.01267  Uiso   1.00
C67    C     0.17130   0.90128   0.82972   0.01267  Uiso   1.00
C68    C     0.59430   0.57830   0.22130   0.01267  Uiso   1.00
C69    C     0.09840   0.93738   0.87102   0.01267  Uiso   1.00
C70    C     0.07010   0.17920   0.82080   0.01267  Uiso   1.00
C71    C     0.95840   0.43010   0.73770   0.01267  Uiso   1.00
C72    C     0.78690   0.96749   0.89071   0.01267  Uiso   1.00
C73    C     0.96320   0.85800   0.14200   0.01267  Uiso   1.00
C74    C     0.90160   0.06262   0.12898   0.01267  Uiso   1.00
C75    C     0.64460   0.18237   0.18003   0.01267  Uiso   1.00
C76    C     0.11490   0.88720   0.11280   0.01267  Uiso   1.00
C77    C     0.29350   0.31380   0.48700   0.01267  Uiso   1.00
C78    C     0.03680   0.14200   0.85800   0.01267  Uiso   1.00
C79    C     0.90160   0.87102   0.93738   0.01267  Uiso   1.00
C80    C     0.59240   0.68300   0.03860   0.01267  Uiso   1.00
C81    C     0.76680   0.96681   0.31379   0.01267  Uiso   1.00
C82    C     0.04160   0.56990   0.26230   0.01267  Uiso   1.00
C83    C     0.71140   0.92976   0.85204   0.01267  Uiso   1.00
C84    C     0.27140   0.96089   0.68271   0.01267  Uiso   1.00
C85    C     0.27110   0.13841   0.14279   0.01267  Uiso   1.00
C86    C     0.27130   0.31400   0.55220   0.01267  Uiso   1.00
C87    C     0.86710   0.49260   0.75760   0.01267  Uiso   1.00
C88    C     0.72870   0.55220   0.31400   0.01267  Uiso   1.00
C89    C     0.30180   0.31295   0.92685   0.01267  Uiso   1.00
C90    C     0.62340   0.46760   0.25980   0.01267  Uiso   1.00
C91    C     0.79820   0.48288   0.79152   0.01267  Uiso   1.00
C92    C     0.23320   0.31379   0.96681   0.01267  Uiso   1.00
C93    C     0.72890   0.14279   0.13841   0.01267  Uiso   1.00
C94    C     0.55960   0.03485   0.32035   0.01267  Uiso   1.00
C95    C     0.71140   0.14796   0.07024   0.01267  Uiso   1.00
C96    C     0.07380   0.84880   0.15120   0.01267  Uiso   1.00
C97    C     0.21310   0.89071   0.96749   0.01267  Uiso   1.00
C98    C     0.37660   0.25980   0.46760   0.01267  Uiso   1.00
C99    C     0.14820   0.74280   0.55840   0.01267  Uiso   1.00
C100   C     0.95840   0.26230   0.56990   0.01267  Uiso   1.00
C101   C     0.71380   0.19320   0.45860   0.01267  Uiso   1.00
C102   C     0.40990   0.60120   0.74860   0.01267  Uiso   1.00
C103   C     0.17130   0.17028   0.09872   0.01267  Uiso   1.00
C104   C     0.70650   0.68620   0.51300   0.01267  Uiso   1.00
C105   C     0.13290   0.75760   0.49260   0.01267  Uiso   1.00
C106   C     0.14820   0.44160   0.25720   0.01267  Uiso   1.00
C107   C     0.26410   0.15424   0.69516   0.01267  Uiso   1.00
C108   C     0.71380   0.54140   0.80680   0.01267  Uiso   1.00
N1     N     0.99910   0.77669   0.22331   0.01267  Uiso   1.00
N2     N     0.66920   0.60020   0.27680   0.01267  Uiso   1.00
N3     N     0.62540   0.67971   0.92781   0.01267  Uiso   1.00
N4     N     0.30380   0.39432   0.20712   0.01267  Uiso   1.00
N5     N     0.66920   0.72320   0.39980   0.01267  Uiso   1.00
N6     N     0.62540   0.07219   0.32029   0.01267  Uiso   1.00
N7     N     0.33080   0.27680   0.60020   0.01267  Uiso   1.00
N8     N     0.30380   0.79288   0.60568   0.01267  Uiso   1.00
N9     N     0.00090   0.22331   0.77669   0.01267  Uiso   1.00
N10    N     0.37460   0.92781   0.67971   0.01267  Uiso   1.00
N11    N     0.33080   0.39980   0.72320   0.01267  Uiso   1.00
N12    N     0.11670   0.93464   0.93888   0.01267  Uiso   1.00
N13    N     0.88330   0.93888   0.93464   0.01267  Uiso   1.00
N14    N     0.69620   0.60568   0.79288   0.01267  Uiso   1.00
N15    N     0.11670   0.06112   0.06536   0.01267  Uiso   1.00
N16    N     0.69620   0.20712   0.39432   0.01267  Uiso   1.00
N17    N     0.88330   0.06536   0.06112   0.01267  Uiso   1.00
N18    N     0.37460   0.32029   0.07219   0.01267  Uiso   1.00
O1     O     0.33600   0.83362   0.75874   0.01267  Uiso   1.00
O2     O     0.95590   0.07201   0.92799   0.01267  Uiso   1.00
O3     O     0.50000   0.70856   0.70856   0.01267  Uiso   1.00
O4     O     0.52870   0.79999   0.61961   0.01267  Uiso   1.00
O5     O     0.52870   0.38039   0.20001   0.01267  Uiso   1.00
O6     O     0.62460   0.69273   0.62907   0.01267  Uiso   1.00
O7     O     0.83110   0.82099   0.29837   0.01267  Uiso   1.00
O8     O     0.67130   0.69396   0.18646   0.01267  Uiso   1.00
O9     O     0.95620   0.37172   0.74450   0.01267  Uiso   1.00
O10    O     0.95620   0.25550   0.62828   0.01267  Uiso   1.00
O11    O     0.62460   0.37093   0.30727   0.01267  Uiso   1.00
O12    O     0.04380   0.74450   0.37172   0.01267  Uiso   1.00
O13    O     0.32870   0.30604   0.81354   0.01267  Uiso   1.00
O14    O     0.37540   0.62907   0.69273   0.01267  Uiso   1.00
O15    O     0.66400   0.75874   0.83362   0.01267  Uiso   1.00
O16    O     0.50000   0.29144   0.29144   0.01267  Uiso   1.00
O17    O     0.43630   0.15140   0.22604   0.01267  Uiso   1.00
O18    O     0.33600   0.24126   0.16638   0.01267  Uiso   1.00
O19    O     0.02550   0.28590   0.55550   0.01267  Uiso   1.00
O20    O     0.16890   0.17901   0.70163   0.01267  Uiso   1.00
O21    O     0.04410   0.92799   0.07201   0.01267  Uiso   1.00
O22    O     0.56370   0.84860   0.77396   0.01267  Uiso   1.00
O23    O     0.02550   0.44450   0.71410   0.01267  Uiso   1.00
O24    O     0.83110   0.70163   0.17901   0.01267  Uiso   1.00
O25    O     0.97450   0.55550   0.28590   0.01267  Uiso   1.00
O26    O     0.78460   0.12297   0.87703   0.01267  Uiso   1.00
O27    O     0.43630   0.77396   0.84860   0.01267  Uiso   1.00
O28    O     0.47130   0.61961   0.79999   0.01267  Uiso   1.00
O29    O     0.66400   0.16638   0.24126   0.01267  Uiso   1.00
O30    O     0.56370   0.22604   0.15140   0.01267  Uiso   1.00
O31    O     0.16890   0.29837   0.82099   0.01267  Uiso   1.00
O32    O     0.04380   0.62828   0.25550   0.01267  Uiso   1.00
O33    O     0.47130   0.20001   0.38039   0.01267  Uiso   1.00
O34    O     0.32870   0.18646   0.69396   0.01267  Uiso   1.00
O35    O     0.67130   0.81354   0.30604   0.01267  Uiso   1.00
O36    O     0.97450   0.71410   0.44450   0.01267  Uiso   1.00
O37    O     0.37540   0.30727   0.37093   0.01267  Uiso   1.00
O38    O     0.21540   0.87703   0.12297   0.01267  Uiso   1.00
