data_image0
_cell_length_a       32.366
_cell_length_b       32.366
_cell_length_c       32.366
_cell_angle_alpha    90
_cell_angle_beta     90
_cell_angle_gamma    90

_symmetry_space_group_name_H-M    "P 1"
_symmetry_int_tables_number       1

loop_
  _symmetry_equiv_pos_as_xyz
  'x, y, z'

loop_
  _atom_site_label
  _atom_site_occupancy
  _atom_site_fract_x
  _atom_site_fract_y
  _atom_site_fract_z
  _atom_site_thermal_displace_type
  _atom_site_B_iso_or_equiv
  _atom_site_type_symbol
  Zn1      1.0000 0.28530  0.28530  0.28530  Biso   1.000  Zn
  Zn2      1.0000 0.34927  0.34927  0.34927  Biso   1.000  Zn
  Zn3      1.0000 0.71470  0.71470  0.28530  Biso   1.000  Zn
  Zn4      1.0000 0.65073  0.65073  0.34927  Biso   1.000  Zn
  Zn5      1.0000 0.71470  0.28530  0.71470  Biso   1.000  Zn
  Zn6      1.0000 0.65073  0.34927  0.65073  Biso   1.000  Zn
  Zn7      1.0000 0.28530  0.71470  0.71470  Biso   1.000  Zn
  Zn8      1.0000 0.34927  0.65073  0.65073  Biso   1.000  Zn
  Zn9      1.0000 0.28530  0.28530  0.71470  Biso   1.000  Zn
  Zn10     1.0000 0.34927  0.34927  0.65073  Biso   1.000  Zn
  Zn11     1.0000 0.71470  0.71470  0.71470  Biso   1.000  Zn
  Zn12     1.0000 0.65073  0.65073  0.65073  Biso   1.000  Zn
  Zn13     1.0000 0.28530  0.71470  0.28530  Biso   1.000  Zn
  Zn14     1.0000 0.34927  0.65073  0.34927  Biso   1.000  Zn
  Zn15     1.0000 0.71470  0.28530  0.28530  Biso   1.000  Zn
  Zn16     1.0000 0.65073  0.34927  0.34927  Biso   1.000  Zn
  Zn17     1.0000 0.50000  0.13890  0.50000  Biso   1.000  Zn
  Zn18     1.0000 0.50000  0.23010  0.50000  Biso   1.000  Zn
  Zn19     1.0000 0.50000  0.86110  0.50000  Biso   1.000  Zn
  Zn20     1.0000 0.50000  0.76990  0.50000  Biso   1.000  Zn
  Zn21     1.0000 0.50000  0.50000  0.13890  Biso   1.000  Zn
  Zn22     1.0000 0.50000  0.50000  0.23010  Biso   1.000  Zn
  Zn23     1.0000 0.50000  0.50000  0.86110  Biso   1.000  Zn
  Zn24     1.0000 0.50000  0.50000  0.76990  Biso   1.000  Zn
  Zn25     1.0000 0.13890  0.50000  0.50000  Biso   1.000  Zn
  Zn26     1.0000 0.23010  0.50000  0.50000  Biso   1.000  Zn
  Zn27     1.0000 0.86110  0.50000  0.50000  Biso   1.000  Zn
  Zn28     1.0000 0.76990  0.50000  0.50000  Biso   1.000  Zn
  O1       1.0000 0.32030  0.25290  0.32030  Biso   1.000  O
  O2       1.0000 0.36260  0.29250  0.36260  Biso   1.000  O
  O3       1.0000 0.45880  0.14910  0.45880  Biso   1.000  O
  O4       1.0000 0.45740  0.21990  0.45740  Biso   1.000  O
  C1       1.0000 0.36670  0.22180  0.36670  Biso   1.000  C
  C2       1.0000 0.39710  0.22230  0.39710  Biso   1.000  C
  H1       1.0000 0.40700  0.24740  0.40700  Biso   1.000  H
  C3       1.0000 0.41260  0.18540  0.41260  Biso   1.000  C
  C4       1.0000 0.39780  0.14790  0.39780  Biso   1.000  C
  H2       1.0000 0.40810  0.12320  0.40810  Biso   1.000  H
  C5       1.0000 0.36740  0.14740  0.36740  Biso   1.000  C
  C6       1.0000 0.35190  0.18430  0.35190  Biso   1.000  C
  H3       1.0000 0.33160  0.18400  0.33160  Biso   1.000  H
  C7       1.0000 0.34780  0.25930  0.34780  Biso   1.000  C
  C8       1.0000 0.44500  0.18380  0.44500  Biso   1.000  C
  C9       1.0000 0.35200  0.10870  0.35200  Biso   1.000  C
  C10      1.0000 0.34080  0.07570  0.34080  Biso   1.000  C
  C11      1.0000 0.32590  0.03670  0.32590  Biso   1.000  C
  C12      1.0000 0.29550  0.03730  0.29550  Biso   1.000  C
  H4       1.0000 0.28550  0.06230  0.28550  Biso   1.000  H
  O5       1.0000 0.67970  0.74710  0.32030  Biso   1.000  O
  O6       1.0000 0.63740  0.70750  0.36260  Biso   1.000  O
  O7       1.0000 0.54120  0.85090  0.45880  Biso   1.000  O
  O8       1.0000 0.54260  0.78010  0.45740  Biso   1.000  O
  C13      1.0000 0.63330  0.77820  0.36670  Biso   1.000  C
  C14      1.0000 0.60290  0.77770  0.39710  Biso   1.000  C
  H5       1.0000 0.59300  0.75260  0.40700  Biso   1.000  H
  C15      1.0000 0.58740  0.81460  0.41260  Biso   1.000  C
  C16      1.0000 0.60220  0.85210  0.39780  Biso   1.000  C
  H6       1.0000 0.59190  0.87680  0.40810  Biso   1.000  H
  C17      1.0000 0.63260  0.85260  0.36740  Biso   1.000  C
  C18      1.0000 0.64810  0.81570  0.35190  Biso   1.000  C
  H7       1.0000 0.66840  0.81600  0.33160  Biso   1.000  H
  C19      1.0000 0.65220  0.74070  0.34780  Biso   1.000  C
  C20      1.0000 0.55500  0.81620  0.44500  Biso   1.000  C
  C21      1.0000 0.64800  0.89130  0.35200  Biso   1.000  C
  C22      1.0000 0.65920  0.92430  0.34080  Biso   1.000  C
  C23      1.0000 0.67410  0.96330  0.32590  Biso   1.000  C
  C24      1.0000 0.70450  0.96270  0.29550  Biso   1.000  C
  H8       1.0000 0.71450  0.93770  0.28550  Biso   1.000  H
  O9       1.0000 0.67970  0.25290  0.67970  Biso   1.000  O
  O10      1.0000 0.63740  0.29250  0.63740  Biso   1.000  O
  O11      1.0000 0.54120  0.14910  0.54120  Biso   1.000  O
  O12      1.0000 0.54260  0.21990  0.54260  Biso   1.000  O
  C25      1.0000 0.63330  0.22180  0.63330  Biso   1.000  C
  C26      1.0000 0.60290  0.22230  0.60290  Biso   1.000  C
  H9       1.0000 0.59300  0.24740  0.59300  Biso   1.000  H
  C27      1.0000 0.58740  0.18540  0.58740  Biso   1.000  C
  C28      1.0000 0.60220  0.14790  0.60220  Biso   1.000  C
  H10      1.0000 0.59190  0.12320  0.59190  Biso   1.000  H
  C29      1.0000 0.63260  0.14740  0.63260  Biso   1.000  C
  C30      1.0000 0.64810  0.18430  0.64810  Biso   1.000  C
  H11      1.0000 0.66840  0.18400  0.66840  Biso   1.000  H
  C31      1.0000 0.65220  0.25930  0.65220  Biso   1.000  C
  C32      1.0000 0.55500  0.18380  0.55500  Biso   1.000  C
  C33      1.0000 0.64800  0.10870  0.64800  Biso   1.000  C
  C34      1.0000 0.65920  0.07570  0.65920  Biso   1.000  C
  C35      1.0000 0.67410  0.03670  0.67410  Biso   1.000  C
  C36      1.0000 0.70450  0.03730  0.70450  Biso   1.000  C
  H12      1.0000 0.71450  0.06230  0.71450  Biso   1.000  H
  O13      1.0000 0.32030  0.74710  0.67970  Biso   1.000  O
  O14      1.0000 0.36260  0.70750  0.63740  Biso   1.000  O
  O15      1.0000 0.45880  0.85090  0.54120  Biso   1.000  O
  O16      1.0000 0.45740  0.78010  0.54260  Biso   1.000  O
  C37      1.0000 0.36670  0.77820  0.63330  Biso   1.000  C
  C38      1.0000 0.39710  0.77770  0.60290  Biso   1.000  C
  H13      1.0000 0.40700  0.75260  0.59300  Biso   1.000  H
  C39      1.0000 0.41260  0.81460  0.58740  Biso   1.000  C
  C40      1.0000 0.39780  0.85210  0.60220  Biso   1.000  C
  H14      1.0000 0.40810  0.87680  0.59190  Biso   1.000  H
  C41      1.0000 0.36740  0.85260  0.63260  Biso   1.000  C
  C42      1.0000 0.35190  0.81570  0.64810  Biso   1.000  C
  H15      1.0000 0.33160  0.81600  0.66840  Biso   1.000  H
  C43      1.0000 0.34780  0.74070  0.65220  Biso   1.000  C
  C44      1.0000 0.44500  0.81620  0.55500  Biso   1.000  C
  C45      1.0000 0.35200  0.89130  0.64800  Biso   1.000  C
  C46      1.0000 0.34080  0.92430  0.65920  Biso   1.000  C
  C47      1.0000 0.32590  0.96330  0.67410  Biso   1.000  C
  C48      1.0000 0.29550  0.96270  0.70450  Biso   1.000  C
  H16      1.0000 0.28550  0.93770  0.71450  Biso   1.000  H
  O17      1.0000 0.32030  0.32030  0.25290  Biso   1.000  O
  O18      1.0000 0.36260  0.36260  0.29250  Biso   1.000  O
  O19      1.0000 0.45880  0.45880  0.14910  Biso   1.000  O
  O20      1.0000 0.45740  0.45740  0.21990  Biso   1.000  O
  C49      1.0000 0.36670  0.36670  0.22180  Biso   1.000  C
  C50      1.0000 0.39710  0.39710  0.22230  Biso   1.000  C
  H17      1.0000 0.40700  0.40700  0.24740  Biso   1.000  H
  C51      1.0000 0.41260  0.41260  0.18540  Biso   1.000  C
  C52      1.0000 0.39780  0.39780  0.14790  Biso   1.000  C
  H18      1.0000 0.40810  0.40810  0.12320  Biso   1.000  H
  C53      1.0000 0.36740  0.36740  0.14740  Biso   1.000  C
  C54      1.0000 0.35190  0.35190  0.18430  Biso   1.000  C
  H19      1.0000 0.33160  0.33160  0.18400  Biso   1.000  H
  C55      1.0000 0.34780  0.34780  0.25930  Biso   1.000  C
  C56      1.0000 0.44500  0.44500  0.18380  Biso   1.000  C
  C57      1.0000 0.35200  0.35200  0.10870  Biso   1.000  C
  C58      1.0000 0.34080  0.34080  0.07570  Biso   1.000  C
  C59      1.0000 0.32590  0.32590  0.03670  Biso   1.000  C
  C60      1.0000 0.29550  0.29550  0.03730  Biso   1.000  C
  H20      1.0000 0.28550  0.28550  0.06230  Biso   1.000  H
  O21      1.0000 0.32030  0.67970  0.74710  Biso   1.000  O
  O22      1.0000 0.36260  0.63740  0.70750  Biso   1.000  O
  O23      1.0000 0.45880  0.54120  0.85090  Biso   1.000  O
  O24      1.0000 0.45740  0.54260  0.78010  Biso   1.000  O
  C61      1.0000 0.36670  0.63330  0.77820  Biso   1.000  C
  C62      1.0000 0.39710  0.60290  0.77770  Biso   1.000  C
  H21      1.0000 0.40700  0.59300  0.75260  Biso   1.000  H
  C63      1.0000 0.41260  0.58740  0.81460  Biso   1.000  C
  C64      1.0000 0.39780  0.60220  0.85210  Biso   1.000  C
  H22      1.0000 0.40810  0.59190  0.87680  Biso   1.000  H
  C65      1.0000 0.36740  0.63260  0.85260  Biso   1.000  C
  C66      1.0000 0.35190  0.64810  0.81570  Biso   1.000  C
  H23      1.0000 0.33160  0.66840  0.81600  Biso   1.000  H
  C67      1.0000 0.34780  0.65220  0.74070  Biso   1.000  C
  C68      1.0000 0.44500  0.55500  0.81620  Biso   1.000  C
  C69      1.0000 0.35200  0.64800  0.89130  Biso   1.000  C
  C70      1.0000 0.34080  0.65920  0.92430  Biso   1.000  C
  C71      1.0000 0.32590  0.67410  0.96330  Biso   1.000  C
  C72      1.0000 0.29550  0.70450  0.96270  Biso   1.000  C
  H24      1.0000 0.28550  0.71450  0.93770  Biso   1.000  H
  O25      1.0000 0.67970  0.67970  0.25290  Biso   1.000  O
  O26      1.0000 0.63740  0.63740  0.29250  Biso   1.000  O
  O27      1.0000 0.54120  0.54120  0.14910  Biso   1.000  O
  O28      1.0000 0.54260  0.54260  0.21990  Biso   1.000  O
  C73      1.0000 0.63330  0.63330  0.22180  Biso   1.000  C
  C74      1.0000 0.60290  0.60290  0.22230  Biso   1.000  C
  H25      1.0000 0.59300  0.59300  0.24740  Biso   1.000  H
  C75      1.0000 0.58740  0.58740  0.18540  Biso   1.000  C
  C76      1.0000 0.60220  0.60220  0.14790  Biso   1.000  C
  H26      1.0000 0.59190  0.59190  0.12320  Biso   1.000  H
  C77      1.0000 0.63260  0.63260  0.14740  Biso   1.000  C
  C78      1.0000 0.64810  0.64810  0.18430  Biso   1.000  C
  H27      1.0000 0.66840  0.66840  0.18400  Biso   1.000  H
  C79      1.0000 0.65220  0.65220  0.25930  Biso   1.000  C
  C80      1.0000 0.55500  0.55500  0.18380  Biso   1.000  C
  C81      1.0000 0.64800  0.64800  0.10870  Biso   1.000  C
  C82      1.0000 0.65920  0.65920  0.07570  Biso   1.000  C
  C83      1.0000 0.67410  0.67410  0.03670  Biso   1.000  C
  C84      1.0000 0.70450  0.70450  0.03730  Biso   1.000  C
  H28      1.0000 0.71450  0.71450  0.06230  Biso   1.000  H
  O29      1.0000 0.67970  0.32030  0.74710  Biso   1.000  O
  O30      1.0000 0.63740  0.36260  0.70750  Biso   1.000  O
  O31      1.0000 0.54120  0.45880  0.85090  Biso   1.000  O
  O32      1.0000 0.54260  0.45740  0.78010  Biso   1.000  O
  C85      1.0000 0.63330  0.36670  0.77820  Biso   1.000  C
  C86      1.0000 0.60290  0.39710  0.77770  Biso   1.000  C
  H29      1.0000 0.59300  0.40700  0.75260  Biso   1.000  H
  C87      1.0000 0.58740  0.41260  0.81460  Biso   1.000  C
  C88      1.0000 0.60220  0.39780  0.85210  Biso   1.000  C
  H30      1.0000 0.59190  0.40810  0.87680  Biso   1.000  H
  C89      1.0000 0.63260  0.36740  0.85260  Biso   1.000  C
  C90      1.0000 0.64810  0.35190  0.81570  Biso   1.000  C
  H31      1.0000 0.66840  0.33160  0.81600  Biso   1.000  H
  C91      1.0000 0.65220  0.34780  0.74070  Biso   1.000  C
  C92      1.0000 0.55500  0.44500  0.81620  Biso   1.000  C
  C93      1.0000 0.64800  0.35200  0.89130  Biso   1.000  C
  C94      1.0000 0.65920  0.34080  0.92430  Biso   1.000  C
  C95      1.0000 0.67410  0.32590  0.96330  Biso   1.000  C
  C96      1.0000 0.70450  0.29550  0.96270  Biso   1.000  C
  H32      1.0000 0.71450  0.28550  0.93770  Biso   1.000  H
  O33      1.0000 0.25290  0.32030  0.32030  Biso   1.000  O
  O34      1.0000 0.29250  0.36260  0.36260  Biso   1.000  O
  O35      1.0000 0.14910  0.45880  0.45880  Biso   1.000  O
  O36      1.0000 0.21990  0.45740  0.45740  Biso   1.000  O
  C97      1.0000 0.22180  0.36670  0.36670  Biso   1.000  C
  C98      1.0000 0.22230  0.39710  0.39710  Biso   1.000  C
  H33      1.0000 0.24740  0.40700  0.40700  Biso   1.000  H
  C99      1.0000 0.18540  0.41260  0.41260  Biso   1.000  C
  C100     1.0000 0.14790  0.39780  0.39780  Biso   1.000  C
  H34      1.0000 0.12320  0.40810  0.40810  Biso   1.000  H
  C101     1.0000 0.14740  0.36740  0.36740  Biso   1.000  C
  C102     1.0000 0.18430  0.35190  0.35190  Biso   1.000  C
  H35      1.0000 0.18400  0.33160  0.33160  Biso   1.000  H
  C103     1.0000 0.25930  0.34780  0.34780  Biso   1.000  C
  C104     1.0000 0.18380  0.44500  0.44500  Biso   1.000  C
  C105     1.0000 0.10870  0.35200  0.35200  Biso   1.000  C
  C106     1.0000 0.07570  0.34080  0.34080  Biso   1.000  C
  C107     1.0000 0.03670  0.32590  0.32590  Biso   1.000  C
  C108     1.0000 0.03730  0.29550  0.29550  Biso   1.000  C
  H36      1.0000 0.06230  0.28550  0.28550  Biso   1.000  H
  O37      1.0000 0.74710  0.32030  0.67970  Biso   1.000  O
  O38      1.0000 0.70750  0.36260  0.63740  Biso   1.000  O
  O39      1.0000 0.85090  0.45880  0.54120  Biso   1.000  O
  O40      1.0000 0.78010  0.45740  0.54260  Biso   1.000  O
  C109     1.0000 0.77820  0.36670  0.63330  Biso   1.000  C
  C110     1.0000 0.77770  0.39710  0.60290  Biso   1.000  C
  H37      1.0000 0.75260  0.40700  0.59300  Biso   1.000  H
  C111     1.0000 0.81460  0.41260  0.58740  Biso   1.000  C
  C112     1.0000 0.85210  0.39780  0.60220  Biso   1.000  C
  H38      1.0000 0.87680  0.40810  0.59190  Biso   1.000  H
  C113     1.0000 0.85260  0.36740  0.63260  Biso   1.000  C
  C114     1.0000 0.81570  0.35190  0.64810  Biso   1.000  C
  H39      1.0000 0.81600  0.33160  0.66840  Biso   1.000  H
  C115     1.0000 0.74070  0.34780  0.65220  Biso   1.000  C
  C116     1.0000 0.81620  0.44500  0.55500  Biso   1.000  C
  C117     1.0000 0.89130  0.35200  0.64800  Biso   1.000  C
  C118     1.0000 0.92430  0.34080  0.65920  Biso   1.000  C
  C119     1.0000 0.96330  0.32590  0.67410  Biso   1.000  C
  C120     1.0000 0.96270  0.29550  0.70450  Biso   1.000  C
  H40      1.0000 0.93770  0.28550  0.71450  Biso   1.000  H
  O41      1.0000 0.25290  0.67970  0.67970  Biso   1.000  O
  O42      1.0000 0.29250  0.63740  0.63740  Biso   1.000  O
  O43      1.0000 0.14910  0.54120  0.54120  Biso   1.000  O
  O44      1.0000 0.21990  0.54260  0.54260  Biso   1.000  O
  C121     1.0000 0.22180  0.63330  0.63330  Biso   1.000  C
  C122     1.0000 0.22230  0.60290  0.60290  Biso   1.000  C
  H41      1.0000 0.24740  0.59300  0.59300  Biso   1.000  H
  C123     1.0000 0.18540  0.58740  0.58740  Biso   1.000  C
  C124     1.0000 0.14790  0.60220  0.60220  Biso   1.000  C
  H42      1.0000 0.12320  0.59190  0.59190  Biso   1.000  H
  C125     1.0000 0.14740  0.63260  0.63260  Biso   1.000  C
  C126     1.0000 0.18430  0.64810  0.64810  Biso   1.000  C
  H43      1.0000 0.18400  0.66840  0.66840  Biso   1.000  H
  C127     1.0000 0.25930  0.65220  0.65220  Biso   1.000  C
  C128     1.0000 0.18380  0.55500  0.55500  Biso   1.000  C
  C129     1.0000 0.10870  0.64800  0.64800  Biso   1.000  C
  C130     1.0000 0.07570  0.65920  0.65920  Biso   1.000  C
  C131     1.0000 0.03670  0.67410  0.67410  Biso   1.000  C
  C132     1.0000 0.03730  0.70450  0.70450  Biso   1.000  C
  H44      1.0000 0.06230  0.71450  0.71450  Biso   1.000  H
  O45      1.0000 0.74710  0.67970  0.32030  Biso   1.000  O
  O46      1.0000 0.70750  0.63740  0.36260  Biso   1.000  O
  O47      1.0000 0.85090  0.54120  0.45880  Biso   1.000  O
  O48      1.0000 0.78010  0.54260  0.45740  Biso   1.000  O
  C133     1.0000 0.77820  0.63330  0.36670  Biso   1.000  C
  C134     1.0000 0.77770  0.60290  0.39710  Biso   1.000  C
  H45      1.0000 0.75260  0.59300  0.40700  Biso   1.000  H
  C135     1.0000 0.81460  0.58740  0.41260  Biso   1.000  C
  C136     1.0000 0.85210  0.60220  0.39780  Biso   1.000  C
  H46      1.0000 0.87680  0.59190  0.40810  Biso   1.000  H
  C137     1.0000 0.85260  0.63260  0.36740  Biso   1.000  C
  C138     1.0000 0.81570  0.64810  0.35190  Biso   1.000  C
  H47      1.0000 0.81600  0.66840  0.33160  Biso   1.000  H
  C139     1.0000 0.74070  0.65220  0.34780  Biso   1.000  C
  C140     1.0000 0.81620  0.55500  0.44500  Biso   1.000  C
  C141     1.0000 0.89130  0.64800  0.35200  Biso   1.000  C
  C142     1.0000 0.92430  0.65920  0.34080  Biso   1.000  C
  C143     1.0000 0.96330  0.67410  0.32590  Biso   1.000  C
  C144     1.0000 0.96270  0.70450  0.29550  Biso   1.000  C
  H48      1.0000 0.93770  0.71450  0.28550  Biso   1.000  H
  O49      1.0000 0.25290  0.32030  0.67970  Biso   1.000  O
  O50      1.0000 0.29250  0.36260  0.63740  Biso   1.000  O
  O51      1.0000 0.14910  0.45880  0.54120  Biso   1.000  O
  O52      1.0000 0.21990  0.45740  0.54260  Biso   1.000  O
  C145     1.0000 0.22180  0.36670  0.63330  Biso   1.000  C
  C146     1.0000 0.22230  0.39710  0.60290  Biso   1.000  C
  H49      1.0000 0.24740  0.40700  0.59300  Biso   1.000  H
  C147     1.0000 0.18540  0.41260  0.58740  Biso   1.000  C
  C148     1.0000 0.14790  0.39780  0.60220  Biso   1.000  C
  H50      1.0000 0.12320  0.40810  0.59190  Biso   1.000  H
  C149     1.0000 0.14740  0.36740  0.63260  Biso   1.000  C
  C150     1.0000 0.18430  0.35190  0.64810  Biso   1.000  C
  H51      1.0000 0.18400  0.33160  0.66840  Biso   1.000  H
  C151     1.0000 0.25930  0.34780  0.65220  Biso   1.000  C
  C152     1.0000 0.18380  0.44500  0.55500  Biso   1.000  C
  C153     1.0000 0.10870  0.35200  0.64800  Biso   1.000  C
  C154     1.0000 0.07570  0.34080  0.65920  Biso   1.000  C
  C155     1.0000 0.03670  0.32590  0.67410  Biso   1.000  C
  C156     1.0000 0.03730  0.29550  0.70450  Biso   1.000  C
  H52      1.0000 0.06230  0.28550  0.71450  Biso   1.000  H
  O53      1.0000 0.74710  0.67970  0.67970  Biso   1.000  O
  O54      1.0000 0.70750  0.63740  0.63740  Biso   1.000  O
  O55      1.0000 0.85090  0.54120  0.54120  Biso   1.000  O
  O56      1.0000 0.78010  0.54260  0.54260  Biso   1.000  O
  C157     1.0000 0.77820  0.63330  0.63330  Biso   1.000  C
  C158     1.0000 0.77770  0.60290  0.60290  Biso   1.000  C
  H53      1.0000 0.75260  0.59300  0.59300  Biso   1.000  H
  C159     1.0000 0.81460  0.58740  0.58740  Biso   1.000  C
  C160     1.0000 0.85210  0.60220  0.60220  Biso   1.000  C
  H54      1.0000 0.87680  0.59190  0.59190  Biso   1.000  H
  C161     1.0000 0.85260  0.63260  0.63260  Biso   1.000  C
  C162     1.0000 0.81570  0.64810  0.64810  Biso   1.000  C
  H55      1.0000 0.81600  0.66840  0.66840  Biso   1.000  H
  C163     1.0000 0.74070  0.65220  0.65220  Biso   1.000  C
  C164     1.0000 0.81620  0.55500  0.55500  Biso   1.000  C
  C165     1.0000 0.89130  0.64800  0.64800  Biso   1.000  C
  C166     1.0000 0.92430  0.65920  0.65920  Biso   1.000  C
  C167     1.0000 0.96330  0.67410  0.67410  Biso   1.000  C
  C168     1.0000 0.96270  0.70450  0.70450  Biso   1.000  C
  H56      1.0000 0.93770  0.71450  0.71450  Biso   1.000  H
  O57      1.0000 0.25290  0.67970  0.32030  Biso   1.000  O
  O58      1.0000 0.29250  0.63740  0.36260  Biso   1.000  O
  O59      1.0000 0.14910  0.54120  0.45880  Biso   1.000  O
  O60      1.0000 0.21990  0.54260  0.45740  Biso   1.000  O
  C169     1.0000 0.22180  0.63330  0.36670  Biso   1.000  C
  C170     1.0000 0.22230  0.60290  0.39710  Biso   1.000  C
  H57      1.0000 0.24740  0.59300  0.40700  Biso   1.000  H
  C171     1.0000 0.18540  0.58740  0.41260  Biso   1.000  C
  C172     1.0000 0.14790  0.60220  0.39780  Biso   1.000  C
  H58      1.0000 0.12320  0.59190  0.40810  Biso   1.000  H
  C173     1.0000 0.14740  0.63260  0.36740  Biso   1.000  C
  C174     1.0000 0.18430  0.64810  0.35190  Biso   1.000  C
  H59      1.0000 0.18400  0.66840  0.33160  Biso   1.000  H
  C175     1.0000 0.25930  0.65220  0.34780  Biso   1.000  C
  C176     1.0000 0.18380  0.55500  0.44500  Biso   1.000  C
  C177     1.0000 0.10870  0.64800  0.35200  Biso   1.000  C
  C178     1.0000 0.07570  0.65920  0.34080  Biso   1.000  C
  C179     1.0000 0.03670  0.67410  0.32590  Biso   1.000  C
  C180     1.0000 0.03730  0.70450  0.29550  Biso   1.000  C
  H60      1.0000 0.06230  0.71450  0.28550  Biso   1.000  H
  O61      1.0000 0.74710  0.32030  0.32030  Biso   1.000  O
  O62      1.0000 0.70750  0.36260  0.36260  Biso   1.000  O
  O63      1.0000 0.85090  0.45880  0.45880  Biso   1.000  O
  O64      1.0000 0.78010  0.45740  0.45740  Biso   1.000  O
  C181     1.0000 0.77820  0.36670  0.36670  Biso   1.000  C
  C182     1.0000 0.77770  0.39710  0.39710  Biso   1.000  C
  H61      1.0000 0.75260  0.40700  0.40700  Biso   1.000  H
  C183     1.0000 0.81460  0.41260  0.41260  Biso   1.000  C
  C184     1.0000 0.85210  0.39780  0.39780  Biso   1.000  C
  H62      1.0000 0.87680  0.40810  0.40810  Biso   1.000  H
  C185     1.0000 0.85260  0.36740  0.36740  Biso   1.000  C
  C186     1.0000 0.81570  0.35190  0.35190  Biso   1.000  C
  H63      1.0000 0.81600  0.33160  0.33160  Biso   1.000  H
  C187     1.0000 0.74070  0.34780  0.34780  Biso   1.000  C
  C188     1.0000 0.81620  0.44500  0.44500  Biso   1.000  C
  C189     1.0000 0.89130  0.35200  0.35200  Biso   1.000  C
  C190     1.0000 0.92430  0.34080  0.34080  Biso   1.000  C
  C191     1.0000 0.96330  0.32590  0.32590  Biso   1.000  C
  C192     1.0000 0.96270  0.29550  0.29550  Biso   1.000  C
  H64      1.0000 0.93770  0.28550  0.28550  Biso   1.000  H
  O65      1.0000 0.32030  0.32030  0.74710  Biso   1.000  O
  O66      1.0000 0.36260  0.36260  0.70750  Biso   1.000  O
  O67      1.0000 0.45880  0.45880  0.85090  Biso   1.000  O
  O68      1.0000 0.45740  0.45740  0.78010  Biso   1.000  O
  C193     1.0000 0.36670  0.36670  0.77820  Biso   1.000  C
  C194     1.0000 0.39710  0.39710  0.77770  Biso   1.000  C
  H65      1.0000 0.40700  0.40700  0.75260  Biso   1.000  H
  C195     1.0000 0.41260  0.41260  0.81460  Biso   1.000  C
  C196     1.0000 0.39780  0.39780  0.85210  Biso   1.000  C
  H66      1.0000 0.40810  0.40810  0.87680  Biso   1.000  H
  C197     1.0000 0.36740  0.36740  0.85260  Biso   1.000  C
  C198     1.0000 0.35190  0.35190  0.81570  Biso   1.000  C
  H67      1.0000 0.33160  0.33160  0.81600  Biso   1.000  H
  C199     1.0000 0.34780  0.34780  0.74070  Biso   1.000  C
  C200     1.0000 0.44500  0.44500  0.81620  Biso   1.000  C
  C201     1.0000 0.35200  0.35200  0.89130  Biso   1.000  C
  C202     1.0000 0.34080  0.34080  0.92430  Biso   1.000  C
  C203     1.0000 0.32590  0.32590  0.96330  Biso   1.000  C
  C204     1.0000 0.29550  0.29550  0.96270  Biso   1.000  C
  H68      1.0000 0.28550  0.28550  0.93770  Biso   1.000  H
  O69      1.0000 0.67970  0.32030  0.25290  Biso   1.000  O
  O70      1.0000 0.63740  0.36260  0.29250  Biso   1.000  O
  O71      1.0000 0.54120  0.45880  0.14910  Biso   1.000  O
  O72      1.0000 0.54260  0.45740  0.21990  Biso   1.000  O
  C205     1.0000 0.63330  0.36670  0.22180  Biso   1.000  C
  C206     1.0000 0.60290  0.39710  0.22230  Biso   1.000  C
  H69      1.0000 0.59300  0.40700  0.24740  Biso   1.000  H
  C207     1.0000 0.58740  0.41260  0.18540  Biso   1.000  C
  C208     1.0000 0.60220  0.39780  0.14790  Biso   1.000  C
  H70      1.0000 0.59190  0.40810  0.12320  Biso   1.000  H
  C209     1.0000 0.63260  0.36740  0.14740  Biso   1.000  C
  C210     1.0000 0.64810  0.35190  0.18430  Biso   1.000  C
  H71      1.0000 0.66840  0.33160  0.18400  Biso   1.000  H
  C211     1.0000 0.65220  0.34780  0.25930  Biso   1.000  C
  C212     1.0000 0.55500  0.44500  0.18380  Biso   1.000  C
  C213     1.0000 0.64800  0.35200  0.10870  Biso   1.000  C
  C214     1.0000 0.65920  0.34080  0.07570  Biso   1.000  C
  C215     1.0000 0.67410  0.32590  0.03670  Biso   1.000  C
  C216     1.0000 0.70450  0.29550  0.03730  Biso   1.000  C
  H72      1.0000 0.71450  0.28550  0.06230  Biso   1.000  H
  O73      1.0000 0.67970  0.67970  0.74710  Biso   1.000  O
  O74      1.0000 0.63740  0.63740  0.70750  Biso   1.000  O
  O75      1.0000 0.54120  0.54120  0.85090  Biso   1.000  O
  O76      1.0000 0.54260  0.54260  0.78010  Biso   1.000  O
  C217     1.0000 0.63330  0.63330  0.77820  Biso   1.000  C
  C218     1.0000 0.60290  0.60290  0.77770  Biso   1.000  C
  H73      1.0000 0.59300  0.59300  0.75260  Biso   1.000  H
  C219     1.0000 0.58740  0.58740  0.81460  Biso   1.000  C
  C220     1.0000 0.60220  0.60220  0.85210  Biso   1.000  C
  H74      1.0000 0.59190  0.59190  0.87680  Biso   1.000  H
  C221     1.0000 0.63260  0.63260  0.85260  Biso   1.000  C
  C222     1.0000 0.64810  0.64810  0.81570  Biso   1.000  C
  H75      1.0000 0.66840  0.66840  0.81600  Biso   1.000  H
  C223     1.0000 0.65220  0.65220  0.74070  Biso   1.000  C
  C224     1.0000 0.55500  0.55500  0.81620  Biso   1.000  C
  C225     1.0000 0.64800  0.64800  0.89130  Biso   1.000  C
  C226     1.0000 0.65920  0.65920  0.92430  Biso   1.000  C
  C227     1.0000 0.67410  0.67410  0.96330  Biso   1.000  C
  C228     1.0000 0.70450  0.70450  0.96270  Biso   1.000  C
  H76      1.0000 0.71450  0.71450  0.93770  Biso   1.000  H
  O77      1.0000 0.32030  0.67970  0.25290  Biso   1.000  O
  O78      1.0000 0.36260  0.63740  0.29250  Biso   1.000  O
  O79      1.0000 0.45880  0.54120  0.14910  Biso   1.000  O
  O80      1.0000 0.45740  0.54260  0.21990  Biso   1.000  O
  C229     1.0000 0.36670  0.63330  0.22180  Biso   1.000  C
  C230     1.0000 0.39710  0.60290  0.22230  Biso   1.000  C
  H77      1.0000 0.40700  0.59300  0.24740  Biso   1.000  H
  C231     1.0000 0.41260  0.58740  0.18540  Biso   1.000  C
  C232     1.0000 0.39780  0.60220  0.14790  Biso   1.000  C
  H78      1.0000 0.40810  0.59190  0.12320  Biso   1.000  H
  C233     1.0000 0.36740  0.63260  0.14740  Biso   1.000  C
  C234     1.0000 0.35190  0.64810  0.18430  Biso   1.000  C
  H79      1.0000 0.33160  0.66840  0.18400  Biso   1.000  H
  C235     1.0000 0.34780  0.65220  0.25930  Biso   1.000  C
  C236     1.0000 0.44500  0.55500  0.18380  Biso   1.000  C
  C237     1.0000 0.35200  0.64800  0.10870  Biso   1.000  C
  C238     1.0000 0.34080  0.65920  0.07570  Biso   1.000  C
  C239     1.0000 0.32590  0.67410  0.03670  Biso   1.000  C
  C240     1.0000 0.29550  0.70450  0.03730  Biso   1.000  C
  H80      1.0000 0.28550  0.71450  0.06230  Biso   1.000  H
  O81      1.0000 0.32030  0.25290  0.67970  Biso   1.000  O
  O82      1.0000 0.36260  0.29250  0.63740  Biso   1.000  O
  O83      1.0000 0.45880  0.14910  0.54120  Biso   1.000  O
  O84      1.0000 0.45740  0.21990  0.54260  Biso   1.000  O
  C241     1.0000 0.36670  0.22180  0.63330  Biso   1.000  C
  C242     1.0000 0.39710  0.22230  0.60290  Biso   1.000  C
  H81      1.0000 0.40700  0.24740  0.59300  Biso   1.000  H
  C243     1.0000 0.41260  0.18540  0.58740  Biso   1.000  C
  C244     1.0000 0.39780  0.14790  0.60220  Biso   1.000  C
  H82      1.0000 0.40810  0.12320  0.59190  Biso   1.000  H
  C245     1.0000 0.36740  0.14740  0.63260  Biso   1.000  C
  C246     1.0000 0.35190  0.18430  0.64810  Biso   1.000  C
  H83      1.0000 0.33160  0.18400  0.66840  Biso   1.000  H
  C247     1.0000 0.34780  0.25930  0.65220  Biso   1.000  C
  C248     1.0000 0.44500  0.18380  0.55500  Biso   1.000  C
  C249     1.0000 0.35200  0.10870  0.64800  Biso   1.000  C
  C250     1.0000 0.34080  0.07570  0.65920  Biso   1.000  C
  C251     1.0000 0.32590  0.03670  0.67410  Biso   1.000  C
  C252     1.0000 0.29550  0.03730  0.70450  Biso   1.000  C
  H84      1.0000 0.28550  0.06230  0.71450  Biso   1.000  H
  O85      1.0000 0.32030  0.74710  0.32030  Biso   1.000  O
  O86      1.0000 0.36260  0.70750  0.36260  Biso   1.000  O
  O87      1.0000 0.45880  0.85090  0.45880  Biso   1.000  O
  O88      1.0000 0.45740  0.78010  0.45740  Biso   1.000  O
  C253     1.0000 0.36670  0.77820  0.36670  Biso   1.000  C
  C254     1.0000 0.39710  0.77770  0.39710  Biso   1.000  C
  H85      1.0000 0.40700  0.75260  0.40700  Biso   1.000  H
  C255     1.0000 0.41260  0.81460  0.41260  Biso   1.000  C
  C256     1.0000 0.39780  0.85210  0.39780  Biso   1.000  C
  H86      1.0000 0.40810  0.87680  0.40810  Biso   1.000  H
  C257     1.0000 0.36740  0.85260  0.36740  Biso   1.000  C
  C258     1.0000 0.35190  0.81570  0.35190  Biso   1.000  C
  H87      1.0000 0.33160  0.81600  0.33160  Biso   1.000  H
  C259     1.0000 0.34780  0.74070  0.34780  Biso   1.000  C
  C260     1.0000 0.44500  0.81620  0.44500  Biso   1.000  C
  C261     1.0000 0.35200  0.89130  0.35200  Biso   1.000  C
  C262     1.0000 0.34080  0.92430  0.34080  Biso   1.000  C
  C263     1.0000 0.32590  0.96330  0.32590  Biso   1.000  C
  C264     1.0000 0.29550  0.96270  0.29550  Biso   1.000  C
  H88      1.0000 0.28550  0.93770  0.28550  Biso   1.000  H
  O89      1.0000 0.67970  0.25290  0.32030  Biso   1.000  O
  O90      1.0000 0.63740  0.29250  0.36260  Biso   1.000  O
  O91      1.0000 0.54120  0.14910  0.45880  Biso   1.000  O
  O92      1.0000 0.54260  0.21990  0.45740  Biso   1.000  O
  C265     1.0000 0.63330  0.22180  0.36670  Biso   1.000  C
  C266     1.0000 0.60290  0.22230  0.39710  Biso   1.000  C
  H89      1.0000 0.59300  0.24740  0.40700  Biso   1.000  H
  C267     1.0000 0.58740  0.18540  0.41260  Biso   1.000  C
  C268     1.0000 0.60220  0.14790  0.39780  Biso   1.000  C
  H90      1.0000 0.59190  0.12320  0.40810  Biso   1.000  H
  C269     1.0000 0.63260  0.14740  0.36740  Biso   1.000  C
  C270     1.0000 0.64810  0.18430  0.35190  Biso   1.000  C
  H91      1.0000 0.66840  0.18400  0.33160  Biso   1.000  H
  C271     1.0000 0.65220  0.25930  0.34780  Biso   1.000  C
  C272     1.0000 0.55500  0.18380  0.44500  Biso   1.000  C
  C273     1.0000 0.64800  0.10870  0.35200  Biso   1.000  C
  C274     1.0000 0.65920  0.07570  0.34080  Biso   1.000  C
  C275     1.0000 0.67410  0.03670  0.32590  Biso   1.000  C
  C276     1.0000 0.70450  0.03730  0.29550  Biso   1.000  C
  H92      1.0000 0.71450  0.06230  0.28550  Biso   1.000  H
  O93      1.0000 0.67970  0.74710  0.67970  Biso   1.000  O
  O94      1.0000 0.63740  0.70750  0.63740  Biso   1.000  O
  O95      1.0000 0.54120  0.85090  0.54120  Biso   1.000  O
  O96      1.0000 0.54260  0.78010  0.54260  Biso   1.000  O
  C277     1.0000 0.63330  0.77820  0.63330  Biso   1.000  C
  C278     1.0000 0.60290  0.77770  0.60290  Biso   1.000  C
  H93      1.0000 0.59300  0.75260  0.59300  Biso   1.000  H
  C279     1.0000 0.58740  0.81460  0.58740  Biso   1.000  C
  C280     1.0000 0.60220  0.85210  0.60220  Biso   1.000  C
  H94      1.0000 0.59190  0.87680  0.59190  Biso   1.000  H
  C281     1.0000 0.63260  0.85260  0.63260  Biso   1.000  C
  C282     1.0000 0.64810  0.81570  0.64810  Biso   1.000  C
  H95      1.0000 0.66840  0.81600  0.66840  Biso   1.000  H
  C283     1.0000 0.65220  0.74070  0.65220  Biso   1.000  C
  C284     1.0000 0.55500  0.81620  0.55500  Biso   1.000  C
  C285     1.0000 0.64800  0.89130  0.64800  Biso   1.000  C
  C286     1.0000 0.65920  0.92430  0.65920  Biso   1.000  C
  C287     1.0000 0.67410  0.96330  0.67410  Biso   1.000  C
  C288     1.0000 0.70450  0.96270  0.70450  Biso   1.000  C
  H96      1.0000 0.71450  0.93770  0.71450  Biso   1.000  H
  C289     1.0000 0.34150  0.00000  0.34150  Biso   1.000  C
  H97      1.0000 0.36180  0.00000  0.36180  Biso   1.000  H
  C290     1.0000 0.28020  0.00000  0.28020  Biso   1.000  C
  H98      1.0000 0.25980  0.00000  0.25980  Biso   1.000  H
  C291     1.0000 0.65850  0.00000  0.34150  Biso   1.000  C
  H99      1.0000 0.63820  0.00000  0.36180  Biso   1.000  H
  C292     1.0000 0.71980  0.00000  0.28020  Biso   1.000  C
  H100     1.0000 0.74020  0.00000  0.25980  Biso   1.000  H
  C293     1.0000 0.65850  0.00000  0.65850  Biso   1.000  C
  H101     1.0000 0.63820  0.00000  0.63820  Biso   1.000  H
  C294     1.0000 0.71980  0.00000  0.71980  Biso   1.000  C
  H102     1.0000 0.74020  0.00000  0.74020  Biso   1.000  H
  C295     1.0000 0.34150  0.00000  0.65850  Biso   1.000  C
  H103     1.0000 0.36180  0.00000  0.63820  Biso   1.000  H
  C296     1.0000 0.28020  0.00000  0.71980  Biso   1.000  C
  H104     1.0000 0.25980  0.00000  0.74020  Biso   1.000  H
  C297     1.0000 0.34150  0.34150  0.00000  Biso   1.000  C
  H105     1.0000 0.36180  0.36180  0.00000  Biso   1.000  H
  C298     1.0000 0.28020  0.28020  0.00000  Biso   1.000  C
  H106     1.0000 0.25980  0.25980  0.00000  Biso   1.000  H
  C299     1.0000 0.34150  0.65850  0.00000  Biso   1.000  C
  H107     1.0000 0.36180  0.63820  0.00000  Biso   1.000  H
  C300     1.0000 0.28020  0.71980  0.00000  Biso   1.000  C
  H108     1.0000 0.25980  0.74020  0.00000  Biso   1.000  H
  C301     1.0000 0.65850  0.65850  0.00000  Biso   1.000  C
  H109     1.0000 0.63820  0.63820  0.00000  Biso   1.000  H
  C302     1.0000 0.71980  0.71980  0.00000  Biso   1.000  C
  H110     1.0000 0.74020  0.74020  0.00000  Biso   1.000  H
  C303     1.0000 0.65850  0.34150  0.00000  Biso   1.000  C
  H111     1.0000 0.63820  0.36180  0.00000  Biso   1.000  H
  C304     1.0000 0.71980  0.28020  0.00000  Biso   1.000  C
  H112     1.0000 0.74020  0.25980  0.00000  Biso   1.000  H
  C305     1.0000 0.00000  0.34150  0.34150  Biso   1.000  C
  H113     1.0000 0.00000  0.36180  0.36180  Biso   1.000  H
  C306     1.0000 0.00000  0.28020  0.28020  Biso   1.000  C
  H114     1.0000 0.00000  0.25980  0.25980  Biso   1.000  H
  C307     1.0000 0.00000  0.34150  0.65850  Biso   1.000  C
  H115     1.0000 0.00000  0.36180  0.63820  Biso   1.000  H
  C308     1.0000 0.00000  0.28020  0.71980  Biso   1.000  C
  H116     1.0000 0.00000  0.25980  0.74020  Biso   1.000  H
  C309     1.0000 0.00000  0.65850  0.65850  Biso   1.000  C
  H117     1.0000 0.00000  0.63820  0.63820  Biso   1.000  H
  C310     1.0000 0.00000  0.71980  0.71980  Biso   1.000  C
  H118     1.0000 0.00000  0.74020  0.74020  Biso   1.000  H
  C311     1.0000 0.00000  0.65850  0.34150  Biso   1.000  C
  H119     1.0000 0.00000  0.63820  0.36180  Biso   1.000  H
  C312     1.0000 0.00000  0.71980  0.28020  Biso   1.000  C
  H120     1.0000 0.00000  0.74020  0.25980  Biso   1.000  H
