data_image0
_cell_length_a       31.102
_cell_length_b       31.102
_cell_length_c       31.102
_cell_angle_alpha    90
_cell_angle_beta     90
_cell_angle_gamma    90

_symmetry_space_group_name_H-M    "P 1"
_symmetry_int_tables_number       1

loop_
  _symmetry_equiv_pos_as_xyz
  'x, y, z'

loop_
  _atom_site_label
  _atom_site_occupancy
  _atom_site_fract_x
  _atom_site_fract_y
  _atom_site_fract_z
  _atom_site_thermal_displace_type
  _atom_site_B_iso_or_equiv
  _atom_site_type_symbol
  O1       1.0000 0.45720  0.45810  0.14030  Biso   1.000  O
  O2       1.0000 0.45620  0.45690  0.21130  Biso   1.000  O
  O3       1.0000 0.35810  0.35850  0.28580  Biso   1.000  O
  O4       1.0000 0.31510  0.31780  0.24730  Biso   1.000  O
  O5       1.0000 0.32180  0.27670  0.10380  Biso   1.000  O
  N1       1.0000 0.38540  0.31010  0.10340  Biso   1.000  N
  H1       1.0000 0.41010  0.30610  0.09010  Biso   1.000  H
  C1       1.0000 0.41910  0.40340  0.17180  Biso   1.000  C
  C2       1.0000 0.39570  0.39690  0.20930  Biso   1.000  C
  H2       1.0000 0.39690  0.41750  0.23190  Biso   1.000  H
  C3       1.0000 0.37050  0.36030  0.21390  Biso   1.000  C
  C4       1.0000 0.36870  0.33020  0.18090  Biso   1.000  C
  H3       1.0000 0.35140  0.30520  0.18400  Biso   1.000  H
  C5       1.0000 0.39210  0.33670  0.14340  Biso   1.000  C
  C6       1.0000 0.41730  0.37330  0.13890  Biso   1.000  C
  H4       1.0000 0.43340  0.37770  0.11330  Biso   1.000  H
  C7       1.0000 0.44470  0.44050  0.17580  Biso   1.000  C
  C8       1.0000 0.34700  0.34480  0.24880  Biso   1.000  C
  C9       1.0000 0.35400  0.29090  0.08200  Biso   1.000  C
  C10      1.0000 0.36190  0.27350  0.03880  Biso   1.000  C
  C11      1.0000 0.37300  0.23040  0.03870  Biso   1.000  C
  H5       1.0000 0.37670  0.21560  0.06510  Biso   1.000  H
  O6       1.0000 0.54280  0.54190  0.14030  Biso   1.000  O
  O7       1.0000 0.54380  0.54310  0.21130  Biso   1.000  O
  O8       1.0000 0.64190  0.64150  0.28580  Biso   1.000  O
  O9       1.0000 0.68490  0.68220  0.24730  Biso   1.000  O
  O10      1.0000 0.67820  0.72330  0.10380  Biso   1.000  O
  N2       1.0000 0.61460  0.68990  0.10340  Biso   1.000  N
  H6       1.0000 0.58990  0.69390  0.09010  Biso   1.000  H
  C12      1.0000 0.58090  0.59660  0.17180  Biso   1.000  C
  C13      1.0000 0.60430  0.60310  0.20930  Biso   1.000  C
  H7       1.0000 0.60310  0.58250  0.23190  Biso   1.000  H
  C14      1.0000 0.62950  0.63970  0.21390  Biso   1.000  C
  C15      1.0000 0.63130  0.66980  0.18090  Biso   1.000  C
  H8       1.0000 0.64860  0.69480  0.18400  Biso   1.000  H
  C16      1.0000 0.60790  0.66330  0.14340  Biso   1.000  C
  C17      1.0000 0.58270  0.62670  0.13890  Biso   1.000  C
  H9       1.0000 0.56660  0.62230  0.11330  Biso   1.000  H
  C18      1.0000 0.55530  0.55950  0.17580  Biso   1.000  C
  C19      1.0000 0.65300  0.65520  0.24880  Biso   1.000  C
  C20      1.0000 0.64600  0.70910  0.08200  Biso   1.000  C
  C21      1.0000 0.63810  0.72650  0.03880  Biso   1.000  C
  C22      1.0000 0.62700  0.76960  0.03870  Biso   1.000  C
  H10      1.0000 0.62330  0.78440  0.06510  Biso   1.000  H
  O11      1.0000 0.54280  0.45810  0.85970  Biso   1.000  O
  O12      1.0000 0.54380  0.45690  0.78870  Biso   1.000  O
  O13      1.0000 0.64190  0.35850  0.71420  Biso   1.000  O
  O14      1.0000 0.68490  0.31780  0.75270  Biso   1.000  O
  O15      1.0000 0.67820  0.27670  0.89620  Biso   1.000  O
  N3       1.0000 0.61460  0.31010  0.89660  Biso   1.000  N
  H11      1.0000 0.58990  0.30610  0.90990  Biso   1.000  H
  C23      1.0000 0.58090  0.40340  0.82820  Biso   1.000  C
  C24      1.0000 0.60430  0.39690  0.79070  Biso   1.000  C
  H12      1.0000 0.60310  0.41750  0.76810  Biso   1.000  H
  C25      1.0000 0.62950  0.36030  0.78610  Biso   1.000  C
  C26      1.0000 0.63130  0.33020  0.81910  Biso   1.000  C
  H13      1.0000 0.64860  0.30520  0.81600  Biso   1.000  H
  C27      1.0000 0.60790  0.33670  0.85660  Biso   1.000  C
  C28      1.0000 0.58270  0.37330  0.86110  Biso   1.000  C
  H14      1.0000 0.56660  0.37770  0.88670  Biso   1.000  H
  C29      1.0000 0.55530  0.44050  0.82420  Biso   1.000  C
  C30      1.0000 0.65300  0.34480  0.75120  Biso   1.000  C
  C31      1.0000 0.64600  0.29090  0.91800  Biso   1.000  C
  C32      1.0000 0.63810  0.27350  0.96120  Biso   1.000  C
  C33      1.0000 0.62700  0.23040  0.96130  Biso   1.000  C
  H15      1.0000 0.62330  0.21560  0.93490  Biso   1.000  H
  O16      1.0000 0.45720  0.54190  0.85970  Biso   1.000  O
  O17      1.0000 0.45620  0.54310  0.78870  Biso   1.000  O
  O18      1.0000 0.35810  0.64150  0.71420  Biso   1.000  O
  O19      1.0000 0.31510  0.68220  0.75270  Biso   1.000  O
  O20      1.0000 0.32180  0.72330  0.89620  Biso   1.000  O
  N4       1.0000 0.38540  0.68990  0.89660  Biso   1.000  N
  H16      1.0000 0.41010  0.69390  0.90990  Biso   1.000  H
  C34      1.0000 0.41910  0.59660  0.82820  Biso   1.000  C
  C35      1.0000 0.39570  0.60310  0.79070  Biso   1.000  C
  H17      1.0000 0.39690  0.58250  0.76810  Biso   1.000  H
  C36      1.0000 0.37050  0.63970  0.78610  Biso   1.000  C
  C37      1.0000 0.36870  0.66980  0.81910  Biso   1.000  C
  H18      1.0000 0.35140  0.69480  0.81600  Biso   1.000  H
  C38      1.0000 0.39210  0.66330  0.85660  Biso   1.000  C
  C39      1.0000 0.41730  0.62670  0.86110  Biso   1.000  C
  H19      1.0000 0.43340  0.62230  0.88670  Biso   1.000  H
  C40      1.0000 0.44470  0.55950  0.82420  Biso   1.000  C
  C41      1.0000 0.34700  0.65520  0.75120  Biso   1.000  C
  C42      1.0000 0.35400  0.70910  0.91800  Biso   1.000  C
  C43      1.0000 0.36190  0.72650  0.96120  Biso   1.000  C
  C44      1.0000 0.37300  0.76960  0.96130  Biso   1.000  C
  H20      1.0000 0.37670  0.78440  0.93490  Biso   1.000  H
  O21      1.0000 0.14030  0.45720  0.45810  Biso   1.000  O
  O22      1.0000 0.21130  0.45620  0.45690  Biso   1.000  O
  O23      1.0000 0.28580  0.35810  0.35850  Biso   1.000  O
  O24      1.0000 0.24730  0.31510  0.31780  Biso   1.000  O
  O25      1.0000 0.10380  0.32180  0.27670  Biso   1.000  O
  N5       1.0000 0.10340  0.38540  0.31010  Biso   1.000  N
  H21      1.0000 0.09010  0.41010  0.30610  Biso   1.000  H
  C45      1.0000 0.17180  0.41910  0.40340  Biso   1.000  C
  C46      1.0000 0.20930  0.39570  0.39690  Biso   1.000  C
  H22      1.0000 0.23190  0.39690  0.41750  Biso   1.000  H
  C47      1.0000 0.21390  0.37050  0.36030  Biso   1.000  C
  C48      1.0000 0.18090  0.36870  0.33020  Biso   1.000  C
  H23      1.0000 0.18400  0.35140  0.30520  Biso   1.000  H
  C49      1.0000 0.14340  0.39210  0.33670  Biso   1.000  C
  C50      1.0000 0.13890  0.41730  0.37330  Biso   1.000  C
  H24      1.0000 0.11330  0.43340  0.37770  Biso   1.000  H
  C51      1.0000 0.17580  0.44470  0.44050  Biso   1.000  C
  C52      1.0000 0.24880  0.34700  0.34480  Biso   1.000  C
  C53      1.0000 0.08200  0.35400  0.29090  Biso   1.000  C
  C54      1.0000 0.03880  0.36190  0.27350  Biso   1.000  C
  C55      1.0000 0.03870  0.37300  0.23040  Biso   1.000  C
  H25      1.0000 0.06510  0.37670  0.21560  Biso   1.000  H
  O26      1.0000 0.14030  0.54280  0.54190  Biso   1.000  O
  O27      1.0000 0.21130  0.54380  0.54310  Biso   1.000  O
  O28      1.0000 0.28580  0.64190  0.64150  Biso   1.000  O
  O29      1.0000 0.24730  0.68490  0.68220  Biso   1.000  O
  O30      1.0000 0.10380  0.67820  0.72330  Biso   1.000  O
  N6       1.0000 0.10340  0.61460  0.68990  Biso   1.000  N
  H26      1.0000 0.09010  0.58990  0.69390  Biso   1.000  H
  C56      1.0000 0.17180  0.58090  0.59660  Biso   1.000  C
  C57      1.0000 0.20930  0.60430  0.60310  Biso   1.000  C
  H27      1.0000 0.23190  0.60310  0.58250  Biso   1.000  H
  C58      1.0000 0.21390  0.62950  0.63970  Biso   1.000  C
  C59      1.0000 0.18090  0.63130  0.66980  Biso   1.000  C
  H28      1.0000 0.18400  0.64860  0.69480  Biso   1.000  H
  C60      1.0000 0.14340  0.60790  0.66330  Biso   1.000  C
  C61      1.0000 0.13890  0.58270  0.62670  Biso   1.000  C
  H29      1.0000 0.11330  0.56660  0.62230  Biso   1.000  H
  C62      1.0000 0.17580  0.55530  0.55950  Biso   1.000  C
  C63      1.0000 0.24880  0.65300  0.65520  Biso   1.000  C
  C64      1.0000 0.08200  0.64600  0.70910  Biso   1.000  C
  C65      1.0000 0.03880  0.63810  0.72650  Biso   1.000  C
  C66      1.0000 0.03870  0.62700  0.76960  Biso   1.000  C
  H30      1.0000 0.06510  0.62330  0.78440  Biso   1.000  H
  O31      1.0000 0.85970  0.54280  0.45810  Biso   1.000  O
  O32      1.0000 0.78870  0.54380  0.45690  Biso   1.000  O
  O33      1.0000 0.71420  0.64190  0.35850  Biso   1.000  O
  O34      1.0000 0.75270  0.68490  0.31780  Biso   1.000  O
  O35      1.0000 0.89620  0.67820  0.27670  Biso   1.000  O
  N7       1.0000 0.89660  0.61460  0.31010  Biso   1.000  N
  H31      1.0000 0.90990  0.58990  0.30610  Biso   1.000  H
  C67      1.0000 0.82820  0.58090  0.40340  Biso   1.000  C
  C68      1.0000 0.79070  0.60430  0.39690  Biso   1.000  C
  H32      1.0000 0.76810  0.60310  0.41750  Biso   1.000  H
  C69      1.0000 0.78610  0.62950  0.36030  Biso   1.000  C
  C70      1.0000 0.81910  0.63130  0.33020  Biso   1.000  C
  H33      1.0000 0.81600  0.64860  0.30520  Biso   1.000  H
  C71      1.0000 0.85660  0.60790  0.33670  Biso   1.000  C
  C72      1.0000 0.86110  0.58270  0.37330  Biso   1.000  C
  H34      1.0000 0.88670  0.56660  0.37770  Biso   1.000  H
  C73      1.0000 0.82420  0.55530  0.44050  Biso   1.000  C
  C74      1.0000 0.75120  0.65300  0.34480  Biso   1.000  C
  C75      1.0000 0.91800  0.64600  0.29090  Biso   1.000  C
  C76      1.0000 0.96120  0.63810  0.27350  Biso   1.000  C
  C77      1.0000 0.96130  0.62700  0.23040  Biso   1.000  C
  H35      1.0000 0.93490  0.62330  0.21560  Biso   1.000  H
  O36      1.0000 0.85970  0.45720  0.54190  Biso   1.000  O
  O37      1.0000 0.78870  0.45620  0.54310  Biso   1.000  O
  O38      1.0000 0.71420  0.35810  0.64150  Biso   1.000  O
  O39      1.0000 0.75270  0.31510  0.68220  Biso   1.000  O
  O40      1.0000 0.89620  0.32180  0.72330  Biso   1.000  O
  N8       1.0000 0.89660  0.38540  0.68990  Biso   1.000  N
  H36      1.0000 0.90990  0.41010  0.69390  Biso   1.000  H
  C78      1.0000 0.82820  0.41910  0.59660  Biso   1.000  C
  C79      1.0000 0.79070  0.39570  0.60310  Biso   1.000  C
  H37      1.0000 0.76810  0.39690  0.58250  Biso   1.000  H
  C80      1.0000 0.78610  0.37050  0.63970  Biso   1.000  C
  C81      1.0000 0.81910  0.36870  0.66980  Biso   1.000  C
  H38      1.0000 0.81600  0.35140  0.69480  Biso   1.000  H
  C82      1.0000 0.85660  0.39210  0.66330  Biso   1.000  C
  C83      1.0000 0.86110  0.41730  0.62670  Biso   1.000  C
  H39      1.0000 0.88670  0.43340  0.62230  Biso   1.000  H
  C84      1.0000 0.82420  0.44470  0.55950  Biso   1.000  C
  C85      1.0000 0.75120  0.34700  0.65520  Biso   1.000  C
  C86      1.0000 0.91800  0.35400  0.70910  Biso   1.000  C
  C87      1.0000 0.96120  0.36190  0.72650  Biso   1.000  C
  C88      1.0000 0.96130  0.37300  0.76960  Biso   1.000  C
  H40      1.0000 0.93490  0.37670  0.78440  Biso   1.000  H
  O41      1.0000 0.45810  0.14030  0.45720  Biso   1.000  O
  O42      1.0000 0.45690  0.21130  0.45620  Biso   1.000  O
  O43      1.0000 0.35850  0.28580  0.35810  Biso   1.000  O
  O44      1.0000 0.31780  0.24730  0.31510  Biso   1.000  O
  O45      1.0000 0.27670  0.10380  0.32180  Biso   1.000  O
  N9       1.0000 0.31010  0.10340  0.38540  Biso   1.000  N
  H41      1.0000 0.30610  0.09010  0.41010  Biso   1.000  H
  C89      1.0000 0.40340  0.17180  0.41910  Biso   1.000  C
  C90      1.0000 0.39690  0.20930  0.39570  Biso   1.000  C
  H42      1.0000 0.41750  0.23190  0.39690  Biso   1.000  H
  C91      1.0000 0.36030  0.21390  0.37050  Biso   1.000  C
  C92      1.0000 0.33020  0.18090  0.36870  Biso   1.000  C
  H43      1.0000 0.30520  0.18400  0.35140  Biso   1.000  H
  C93      1.0000 0.33670  0.14340  0.39210  Biso   1.000  C
  C94      1.0000 0.37330  0.13890  0.41730  Biso   1.000  C
  H44      1.0000 0.37770  0.11330  0.43340  Biso   1.000  H
  C95      1.0000 0.44050  0.17580  0.44470  Biso   1.000  C
  C96      1.0000 0.34480  0.24880  0.34700  Biso   1.000  C
  C97      1.0000 0.29090  0.08200  0.35400  Biso   1.000  C
  C98      1.0000 0.27350  0.03880  0.36190  Biso   1.000  C
  C99      1.0000 0.23040  0.03870  0.37300  Biso   1.000  C
  H45      1.0000 0.21560  0.06510  0.37670  Biso   1.000  H
  O46      1.0000 0.54190  0.14030  0.54280  Biso   1.000  O
  O47      1.0000 0.54310  0.21130  0.54380  Biso   1.000  O
  O48      1.0000 0.64150  0.28580  0.64190  Biso   1.000  O
  O49      1.0000 0.68220  0.24730  0.68490  Biso   1.000  O
  O50      1.0000 0.72330  0.10380  0.67820  Biso   1.000  O
  N10      1.0000 0.68990  0.10340  0.61460  Biso   1.000  N
  H46      1.0000 0.69390  0.09010  0.58990  Biso   1.000  H
  C100     1.0000 0.59660  0.17180  0.58090  Biso   1.000  C
  C101     1.0000 0.60310  0.20930  0.60430  Biso   1.000  C
  H47      1.0000 0.58250  0.23190  0.60310  Biso   1.000  H
  C102     1.0000 0.63970  0.21390  0.62950  Biso   1.000  C
  C103     1.0000 0.66980  0.18090  0.63130  Biso   1.000  C
  H48      1.0000 0.69480  0.18400  0.64860  Biso   1.000  H
  C104     1.0000 0.66330  0.14340  0.60790  Biso   1.000  C
  C105     1.0000 0.62670  0.13890  0.58270  Biso   1.000  C
  H49      1.0000 0.62230  0.11330  0.56660  Biso   1.000  H
  C106     1.0000 0.55950  0.17580  0.55530  Biso   1.000  C
  C107     1.0000 0.65520  0.24880  0.65300  Biso   1.000  C
  C108     1.0000 0.70910  0.08200  0.64600  Biso   1.000  C
  C109     1.0000 0.72650  0.03880  0.63810  Biso   1.000  C
  C110     1.0000 0.76960  0.03870  0.62700  Biso   1.000  C
  H50      1.0000 0.78440  0.06510  0.62330  Biso   1.000  H
  O51      1.0000 0.45810  0.85970  0.54280  Biso   1.000  O
  O52      1.0000 0.45690  0.78870  0.54380  Biso   1.000  O
  O53      1.0000 0.35850  0.71420  0.64190  Biso   1.000  O
  O54      1.0000 0.31780  0.75270  0.68490  Biso   1.000  O
  O55      1.0000 0.27670  0.89620  0.67820  Biso   1.000  O
  N11      1.0000 0.31010  0.89660  0.61460  Biso   1.000  N
  H51      1.0000 0.30610  0.90990  0.58990  Biso   1.000  H
  C111     1.0000 0.40340  0.82820  0.58090  Biso   1.000  C
  C112     1.0000 0.39690  0.79070  0.60430  Biso   1.000  C
  H52      1.0000 0.41750  0.76810  0.60310  Biso   1.000  H
  C113     1.0000 0.36030  0.78610  0.62950  Biso   1.000  C
  C114     1.0000 0.33020  0.81910  0.63130  Biso   1.000  C
  H53      1.0000 0.30520  0.81600  0.64860  Biso   1.000  H
  C115     1.0000 0.33670  0.85660  0.60790  Biso   1.000  C
  C116     1.0000 0.37330  0.86110  0.58270  Biso   1.000  C
  H54      1.0000 0.37770  0.88670  0.56660  Biso   1.000  H
  C117     1.0000 0.44050  0.82420  0.55530  Biso   1.000  C
  C118     1.0000 0.34480  0.75120  0.65300  Biso   1.000  C
  C119     1.0000 0.29090  0.91800  0.64600  Biso   1.000  C
  C120     1.0000 0.27350  0.96120  0.63810  Biso   1.000  C
  C121     1.0000 0.23040  0.96130  0.62700  Biso   1.000  C
  H55      1.0000 0.21560  0.93490  0.62330  Biso   1.000  H
  O56      1.0000 0.54190  0.85970  0.45720  Biso   1.000  O
  O57      1.0000 0.54310  0.78870  0.45620  Biso   1.000  O
  O58      1.0000 0.64150  0.71420  0.35810  Biso   1.000  O
  O59      1.0000 0.68220  0.75270  0.31510  Biso   1.000  O
  O60      1.0000 0.72330  0.89620  0.32180  Biso   1.000  O
  N12      1.0000 0.68990  0.89660  0.38540  Biso   1.000  N
  H56      1.0000 0.69390  0.90990  0.41010  Biso   1.000  H
  C122     1.0000 0.59660  0.82820  0.41910  Biso   1.000  C
  C123     1.0000 0.60310  0.79070  0.39570  Biso   1.000  C
  H57      1.0000 0.58250  0.76810  0.39690  Biso   1.000  H
  C124     1.0000 0.63970  0.78610  0.37050  Biso   1.000  C
  C125     1.0000 0.66980  0.81910  0.36870  Biso   1.000  C
  H58      1.0000 0.69480  0.81600  0.35140  Biso   1.000  H
  C126     1.0000 0.66330  0.85660  0.39210  Biso   1.000  C
  C127     1.0000 0.62670  0.86110  0.41730  Biso   1.000  C
  H59      1.0000 0.62230  0.88670  0.43340  Biso   1.000  H
  C128     1.0000 0.55950  0.82420  0.44470  Biso   1.000  C
  C129     1.0000 0.65520  0.75120  0.34700  Biso   1.000  C
  C130     1.0000 0.70910  0.91800  0.35400  Biso   1.000  C
  C131     1.0000 0.72650  0.96120  0.36190  Biso   1.000  C
  C132     1.0000 0.76960  0.96130  0.37300  Biso   1.000  C
  H60      1.0000 0.78440  0.93490  0.37670  Biso   1.000  H
  O61      1.0000 0.54280  0.54190  0.85970  Biso   1.000  O
  O62      1.0000 0.54380  0.54310  0.78870  Biso   1.000  O
  O63      1.0000 0.64190  0.64150  0.71420  Biso   1.000  O
  O64      1.0000 0.68490  0.68220  0.75270  Biso   1.000  O
  O65      1.0000 0.67820  0.72330  0.89620  Biso   1.000  O
  N13      1.0000 0.61460  0.68990  0.89660  Biso   1.000  N
  H61      1.0000 0.58990  0.69390  0.90990  Biso   1.000  H
  C133     1.0000 0.58090  0.59660  0.82820  Biso   1.000  C
  C134     1.0000 0.60430  0.60310  0.79070  Biso   1.000  C
  H62      1.0000 0.60310  0.58250  0.76810  Biso   1.000  H
  C135     1.0000 0.62950  0.63970  0.78610  Biso   1.000  C
  C136     1.0000 0.63130  0.66980  0.81910  Biso   1.000  C
  H63      1.0000 0.64860  0.69480  0.81600  Biso   1.000  H
  C137     1.0000 0.60790  0.66330  0.85660  Biso   1.000  C
  C138     1.0000 0.58270  0.62670  0.86110  Biso   1.000  C
  H64      1.0000 0.56660  0.62230  0.88670  Biso   1.000  H
  C139     1.0000 0.55530  0.55950  0.82420  Biso   1.000  C
  C140     1.0000 0.65300  0.65520  0.75120  Biso   1.000  C
  C141     1.0000 0.64600  0.70910  0.91800  Biso   1.000  C
  C142     1.0000 0.63810  0.72650  0.96120  Biso   1.000  C
  C143     1.0000 0.62700  0.76960  0.96130  Biso   1.000  C
  H65      1.0000 0.62330  0.78440  0.93490  Biso   1.000  H
  O66      1.0000 0.45720  0.45810  0.85970  Biso   1.000  O
  O67      1.0000 0.45620  0.45690  0.78870  Biso   1.000  O
  O68      1.0000 0.35810  0.35850  0.71420  Biso   1.000  O
  O69      1.0000 0.31510  0.31780  0.75270  Biso   1.000  O
  O70      1.0000 0.32180  0.27670  0.89620  Biso   1.000  O
  N14      1.0000 0.38540  0.31010  0.89660  Biso   1.000  N
  H66      1.0000 0.41010  0.30610  0.90990  Biso   1.000  H
  C144     1.0000 0.41910  0.40340  0.82820  Biso   1.000  C
  C145     1.0000 0.39570  0.39690  0.79070  Biso   1.000  C
  H67      1.0000 0.39690  0.41750  0.76810  Biso   1.000  H
  C146     1.0000 0.37050  0.36030  0.78610  Biso   1.000  C
  C147     1.0000 0.36870  0.33020  0.81910  Biso   1.000  C
  H68      1.0000 0.35140  0.30520  0.81600  Biso   1.000  H
  C148     1.0000 0.39210  0.33670  0.85660  Biso   1.000  C
  C149     1.0000 0.41730  0.37330  0.86110  Biso   1.000  C
  H69      1.0000 0.43340  0.37770  0.88670  Biso   1.000  H
  C150     1.0000 0.44470  0.44050  0.82420  Biso   1.000  C
  C151     1.0000 0.34700  0.34480  0.75120  Biso   1.000  C
  C152     1.0000 0.35400  0.29090  0.91800  Biso   1.000  C
  C153     1.0000 0.36190  0.27350  0.96120  Biso   1.000  C
  C154     1.0000 0.37300  0.23040  0.96130  Biso   1.000  C
  H70      1.0000 0.37670  0.21560  0.93490  Biso   1.000  H
  O71      1.0000 0.45720  0.54190  0.14030  Biso   1.000  O
  O72      1.0000 0.45620  0.54310  0.21130  Biso   1.000  O
  O73      1.0000 0.35810  0.64150  0.28580  Biso   1.000  O
  O74      1.0000 0.31510  0.68220  0.24730  Biso   1.000  O
  O75      1.0000 0.32180  0.72330  0.10380  Biso   1.000  O
  N15      1.0000 0.38540  0.68990  0.10340  Biso   1.000  N
  H71      1.0000 0.41010  0.69390  0.09010  Biso   1.000  H
  C155     1.0000 0.41910  0.59660  0.17180  Biso   1.000  C
  C156     1.0000 0.39570  0.60310  0.20930  Biso   1.000  C
  H72      1.0000 0.39690  0.58250  0.23190  Biso   1.000  H
  C157     1.0000 0.37050  0.63970  0.21390  Biso   1.000  C
  C158     1.0000 0.36870  0.66980  0.18090  Biso   1.000  C
  H73      1.0000 0.35140  0.69480  0.18400  Biso   1.000  H
  C159     1.0000 0.39210  0.66330  0.14340  Biso   1.000  C
  C160     1.0000 0.41730  0.62670  0.13890  Biso   1.000  C
  H74      1.0000 0.43340  0.62230  0.11330  Biso   1.000  H
  C161     1.0000 0.44470  0.55950  0.17580  Biso   1.000  C
  C162     1.0000 0.34700  0.65520  0.24880  Biso   1.000  C
  C163     1.0000 0.35400  0.70910  0.08200  Biso   1.000  C
  C164     1.0000 0.36190  0.72650  0.03880  Biso   1.000  C
  C165     1.0000 0.37300  0.76960  0.03870  Biso   1.000  C
  H75      1.0000 0.37670  0.78440  0.06510  Biso   1.000  H
  O76      1.0000 0.54280  0.45810  0.14030  Biso   1.000  O
  O77      1.0000 0.54380  0.45690  0.21130  Biso   1.000  O
  O78      1.0000 0.64190  0.35850  0.28580  Biso   1.000  O
  O79      1.0000 0.68490  0.31780  0.24730  Biso   1.000  O
  O80      1.0000 0.67820  0.27670  0.10380  Biso   1.000  O
  N16      1.0000 0.61460  0.31010  0.10340  Biso   1.000  N
  H76      1.0000 0.58990  0.30610  0.09010  Biso   1.000  H
  C166     1.0000 0.58090  0.40340  0.17180  Biso   1.000  C
  C167     1.0000 0.60430  0.39690  0.20930  Biso   1.000  C
  H77      1.0000 0.60310  0.41750  0.23190  Biso   1.000  H
  C168     1.0000 0.62950  0.36030  0.21390  Biso   1.000  C
  C169     1.0000 0.63130  0.33020  0.18090  Biso   1.000  C
  H78      1.0000 0.64860  0.30520  0.18400  Biso   1.000  H
  C170     1.0000 0.60790  0.33670  0.14340  Biso   1.000  C
  C171     1.0000 0.58270  0.37330  0.13890  Biso   1.000  C
  H79      1.0000 0.56660  0.37770  0.11330  Biso   1.000  H
  C172     1.0000 0.55530  0.44050  0.17580  Biso   1.000  C
  C173     1.0000 0.65300  0.34480  0.24880  Biso   1.000  C
  C174     1.0000 0.64600  0.29090  0.08200  Biso   1.000  C
  C175     1.0000 0.63810  0.27350  0.03880  Biso   1.000  C
  C176     1.0000 0.62700  0.23040  0.03870  Biso   1.000  C
  H80      1.0000 0.62330  0.21560  0.06510  Biso   1.000  H
  O81      1.0000 0.85970  0.54280  0.54190  Biso   1.000  O
  O82      1.0000 0.78870  0.54380  0.54310  Biso   1.000  O
  O83      1.0000 0.71420  0.64190  0.64150  Biso   1.000  O
  O84      1.0000 0.75270  0.68490  0.68220  Biso   1.000  O
  O85      1.0000 0.89620  0.67820  0.72330  Biso   1.000  O
  N17      1.0000 0.89660  0.61460  0.68990  Biso   1.000  N
  H81      1.0000 0.90990  0.58990  0.69390  Biso   1.000  H
  C177     1.0000 0.82820  0.58090  0.59660  Biso   1.000  C
  C178     1.0000 0.79070  0.60430  0.60310  Biso   1.000  C
  H82      1.0000 0.76810  0.60310  0.58250  Biso   1.000  H
  C179     1.0000 0.78610  0.62950  0.63970  Biso   1.000  C
  C180     1.0000 0.81910  0.63130  0.66980  Biso   1.000  C
  H83      1.0000 0.81600  0.64860  0.69480  Biso   1.000  H
  C181     1.0000 0.85660  0.60790  0.66330  Biso   1.000  C
  C182     1.0000 0.86110  0.58270  0.62670  Biso   1.000  C
  H84      1.0000 0.88670  0.56660  0.62230  Biso   1.000  H
  C183     1.0000 0.82420  0.55530  0.55950  Biso   1.000  C
  C184     1.0000 0.75120  0.65300  0.65520  Biso   1.000  C
  C185     1.0000 0.91800  0.64600  0.70910  Biso   1.000  C
  C186     1.0000 0.96120  0.63810  0.72650  Biso   1.000  C
  C187     1.0000 0.96130  0.62700  0.76960  Biso   1.000  C
  H85      1.0000 0.93490  0.62330  0.78440  Biso   1.000  H
  O86      1.0000 0.85970  0.45720  0.45810  Biso   1.000  O
  O87      1.0000 0.78870  0.45620  0.45690  Biso   1.000  O
  O88      1.0000 0.71420  0.35810  0.35850  Biso   1.000  O
  O89      1.0000 0.75270  0.31510  0.31780  Biso   1.000  O
  O90      1.0000 0.89620  0.32180  0.27670  Biso   1.000  O
  N18      1.0000 0.89660  0.38540  0.31010  Biso   1.000  N
  H86      1.0000 0.90990  0.41010  0.30610  Biso   1.000  H
  C188     1.0000 0.82820  0.41910  0.40340  Biso   1.000  C
  C189     1.0000 0.79070  0.39570  0.39690  Biso   1.000  C
  H87      1.0000 0.76810  0.39690  0.41750  Biso   1.000  H
  C190     1.0000 0.78610  0.37050  0.36030  Biso   1.000  C
  C191     1.0000 0.81910  0.36870  0.33020  Biso   1.000  C
  H88      1.0000 0.81600  0.35140  0.30520  Biso   1.000  H
  C192     1.0000 0.85660  0.39210  0.33670  Biso   1.000  C
  C193     1.0000 0.86110  0.41730  0.37330  Biso   1.000  C
  H89      1.0000 0.88670  0.43340  0.37770  Biso   1.000  H
  C194     1.0000 0.82420  0.44470  0.44050  Biso   1.000  C
  C195     1.0000 0.75120  0.34700  0.34480  Biso   1.000  C
  C196     1.0000 0.91800  0.35400  0.29090  Biso   1.000  C
  C197     1.0000 0.96120  0.36190  0.27350  Biso   1.000  C
  C198     1.0000 0.96130  0.37300  0.23040  Biso   1.000  C
  H90      1.0000 0.93490  0.37670  0.21560  Biso   1.000  H
  O91      1.0000 0.14030  0.45720  0.54190  Biso   1.000  O
  O92      1.0000 0.21130  0.45620  0.54310  Biso   1.000  O
  O93      1.0000 0.28580  0.35810  0.64150  Biso   1.000  O
  O94      1.0000 0.24730  0.31510  0.68220  Biso   1.000  O
  O95      1.0000 0.10380  0.32180  0.72330  Biso   1.000  O
  N19      1.0000 0.10340  0.38540  0.68990  Biso   1.000  N
  H91      1.0000 0.09010  0.41010  0.69390  Biso   1.000  H
  C199     1.0000 0.17180  0.41910  0.59660  Biso   1.000  C
  C200     1.0000 0.20930  0.39570  0.60310  Biso   1.000  C
  H92      1.0000 0.23190  0.39690  0.58250  Biso   1.000  H
  C201     1.0000 0.21390  0.37050  0.63970  Biso   1.000  C
  C202     1.0000 0.18090  0.36870  0.66980  Biso   1.000  C
  H93      1.0000 0.18400  0.35140  0.69480  Biso   1.000  H
  C203     1.0000 0.14340  0.39210  0.66330  Biso   1.000  C
  C204     1.0000 0.13890  0.41730  0.62670  Biso   1.000  C
  H94      1.0000 0.11330  0.43340  0.62230  Biso   1.000  H
  C205     1.0000 0.17580  0.44470  0.55950  Biso   1.000  C
  C206     1.0000 0.24880  0.34700  0.65520  Biso   1.000  C
  C207     1.0000 0.08200  0.35400  0.70910  Biso   1.000  C
  C208     1.0000 0.03880  0.36190  0.72650  Biso   1.000  C
  C209     1.0000 0.03870  0.37300  0.76960  Biso   1.000  C
  H95      1.0000 0.06510  0.37670  0.78440  Biso   1.000  H
  O96      1.0000 0.14030  0.54280  0.45810  Biso   1.000  O
  O97      1.0000 0.21130  0.54380  0.45690  Biso   1.000  O
  O98      1.0000 0.28580  0.64190  0.35850  Biso   1.000  O
  O99      1.0000 0.24730  0.68490  0.31780  Biso   1.000  O
  O100     1.0000 0.10380  0.67820  0.27670  Biso   1.000  O
  N20      1.0000 0.10340  0.61460  0.31010  Biso   1.000  N
  H96      1.0000 0.09010  0.58990  0.30610  Biso   1.000  H
  C210     1.0000 0.17180  0.58090  0.40340  Biso   1.000  C
  C211     1.0000 0.20930  0.60430  0.39690  Biso   1.000  C
  H97      1.0000 0.23190  0.60310  0.41750  Biso   1.000  H
  C212     1.0000 0.21390  0.62950  0.36030  Biso   1.000  C
  C213     1.0000 0.18090  0.63130  0.33020  Biso   1.000  C
  H98      1.0000 0.18400  0.64860  0.30520  Biso   1.000  H
  C214     1.0000 0.14340  0.60790  0.33670  Biso   1.000  C
  C215     1.0000 0.13890  0.58270  0.37330  Biso   1.000  C
  H99      1.0000 0.11330  0.56660  0.37770  Biso   1.000  H
  C216     1.0000 0.17580  0.55530  0.44050  Biso   1.000  C
  C217     1.0000 0.24880  0.65300  0.34480  Biso   1.000  C
  C218     1.0000 0.08200  0.64600  0.29090  Biso   1.000  C
  C219     1.0000 0.03880  0.63810  0.27350  Biso   1.000  C
  C220     1.0000 0.03870  0.62700  0.23040  Biso   1.000  C
  H100     1.0000 0.06510  0.62330  0.21560  Biso   1.000  H
  O101     1.0000 0.54190  0.85970  0.54280  Biso   1.000  O
  O102     1.0000 0.54310  0.78870  0.54380  Biso   1.000  O
  O103     1.0000 0.64150  0.71420  0.64190  Biso   1.000  O
  O104     1.0000 0.68220  0.75270  0.68490  Biso   1.000  O
  O105     1.0000 0.72330  0.89620  0.67820  Biso   1.000  O
  N21      1.0000 0.68990  0.89660  0.61460  Biso   1.000  N
  H101     1.0000 0.69390  0.90990  0.58990  Biso   1.000  H
  C221     1.0000 0.59660  0.82820  0.58090  Biso   1.000  C
  C222     1.0000 0.60310  0.79070  0.60430  Biso   1.000  C
  H102     1.0000 0.58250  0.76810  0.60310  Biso   1.000  H
  C223     1.0000 0.63970  0.78610  0.62950  Biso   1.000  C
  C224     1.0000 0.66980  0.81910  0.63130  Biso   1.000  C
  H103     1.0000 0.69480  0.81600  0.64860  Biso   1.000  H
  C225     1.0000 0.66330  0.85660  0.60790  Biso   1.000  C
  C226     1.0000 0.62670  0.86110  0.58270  Biso   1.000  C
  H104     1.0000 0.62230  0.88670  0.56660  Biso   1.000  H
  C227     1.0000 0.55950  0.82420  0.55530  Biso   1.000  C
  C228     1.0000 0.65520  0.75120  0.65300  Biso   1.000  C
  C229     1.0000 0.70910  0.91800  0.64600  Biso   1.000  C
  C230     1.0000 0.72650  0.96120  0.63810  Biso   1.000  C
  C231     1.0000 0.76960  0.96130  0.62700  Biso   1.000  C
  H105     1.0000 0.78440  0.93490  0.62330  Biso   1.000  H
  O106     1.0000 0.45810  0.85970  0.45720  Biso   1.000  O
  O107     1.0000 0.45690  0.78870  0.45620  Biso   1.000  O
  O108     1.0000 0.35850  0.71420  0.35810  Biso   1.000  O
  O109     1.0000 0.31780  0.75270  0.31510  Biso   1.000  O
  O110     1.0000 0.27670  0.89620  0.32180  Biso   1.000  O
  N22      1.0000 0.31010  0.89660  0.38540  Biso   1.000  N
  H106     1.0000 0.30610  0.90990  0.41010  Biso   1.000  H
  C232     1.0000 0.40340  0.82820  0.41910  Biso   1.000  C
  C233     1.0000 0.39690  0.79070  0.39570  Biso   1.000  C
  H107     1.0000 0.41750  0.76810  0.39690  Biso   1.000  H
  C234     1.0000 0.36030  0.78610  0.37050  Biso   1.000  C
  C235     1.0000 0.33020  0.81910  0.36870  Biso   1.000  C
  H108     1.0000 0.30520  0.81600  0.35140  Biso   1.000  H
  C236     1.0000 0.33670  0.85660  0.39210  Biso   1.000  C
  C237     1.0000 0.37330  0.86110  0.41730  Biso   1.000  C
  H109     1.0000 0.37770  0.88670  0.43340  Biso   1.000  H
  C238     1.0000 0.44050  0.82420  0.44470  Biso   1.000  C
  C239     1.0000 0.34480  0.75120  0.34700  Biso   1.000  C
  C240     1.0000 0.29090  0.91800  0.35400  Biso   1.000  C
  C241     1.0000 0.27350  0.96120  0.36190  Biso   1.000  C
  C242     1.0000 0.23040  0.96130  0.37300  Biso   1.000  C
  H110     1.0000 0.21560  0.93490  0.37670  Biso   1.000  H
  O111     1.0000 0.54190  0.14030  0.45720  Biso   1.000  O
  O112     1.0000 0.54310  0.21130  0.45620  Biso   1.000  O
  O113     1.0000 0.64150  0.28580  0.35810  Biso   1.000  O
  O114     1.0000 0.68220  0.24730  0.31510  Biso   1.000  O
  O115     1.0000 0.72330  0.10380  0.32180  Biso   1.000  O
  N23      1.0000 0.68990  0.10340  0.38540  Biso   1.000  N
  H111     1.0000 0.69390  0.09010  0.41010  Biso   1.000  H
  C243     1.0000 0.59660  0.17180  0.41910  Biso   1.000  C
  C244     1.0000 0.60310  0.20930  0.39570  Biso   1.000  C
  H112     1.0000 0.58250  0.23190  0.39690  Biso   1.000  H
  C245     1.0000 0.63970  0.21390  0.37050  Biso   1.000  C
  C246     1.0000 0.66980  0.18090  0.36870  Biso   1.000  C
  H113     1.0000 0.69480  0.18400  0.35140  Biso   1.000  H
  C247     1.0000 0.66330  0.14340  0.39210  Biso   1.000  C
  C248     1.0000 0.62670  0.13890  0.41730  Biso   1.000  C
  H114     1.0000 0.62230  0.11330  0.43340  Biso   1.000  H
  C249     1.0000 0.55950  0.17580  0.44470  Biso   1.000  C
  C250     1.0000 0.65520  0.24880  0.34700  Biso   1.000  C
  C251     1.0000 0.70910  0.08200  0.35400  Biso   1.000  C
  C252     1.0000 0.72650  0.03880  0.36190  Biso   1.000  C
  C253     1.0000 0.76960  0.03870  0.37300  Biso   1.000  C
  H115     1.0000 0.78440  0.06510  0.37670  Biso   1.000  H
  O116     1.0000 0.45810  0.14030  0.54280  Biso   1.000  O
  O117     1.0000 0.45690  0.21130  0.54380  Biso   1.000  O
  O118     1.0000 0.35850  0.28580  0.64190  Biso   1.000  O
  O119     1.0000 0.31780  0.24730  0.68490  Biso   1.000  O
  O120     1.0000 0.27670  0.10380  0.67820  Biso   1.000  O
  N24      1.0000 0.31010  0.10340  0.61460  Biso   1.000  N
  H116     1.0000 0.30610  0.09010  0.58990  Biso   1.000  H
  C254     1.0000 0.40340  0.17180  0.58090  Biso   1.000  C
  C255     1.0000 0.39690  0.20930  0.60430  Biso   1.000  C
  H117     1.0000 0.41750  0.23190  0.60310  Biso   1.000  H
  C256     1.0000 0.36030  0.21390  0.62950  Biso   1.000  C
  C257     1.0000 0.33020  0.18090  0.63130  Biso   1.000  C
  H118     1.0000 0.30520  0.18400  0.64860  Biso   1.000  H
  C258     1.0000 0.33670  0.14340  0.60790  Biso   1.000  C
  C259     1.0000 0.37330  0.13890  0.58270  Biso   1.000  C
  H119     1.0000 0.37770  0.11330  0.56660  Biso   1.000  H
  C260     1.0000 0.44050  0.17580  0.55530  Biso   1.000  C
  C261     1.0000 0.34480  0.24880  0.65300  Biso   1.000  C
  C262     1.0000 0.29090  0.08200  0.64600  Biso   1.000  C
  C263     1.0000 0.27350  0.03880  0.63810  Biso   1.000  C
  C264     1.0000 0.23040  0.03870  0.62700  Biso   1.000  C
  H120     1.0000 0.21560  0.06510  0.62330  Biso   1.000  H
  Zn1      1.0000 0.50000  0.50000  0.12743  Biso   1.000  Zn
  Zn2      1.0000 0.50000  0.50000  0.22334  Biso   1.000  Zn
  Zn3      1.0000 0.50000  0.50000  0.87257  Biso   1.000  Zn
  Zn4      1.0000 0.50000  0.50000  0.77666  Biso   1.000  Zn
  Zn5      1.0000 0.12743  0.50000  0.50000  Biso   1.000  Zn
  Zn6      1.0000 0.22334  0.50000  0.50000  Biso   1.000  Zn
  Zn7      1.0000 0.87257  0.50000  0.50000  Biso   1.000  Zn
  Zn8      1.0000 0.77666  0.50000  0.50000  Biso   1.000  Zn
  Zn9      1.0000 0.50000  0.12743  0.50000  Biso   1.000  Zn
  Zn10     1.0000 0.50000  0.22334  0.50000  Biso   1.000  Zn
  Zn11     1.0000 0.50000  0.87257  0.50000  Biso   1.000  Zn
  Zn12     1.0000 0.50000  0.77666  0.50000  Biso   1.000  Zn
  Zn13     1.0000 0.34329  0.34329  0.34329  Biso   1.000  Zn
  Zn14     1.0000 0.27804  0.27804  0.27804  Biso   1.000  Zn
  Zn15     1.0000 0.65671  0.65671  0.34329  Biso   1.000  Zn
  Zn16     1.0000 0.72196  0.72196  0.27804  Biso   1.000  Zn
  Zn17     1.0000 0.65671  0.34329  0.65671  Biso   1.000  Zn
  Zn18     1.0000 0.72196  0.27804  0.72196  Biso   1.000  Zn
  Zn19     1.0000 0.34329  0.65671  0.65671  Biso   1.000  Zn
  Zn20     1.0000 0.27804  0.72196  0.72196  Biso   1.000  Zn
  Zn21     1.0000 0.65671  0.65671  0.65671  Biso   1.000  Zn
  Zn22     1.0000 0.72196  0.72196  0.72196  Biso   1.000  Zn
  Zn23     1.0000 0.34329  0.34329  0.65671  Biso   1.000  Zn
  Zn24     1.0000 0.27804  0.27804  0.72196  Biso   1.000  Zn
  Zn25     1.0000 0.34329  0.65671  0.34329  Biso   1.000  Zn
  Zn26     1.0000 0.27804  0.72196  0.27804  Biso   1.000  Zn
  Zn27     1.0000 0.65671  0.34329  0.34329  Biso   1.000  Zn
  Zn28     1.0000 0.72196  0.27804  0.27804  Biso   1.000  Zn
  C265     1.0000 0.35680  0.29550  0.00000  Biso   1.000  C
  H121     1.0000 0.34990  0.32530  0.00000  Biso   1.000  H
  C266     1.0000 0.37880  0.20870  0.00000  Biso   1.000  C
  H122     1.0000 0.38670  0.17910  0.00000  Biso   1.000  H
  C267     1.0000 0.64320  0.70450  0.00000  Biso   1.000  C
  H123     1.0000 0.65010  0.67470  0.00000  Biso   1.000  H
  C268     1.0000 0.62120  0.79130  0.00000  Biso   1.000  C
  H124     1.0000 0.61330  0.82090  0.00000  Biso   1.000  H
  C269     1.0000 0.64320  0.29550  0.00000  Biso   1.000  C
  H125     1.0000 0.65010  0.32530  0.00000  Biso   1.000  H
  C270     1.0000 0.62120  0.20870  0.00000  Biso   1.000  C
  H126     1.0000 0.61330  0.17910  0.00000  Biso   1.000  H
  C271     1.0000 0.35680  0.70450  0.00000  Biso   1.000  C
  H127     1.0000 0.34990  0.67470  0.00000  Biso   1.000  H
  C272     1.0000 0.37880  0.79130  0.00000  Biso   1.000  C
  H128     1.0000 0.38670  0.82090  0.00000  Biso   1.000  H
  C273     1.0000 0.00000  0.35680  0.29550  Biso   1.000  C
  H129     1.0000 0.00000  0.34990  0.32530  Biso   1.000  H
  C274     1.0000 0.00000  0.37880  0.20870  Biso   1.000  C
  H130     1.0000 0.00000  0.38670  0.17910  Biso   1.000  H
  C275     1.0000 0.00000  0.64320  0.70450  Biso   1.000  C
  H131     1.0000 0.00000  0.65010  0.67470  Biso   1.000  H
  C276     1.0000 0.00000  0.62120  0.79130  Biso   1.000  C
  H132     1.0000 0.00000  0.61330  0.82090  Biso   1.000  H
  C277     1.0000 0.00000  0.64320  0.29550  Biso   1.000  C
  H133     1.0000 0.00000  0.65010  0.32530  Biso   1.000  H
  C278     1.0000 0.00000  0.62120  0.20870  Biso   1.000  C
  H134     1.0000 0.00000  0.61330  0.17910  Biso   1.000  H
  C279     1.0000 0.00000  0.35680  0.70450  Biso   1.000  C
  H135     1.0000 0.00000  0.34990  0.67470  Biso   1.000  H
  C280     1.0000 0.00000  0.37880  0.79130  Biso   1.000  C
  H136     1.0000 0.00000  0.38670  0.82090  Biso   1.000  H
  C281     1.0000 0.29550  0.00000  0.35680  Biso   1.000  C
  H137     1.0000 0.32530  0.00000  0.34990  Biso   1.000  H
  C282     1.0000 0.20870  0.00000  0.37880  Biso   1.000  C
  H138     1.0000 0.17910  0.00000  0.38670  Biso   1.000  H
  C283     1.0000 0.70450  0.00000  0.64320  Biso   1.000  C
  H139     1.0000 0.67470  0.00000  0.65010  Biso   1.000  H
  C284     1.0000 0.79130  0.00000  0.62120  Biso   1.000  C
  H140     1.0000 0.82090  0.00000  0.61330  Biso   1.000  H
  C285     1.0000 0.29550  0.00000  0.64320  Biso   1.000  C
  H141     1.0000 0.32530  0.00000  0.65010  Biso   1.000  H
  C286     1.0000 0.20870  0.00000  0.62120  Biso   1.000  C
  H142     1.0000 0.17910  0.00000  0.61330  Biso   1.000  H
  C287     1.0000 0.70450  0.00000  0.35680  Biso   1.000  C
  H143     1.0000 0.67470  0.00000  0.34990  Biso   1.000  H
  C288     1.0000 0.79130  0.00000  0.37880  Biso   1.000  C
  H144     1.0000 0.82090  0.00000  0.38670  Biso   1.000  H
