data_YOFGOR_clean
_audit_creation_date              2015-10-16
_audit_creation_method            'Materials Studio'
_symmetry_space_group_name_H-M    'P1'
_symmetry_Int_Tables_number       1
_symmetry_cell_setting            triclinic
loop_
_symmetry_equiv_pos_as_xyz
  x,y,z
_cell_length_a                    8.9473
_cell_length_b                    12.3223
_cell_length_c                    20.0651
_cell_angle_alpha                 85.3571
_cell_angle_beta                  77.1174
_cell_angle_gamma                 68.7121
loop_
_atom_site_label
_atom_site_type_symbol
_atom_site_fract_x
_atom_site_fract_y
_atom_site_fract_z
_atom_site_U_iso_or_equiv
_atom_site_adp_type
_atom_site_occupancy
Mn1    Mn    0.14442   0.46984   0.91140   0.01267  Uiso   1.00
Mn2    Mn    0.36426   0.03016   0.41140   0.01267  Uiso   1.00
Mn3    Mn    0.61539   0.16070   0.47330   0.01267  Uiso   1.00
Mn4    Mn    0.24939   0.83930   0.52670   0.01267  Uiso   1.00
Mn5    Mn    0.83869   0.66070   0.02670   0.01267  Uiso   1.00
Mn6    Mn    0.80582   0.96984   0.58860   0.01267  Uiso   1.00
Mn7    Mn    0.52609   0.33930   0.97330   0.01267  Uiso   1.00
Mn8    Mn    0.52566   0.53016   0.08860   0.01267  Uiso   1.00
H1     H     0.72450   0.42500   0.21740   0.01267  Uiso   1.00
H2     H     0.71050   0.88780   0.16980   0.01267  Uiso   1.00
H3     H     0.15480   0.83080   0.02580   0.01267  Uiso   1.00
H4     H     0.66510   0.24600   0.73520   0.01267  Uiso   1.00
H5     H     0.15030   0.74600   0.76480   0.01267  Uiso   1.00
H6     H     0.81990   0.96380   0.91100   0.01267  Uiso   1.00
H7     H     0.70400   0.50000   0.50000   0.01267  Uiso   1.00
H8     H     0.99900   0.09400   0.41220   0.01267  Uiso   1.00
H9     H     0.50520   0.90600   0.58780   0.01267  Uiso   1.00
H10    H     0.63030   0.38780   0.33020   0.01267  Uiso   1.00
H11    H     0.36690   0.57500   0.78260   0.01267  Uiso   1.00
H12    H     0.64630   0.75400   0.26480   0.01267  Uiso   1.00
H13    H     0.53370   0.53620   0.41100   0.01267  Uiso   1.00
H14    H     0.84300   0.40600   0.91220   0.01267  Uiso   1.00
H15    H     0.48090   0.46380   0.58900   0.01267  Uiso   1.00
H16    H     0.95400  -0.00000  -0.00000   0.01267  Uiso   1.00
H17    H     0.73560   0.66920   0.52580   0.01267  Uiso   1.00
H18    H     0.16120   0.59400   0.08780   0.01267  Uiso   1.00
H19    H     0.69190   0.92500   0.28260   0.01267  Uiso   1.00
H20    H     0.01140   0.16920   0.97420   0.01267  Uiso   1.00
H21    H     0.69470   0.03620   0.08900   0.01267  Uiso   1.00
H22    H     0.46400   0.00000  -0.00000   0.01267  Uiso   1.00
H23    H     0.21400   0.50000   0.50000   0.01267  Uiso   1.00
H24    H     0.89950   0.07500   0.71740   0.01267  Uiso   1.00
H25    H     0.34830   0.61220   0.66980   0.01267  Uiso   1.00
H26    H     0.76810   0.11220   0.83020   0.01267  Uiso   1.00
H27    H     0.93060   0.33080   0.47420   0.01267  Uiso   1.00
H28    H     0.66110   0.25400   0.23520   0.01267  Uiso   1.00
C1     C     0.52748   0.38450   0.84414   0.01267  Uiso   1.00
C2     C     0.17830   0.89858   0.01562   0.01267  Uiso   1.00
C3     C     0.66915   0.18092   0.22218   0.01267  Uiso   1.00
C4     C     0.60007   0.31908   0.72218   0.01267  Uiso   1.00
C5     C     0.00091   0.71300   0.53298   0.01267  Uiso   1.00
C6     C     0.00518   0.03904   0.44700   0.01267  Uiso   1.00
C7     C     0.69552   0.59362   0.22974   0.01267  Uiso   1.00
C8     C     0.20218   0.53904   0.05300   0.01267  Uiso   1.00
C9     C     0.11810   0.50000   0.50000   0.01267  Uiso   1.00
C10    C     0.84307   0.03832   0.81714   0.01267  Uiso   1.00
C11    C     0.68900   0.98378   0.25022   0.01267  Uiso   1.00
C12    C     0.87486   0.94972   0.86556   0.01267  Uiso   1.00
C13    C     0.01231   0.74162   0.89696   0.01267  Uiso   1.00
C14    C     0.65927   0.24162   0.60304   0.01267  Uiso   1.00
C15    C     0.49042   0.44972   0.63444   0.01267  Uiso   1.00
C16    C     0.57458   0.55028   0.36556   0.01267  Uiso   1.00
C17    C     0.09994   0.39828   0.48404   0.01267  Uiso   1.00
C18    C     0.64133   0.68092   0.27782   0.01267  Uiso   1.00
C19    C     0.03914   0.90638   0.72974   0.01267  Uiso   1.00
C20    C     0.36810   0.00000   0.00000   0.01267  Uiso   1.00
C21    C     0.75612   0.61550   0.15586   0.01267  Uiso   1.00
C22    C     0.24689   0.28700   0.46702   0.01267  Uiso   1.00
C23    C     0.07225   0.81908   0.77782   0.01267  Uiso   1.00
C24    C     0.42278   0.51622   0.75022   0.01267  Uiso   1.00
C25    C     0.94392   0.39858   0.48438   0.01267  Uiso   1.00
C26    C     0.51888   0.40638   0.77026   0.01267  Uiso   1.00
C27    C     0.92300   0.01622   0.74978   0.01267  Uiso   1.00
C28    C     0.66198   0.11550   0.34414   0.01267  Uiso   1.00
C29    C     0.57917   0.66032   0.34554   0.01267  Uiso   1.00
C30    C     0.68922   0.48378   0.24978   0.01267  Uiso   1.00
C31    C     0.65089   0.25838   0.10304   0.01267  Uiso   1.00
C32    C     0.50393   0.75838   0.39696   0.01267  Uiso   1.00
C33    C     0.09250   0.10142   0.98438   0.01267  Uiso   1.00
C34    C     0.69853   0.96168   0.18286   0.01267  Uiso   1.00
C35    C     0.58503   0.33968   0.65446   0.01267  Uiso   1.00
C36    C     0.67471   0.16032   0.15446   0.01267  Uiso   1.00
C37    C     0.05850   0.00000  -0.00000   0.01267  Uiso   1.00
C38    C     0.79422   0.46096   0.94700   0.01267  Uiso   1.00
C39    C     0.12162   0.88450   0.65586   0.01267  Uiso   1.00
C40    C     0.49122   0.96096   0.55300   0.01267  Uiso   1.00
C41    C     0.67526   0.09362   0.27026   0.01267  Uiso   1.00
C42    C     0.69014   0.05028   0.13444   0.01267  Uiso   1.00
C43    C     0.33398   0.89828   0.01596   0.01267  Uiso   1.00
C44    C     0.98949   0.83968   0.84554   0.01267  Uiso   1.00
C45    C     0.80850   0.50000   0.50000   0.01267  Uiso   1.00
C46    C     0.82688   0.60142   0.51562   0.01267  Uiso   1.00
C47    C     0.98226   0.60172   0.51596   0.01267  Uiso   1.00
C48    C     0.46391   0.78700   0.03298   0.01267  Uiso   1.00
C49    C     0.24822   0.10172   0.98404   0.01267  Uiso   1.00
C50    C     0.63139   0.46168   0.31714   0.01267  Uiso   1.00
C51    C     0.41021   0.53832   0.68286   0.01267  Uiso   1.00
C52    C     0.28389   0.21300   0.96702   0.01267  Uiso   1.00
O1     O     0.65766   0.23380   0.04248   0.01267  Uiso   1.00
O2     O     0.93394   0.76620   0.95752   0.01267  Uiso   1.00
O3     O     0.87270   0.03608   0.48172   0.01267  Uiso   1.00
O4     O     0.34943   0.47586   0.04568   0.01267  Uiso   1.00
O5     O     0.10442   0.53608   0.01828   0.01267  Uiso   1.00
O6     O     0.14330   0.71316   0.52404   0.01267  Uiso   1.00
O7     O     0.49415   0.85748   0.37502   0.01267  Uiso   1.00
O8     O     0.26452   0.81342   0.63874   0.01267  Uiso   1.00
O9     O     0.40286   0.44044   0.88904   0.01267  Uiso   1.00
O10    O     0.71668   0.18658   0.36126   0.01267  Uiso   1.00
O11    O     0.41734   0.21316   0.97596   0.01267  Uiso   1.00
O12    O     0.87120   0.79634   0.55546   0.01267  Uiso   1.00
O13    O     0.17666   0.29634   0.94454   0.01267  Uiso   1.00
O14    O     0.14511   0.97586   0.45432   0.01267  Uiso   1.00
O15    O     0.45014   0.73380   0.45752   0.01267  Uiso   1.00
O16    O     0.65878   0.46392   0.98172   0.01267  Uiso   1.00
O17    O     0.72665   0.14252   0.62498   0.01267  Uiso   1.00
O18    O     0.82794   0.68658   0.13874   0.01267  Uiso   1.00
O19    O     0.38050   0.28684   0.47596   0.01267  Uiso   1.00
O20    O     0.87097   0.52414   0.95432   0.01267  Uiso   1.00
O21    O     0.10163   0.64252   0.87502   0.01267  Uiso   1.00
O22    O     0.59330   0.05956   0.38904   0.01267  Uiso   1.00
O23    O     0.41754   0.70366   0.05546   0.01267  Uiso   1.00
O24    O     0.73234   0.55956   0.11096   0.01267  Uiso   1.00
O25    O     0.04190   0.94044   0.61096   0.01267  Uiso   1.00
O26    O     0.64146   0.26620   0.54248   0.01267  Uiso   1.00
O27    O     0.65326   0.31342   0.86126   0.01267  Uiso   1.00
O28    O     0.61917   0.35748   0.12498   0.01267  Uiso   1.00
O29    O     0.60646   0.78684   0.02404   0.01267  Uiso   1.00
O30    O     0.39050   0.96392   0.51828   0.01267  Uiso   1.00
O31    O     0.22300   0.20366   0.44454   0.01267  Uiso   1.00
O32    O     0.57529   0.02414   0.54568   0.01267  Uiso   1.00
