data_image0
_cell_length_a       27.063
_cell_length_b       27.063
_cell_length_c       16.107
_cell_angle_alpha    90
_cell_angle_beta     90
_cell_angle_gamma    120

_symmetry_space_group_name_H-M    "P 1"
_symmetry_int_tables_number       1

loop_
  _symmetry_equiv_pos_as_xyz
  'x, y, z'

loop_
  _atom_site_label
  _atom_site_occupancy
  _atom_site_fract_x
  _atom_site_fract_y
  _atom_site_fract_z
  _atom_site_thermal_displace_type
  _atom_site_B_iso_or_equiv
  _atom_site_type_symbol
  O1       1.0000 0.19512  0.28390  0.25573  Biso   1.000  O
  O2       1.0000 0.24271  0.37919  0.24220  Biso   1.000  O
  C1       1.0000 0.28670  0.32749  0.19640  Biso   1.000  C
  C2       1.0000 0.28620  0.27624  0.19540  Biso   1.000  C
  H1       1.0000 0.25340  0.24260  0.21440  Biso   1.000  H
  C3       1.0000 0.23715  0.33070  0.23360  Biso   1.000  C
  C4       1.0000 0.31263  0.18280  0.09760  Biso   1.000  C
  C5       1.0000 0.29101  0.19710  0.02470  Biso   1.000  C
  H2       1.0000 0.29060  0.23200  0.02330  Biso   1.000  H
  C6       1.0000 0.27150  0.16180  0.95860  Biso   1.000  C
  H3       1.0000 0.25760  0.17220  0.91150  Biso   1.000  H
  O3       1.0000 0.86179  0.61723  0.58906  Biso   1.000  O
  O4       1.0000 0.90938  0.71252  0.57553  Biso   1.000  O
  C7       1.0000 0.95337  0.66082  0.52973  Biso   1.000  C
  C8       1.0000 0.95287  0.60957  0.52873  Biso   1.000  C
  H4       1.0000 0.92007  0.57593  0.54773  Biso   1.000  H
  C9       1.0000 0.90382  0.66403  0.56693  Biso   1.000  C
  C10      1.0000 0.97930  0.51613  0.43093  Biso   1.000  C
  C11      1.0000 0.95768  0.53043  0.35803  Biso   1.000  C
  H5       1.0000 0.95727  0.56533  0.35663  Biso   1.000  H
  C12      1.0000 0.93817  0.49513  0.29193  Biso   1.000  C
  H6       1.0000 0.92427  0.50553  0.24483  Biso   1.000  H
  O5       1.0000 0.52845  0.95057  0.92240  Biso   1.000  O
  O6       1.0000 0.57604  0.04586  0.90887  Biso   1.000  O
  C13      1.0000 0.62003  0.99416  0.86307  Biso   1.000  C
  C14      1.0000 0.61953  0.94291  0.86207  Biso   1.000  C
  H7       1.0000 0.58673  0.90927  0.88107  Biso   1.000  H
  C15      1.0000 0.57048  0.99737  0.90027  Biso   1.000  C
  C16      1.0000 0.64596  0.84947  0.76427  Biso   1.000  C
  C17      1.0000 0.62434  0.86377  0.69137  Biso   1.000  C
  H8       1.0000 0.62393  0.89867  0.68997  Biso   1.000  H
  C18      1.0000 0.60483  0.82847  0.62527  Biso   1.000  C
  H9       1.0000 0.59093  0.83887  0.57817  Biso   1.000  H
  O7       1.0000 0.71610  0.91122  0.25573  Biso   1.000  O
  O8       1.0000 0.62081  0.86352  0.24220  Biso   1.000  O
  C19      1.0000 0.67251  0.95921  0.19640  Biso   1.000  C
  C20      1.0000 0.72376  0.00996  0.19540  Biso   1.000  C
  H10      1.0000 0.75740  0.01080  0.21440  Biso   1.000  H
  C21      1.0000 0.66930  0.90645  0.23360  Biso   1.000  C
  C22      1.0000 0.81720  0.12983  0.09760  Biso   1.000  C
  C23      1.0000 0.80290  0.09391  0.02470  Biso   1.000  C
  H11      1.0000 0.76800  0.05860  0.02330  Biso   1.000  H
  C24      1.0000 0.83820  0.10970  0.95860  Biso   1.000  C
  H12      1.0000 0.82780  0.08540  0.91150  Biso   1.000  H
  O9       1.0000 0.38277  0.24455  0.58906  Biso   1.000  O
  O10      1.0000 0.28748  0.19685  0.57553  Biso   1.000  O
  C25      1.0000 0.33918  0.29254  0.52973  Biso   1.000  C
  C26      1.0000 0.39043  0.34329  0.52873  Biso   1.000  C
  H13      1.0000 0.42407  0.34413  0.54773  Biso   1.000  H
  C27      1.0000 0.33597  0.23978  0.56693  Biso   1.000  C
  C28      1.0000 0.48387  0.46316  0.43093  Biso   1.000  C
  C29      1.0000 0.46957  0.42724  0.35803  Biso   1.000  C
  H14      1.0000 0.43467  0.39193  0.35663  Biso   1.000  H
  C30      1.0000 0.50487  0.44303  0.29193  Biso   1.000  C
  H15      1.0000 0.49447  0.41873  0.24483  Biso   1.000  H
  O11      1.0000 0.04943  0.57789  0.92240  Biso   1.000  O
  O12      1.0000 0.95414  0.53019  0.90887  Biso   1.000  O
  C31      1.0000 0.00584  0.62588  0.86307  Biso   1.000  C
  C32      1.0000 0.05709  0.67663  0.86207  Biso   1.000  C
  H16      1.0000 0.09073  0.67747  0.88107  Biso   1.000  H
  C33      1.0000 0.00263  0.57312  0.90027  Biso   1.000  C
  C34      1.0000 0.15053  0.79650  0.76427  Biso   1.000  C
  C35      1.0000 0.13623  0.76058  0.69137  Biso   1.000  C
  H17      1.0000 0.10133  0.72527  0.68997  Biso   1.000  H
  C36      1.0000 0.17153  0.77637  0.62527  Biso   1.000  C
  H18      1.0000 0.16113  0.75207  0.57817  Biso   1.000  H
  O13      1.0000 0.08878  0.80488  0.25573  Biso   1.000  O
  O14      1.0000 0.13648  0.75729  0.24220  Biso   1.000  O
  C37      1.0000 0.04079  0.71330  0.19640  Biso   1.000  C
  C38      1.0000 0.99004  0.71380  0.19540  Biso   1.000  C
  H19      1.0000 0.98920  0.74660  0.21440  Biso   1.000  H
  C39      1.0000 0.09355  0.76285  0.23360  Biso   1.000  C
  C40      1.0000 0.87017  0.68737  0.09760  Biso   1.000  C
  C41      1.0000 0.90609  0.70899  0.02470  Biso   1.000  C
  H20      1.0000 0.94140  0.70940  0.02330  Biso   1.000  H
  C42      1.0000 0.89030  0.72850  0.95860  Biso   1.000  C
  H21      1.0000 0.91460  0.74240  0.91150  Biso   1.000  H
  O15      1.0000 0.75545  0.13821  0.58906  Biso   1.000  O
  O16      1.0000 0.80315  0.09062  0.57553  Biso   1.000  O
  C43      1.0000 0.70746  0.04663  0.52973  Biso   1.000  C
  C44      1.0000 0.65671  0.04713  0.52873  Biso   1.000  C
  H22      1.0000 0.65587  0.07993  0.54773  Biso   1.000  H
  C45      1.0000 0.76022  0.09618  0.56693  Biso   1.000  C
  C46      1.0000 0.53684  0.02070  0.43093  Biso   1.000  C
  C47      1.0000 0.57276  0.04232  0.35803  Biso   1.000  C
  H23      1.0000 0.60807  0.04273  0.35663  Biso   1.000  H
  C48      1.0000 0.55697  0.06183  0.29193  Biso   1.000  C
  H24      1.0000 0.58127  0.07573  0.24483  Biso   1.000  H
  O17      1.0000 0.42211  0.47155  0.92240  Biso   1.000  O
  O18      1.0000 0.46981  0.42396  0.90887  Biso   1.000  O
  C49      1.0000 0.37412  0.37997  0.86307  Biso   1.000  C
  C50      1.0000 0.32337  0.38047  0.86207  Biso   1.000  C
  H25      1.0000 0.32253  0.41327  0.88107  Biso   1.000  H
  C51      1.0000 0.42688  0.42952  0.90027  Biso   1.000  C
  C52      1.0000 0.20350  0.35404  0.76427  Biso   1.000  C
  C53      1.0000 0.23942  0.37566  0.69137  Biso   1.000  C
  H26      1.0000 0.27473  0.37607  0.68997  Biso   1.000  H
  C54      1.0000 0.22363  0.39517  0.62527  Biso   1.000  C
  H27      1.0000 0.24793  0.40907  0.57817  Biso   1.000  H
  O19      1.0000 0.28390  0.19512  0.74427  Biso   1.000  O
  O20      1.0000 0.37919  0.24271  0.75780  Biso   1.000  O
  C55      1.0000 0.32749  0.28670  0.80360  Biso   1.000  C
  C56      1.0000 0.27624  0.28620  0.80460  Biso   1.000  C
  H28      1.0000 0.24260  0.25340  0.78560  Biso   1.000  H
  C57      1.0000 0.33070  0.23715  0.76640  Biso   1.000  C
  C58      1.0000 0.18280  0.31263  0.90240  Biso   1.000  C
  C59      1.0000 0.19710  0.29101  0.97530  Biso   1.000  C
  H29      1.0000 0.23200  0.29060  0.97670  Biso   1.000  H
  C60      1.0000 0.16180  0.27150  0.04140  Biso   1.000  C
  H30      1.0000 0.17220  0.25760  0.08850  Biso   1.000  H
  O21      1.0000 0.95057  0.52845  0.07760  Biso   1.000  O
  O22      1.0000 0.04586  0.57604  0.09113  Biso   1.000  O
  C61      1.0000 0.99416  0.62003  0.13693  Biso   1.000  C
  C62      1.0000 0.94291  0.61953  0.13793  Biso   1.000  C
  H31      1.0000 0.90927  0.58673  0.11893  Biso   1.000  H
  C63      1.0000 0.99737  0.57048  0.09973  Biso   1.000  C
  C64      1.0000 0.84947  0.64596  0.23573  Biso   1.000  C
  C65      1.0000 0.86377  0.62434  0.30863  Biso   1.000  C
  H32      1.0000 0.89867  0.62393  0.31003  Biso   1.000  H
  C66      1.0000 0.82847  0.60483  0.37473  Biso   1.000  C
  H33      1.0000 0.83887  0.59093  0.42183  Biso   1.000  H
  O23      1.0000 0.61723  0.86179  0.41094  Biso   1.000  O
  O24      1.0000 0.71252  0.90938  0.42447  Biso   1.000  O
  C67      1.0000 0.66082  0.95337  0.47027  Biso   1.000  C
  C68      1.0000 0.60957  0.95287  0.47127  Biso   1.000  C
  H34      1.0000 0.57593  0.92007  0.45227  Biso   1.000  H
  C69      1.0000 0.66403  0.90382  0.43307  Biso   1.000  C
  C70      1.0000 0.51613  0.97930  0.56907  Biso   1.000  C
  C71      1.0000 0.53043  0.95768  0.64197  Biso   1.000  C
  H35      1.0000 0.56533  0.95727  0.64337  Biso   1.000  H
  C72      1.0000 0.49513  0.93817  0.70807  Biso   1.000  C
  H36      1.0000 0.50553  0.92427  0.75517  Biso   1.000  H
  O25      1.0000 0.91122  0.71610  0.74427  Biso   1.000  O
  O26      1.0000 0.86352  0.62081  0.75780  Biso   1.000  O
  C73      1.0000 0.95921  0.67251  0.80360  Biso   1.000  C
  C74      1.0000 0.00996  0.72376  0.80460  Biso   1.000  C
  H37      1.0000 0.01080  0.75740  0.78560  Biso   1.000  H
  C75      1.0000 0.90645  0.66930  0.76640  Biso   1.000  C
  C76      1.0000 0.12983  0.81720  0.90240  Biso   1.000  C
  C77      1.0000 0.09391  0.80290  0.97530  Biso   1.000  C
  H38      1.0000 0.05860  0.76800  0.97670  Biso   1.000  H
  C78      1.0000 0.10970  0.83820  0.04140  Biso   1.000  C
  H39      1.0000 0.08540  0.82780  0.08850  Biso   1.000  H
  O27      1.0000 0.57789  0.04943  0.07760  Biso   1.000  O
  O28      1.0000 0.53019  0.95414  0.09113  Biso   1.000  O
  C79      1.0000 0.62588  0.00584  0.13693  Biso   1.000  C
  C80      1.0000 0.67663  0.05709  0.13793  Biso   1.000  C
  H40      1.0000 0.67747  0.09073  0.11893  Biso   1.000  H
  C81      1.0000 0.57312  0.00263  0.09973  Biso   1.000  C
  C82      1.0000 0.79650  0.15053  0.23573  Biso   1.000  C
  C83      1.0000 0.76058  0.13623  0.30863  Biso   1.000  C
  H41      1.0000 0.72527  0.10133  0.31003  Biso   1.000  H
  C84      1.0000 0.77637  0.17153  0.37473  Biso   1.000  C
  H42      1.0000 0.75207  0.16113  0.42183  Biso   1.000  H
  O29      1.0000 0.24455  0.38277  0.41094  Biso   1.000  O
  O30      1.0000 0.19685  0.28748  0.42447  Biso   1.000  O
  C85      1.0000 0.29254  0.33918  0.47027  Biso   1.000  C
  C86      1.0000 0.34329  0.39043  0.47127  Biso   1.000  C
  H43      1.0000 0.34413  0.42407  0.45227  Biso   1.000  H
  C87      1.0000 0.23978  0.33597  0.43307  Biso   1.000  C
  C88      1.0000 0.46316  0.48387  0.56907  Biso   1.000  C
  C89      1.0000 0.42724  0.46957  0.64197  Biso   1.000  C
  H44      1.0000 0.39193  0.43467  0.64337  Biso   1.000  H
  C90      1.0000 0.44303  0.50487  0.70807  Biso   1.000  C
  H45      1.0000 0.41873  0.49447  0.75517  Biso   1.000  H
  O31      1.0000 0.80488  0.08878  0.74427  Biso   1.000  O
  O32      1.0000 0.75729  0.13648  0.75780  Biso   1.000  O
  C91      1.0000 0.71330  0.04079  0.80360  Biso   1.000  C
  C92      1.0000 0.71380  0.99004  0.80460  Biso   1.000  C
  H46      1.0000 0.74660  0.98920  0.78560  Biso   1.000  H
  C93      1.0000 0.76285  0.09355  0.76640  Biso   1.000  C
  C94      1.0000 0.68737  0.87017  0.90240  Biso   1.000  C
  C95      1.0000 0.70899  0.90609  0.97530  Biso   1.000  C
  H47      1.0000 0.70940  0.94140  0.97670  Biso   1.000  H
  C96      1.0000 0.72850  0.89030  0.04140  Biso   1.000  C
  H48      1.0000 0.74240  0.91460  0.08850  Biso   1.000  H
  O33      1.0000 0.47155  0.42211  0.07760  Biso   1.000  O
  O34      1.0000 0.42396  0.46981  0.09113  Biso   1.000  O
  C97      1.0000 0.37997  0.37412  0.13693  Biso   1.000  C
  C98      1.0000 0.38047  0.32337  0.13793  Biso   1.000  C
  H49      1.0000 0.41327  0.32253  0.11893  Biso   1.000  H
  C99      1.0000 0.42952  0.42688  0.09973  Biso   1.000  C
  C100     1.0000 0.35404  0.20350  0.23573  Biso   1.000  C
  C101     1.0000 0.37566  0.23942  0.30863  Biso   1.000  C
  H50      1.0000 0.37607  0.27473  0.31003  Biso   1.000  H
  C102     1.0000 0.39517  0.22363  0.37473  Biso   1.000  C
  H51      1.0000 0.40907  0.24793  0.42183  Biso   1.000  H
  O35      1.0000 0.13821  0.75545  0.41094  Biso   1.000  O
  O36      1.0000 0.09062  0.80315  0.42447  Biso   1.000  O
  C103     1.0000 0.04663  0.70746  0.47027  Biso   1.000  C
  C104     1.0000 0.04713  0.65671  0.47127  Biso   1.000  C
  H52      1.0000 0.07993  0.65587  0.45227  Biso   1.000  H
  C105     1.0000 0.09618  0.76022  0.43307  Biso   1.000  C
  C106     1.0000 0.02070  0.53684  0.56907  Biso   1.000  C
  C107     1.0000 0.04232  0.57276  0.64197  Biso   1.000  C
  H53      1.0000 0.04273  0.60807  0.64337  Biso   1.000  H
  C108     1.0000 0.06183  0.55697  0.70807  Biso   1.000  C
  H54      1.0000 0.07573  0.58127  0.75517  Biso   1.000  H
  O37      1.0000 0.80488  0.71610  0.74427  Biso   1.000  O
  O38      1.0000 0.75729  0.62081  0.75780  Biso   1.000  O
  C109     1.0000 0.71330  0.67251  0.80360  Biso   1.000  C
  C110     1.0000 0.71380  0.72376  0.80460  Biso   1.000  C
  H55      1.0000 0.74660  0.75740  0.78560  Biso   1.000  H
  C111     1.0000 0.76285  0.66930  0.76640  Biso   1.000  C
  C112     1.0000 0.68737  0.81720  0.90240  Biso   1.000  C
  C113     1.0000 0.70899  0.80290  0.97530  Biso   1.000  C
  H56      1.0000 0.70940  0.76800  0.97670  Biso   1.000  H
  C114     1.0000 0.72850  0.83820  0.04140  Biso   1.000  C
  H57      1.0000 0.74240  0.82780  0.08850  Biso   1.000  H
  O39      1.0000 0.47155  0.04943  0.07760  Biso   1.000  O
  O40      1.0000 0.42396  0.95414  0.09113  Biso   1.000  O
  C115     1.0000 0.37997  0.00584  0.13693  Biso   1.000  C
  C116     1.0000 0.38047  0.05709  0.13793  Biso   1.000  C
  H58      1.0000 0.41327  0.09073  0.11893  Biso   1.000  H
  C117     1.0000 0.42952  0.00263  0.09973  Biso   1.000  C
  C118     1.0000 0.35404  0.15053  0.23573  Biso   1.000  C
  C119     1.0000 0.37566  0.13623  0.30863  Biso   1.000  C
  H59      1.0000 0.37607  0.10133  0.31003  Biso   1.000  H
  C120     1.0000 0.39517  0.17153  0.37473  Biso   1.000  C
  H60      1.0000 0.40907  0.16113  0.42183  Biso   1.000  H
  O41      1.0000 0.13821  0.38277  0.41094  Biso   1.000  O
  O42      1.0000 0.09062  0.28748  0.42447  Biso   1.000  O
  C121     1.0000 0.04663  0.33918  0.47027  Biso   1.000  C
  C122     1.0000 0.04713  0.39043  0.47127  Biso   1.000  C
  H61      1.0000 0.07993  0.42407  0.45227  Biso   1.000  H
  C123     1.0000 0.09618  0.33597  0.43307  Biso   1.000  C
  C124     1.0000 0.02070  0.48387  0.56907  Biso   1.000  C
  C125     1.0000 0.04232  0.46957  0.64197  Biso   1.000  C
  H62      1.0000 0.04273  0.43467  0.64337  Biso   1.000  H
  C126     1.0000 0.06183  0.50487  0.70807  Biso   1.000  C
  H63      1.0000 0.07573  0.49447  0.75517  Biso   1.000  H
  O43      1.0000 0.28390  0.08878  0.74427  Biso   1.000  O
  O44      1.0000 0.37919  0.13648  0.75780  Biso   1.000  O
  C127     1.0000 0.32749  0.04079  0.80360  Biso   1.000  C
  C128     1.0000 0.27624  0.99004  0.80460  Biso   1.000  C
  H64      1.0000 0.24260  0.98920  0.78560  Biso   1.000  H
  C129     1.0000 0.33070  0.09355  0.76640  Biso   1.000  C
  C130     1.0000 0.18280  0.87017  0.90240  Biso   1.000  C
  C131     1.0000 0.19710  0.90609  0.97530  Biso   1.000  C
  H65      1.0000 0.23200  0.94140  0.97670  Biso   1.000  H
  C132     1.0000 0.16180  0.89030  0.04140  Biso   1.000  C
  H66      1.0000 0.17220  0.91460  0.08850  Biso   1.000  H
  O45      1.0000 0.95057  0.42211  0.07760  Biso   1.000  O
  O46      1.0000 0.04586  0.46981  0.09113  Biso   1.000  O
  C133     1.0000 0.99416  0.37412  0.13693  Biso   1.000  C
  C134     1.0000 0.94291  0.32337  0.13793  Biso   1.000  C
  H67      1.0000 0.90927  0.32253  0.11893  Biso   1.000  H
  C135     1.0000 0.99737  0.42688  0.09973  Biso   1.000  C
  C136     1.0000 0.84947  0.20350  0.23573  Biso   1.000  C
  C137     1.0000 0.86377  0.23942  0.30863  Biso   1.000  C
  H68      1.0000 0.89867  0.27473  0.31003  Biso   1.000  H
  C138     1.0000 0.82847  0.22363  0.37473  Biso   1.000  C
  H69      1.0000 0.83887  0.24793  0.42183  Biso   1.000  H
  O47      1.0000 0.61723  0.75545  0.41094  Biso   1.000  O
  O48      1.0000 0.71252  0.80315  0.42447  Biso   1.000  O
  C139     1.0000 0.66082  0.70746  0.47027  Biso   1.000  C
  C140     1.0000 0.60957  0.65671  0.47127  Biso   1.000  C
  H70      1.0000 0.57593  0.65587  0.45227  Biso   1.000  H
  C141     1.0000 0.66403  0.76022  0.43307  Biso   1.000  C
  C142     1.0000 0.51613  0.53684  0.56907  Biso   1.000  C
  C143     1.0000 0.53043  0.57276  0.64197  Biso   1.000  C
  H71      1.0000 0.56533  0.60807  0.64337  Biso   1.000  H
  C144     1.0000 0.49513  0.55697  0.70807  Biso   1.000  C
  H72      1.0000 0.50553  0.58127  0.75517  Biso   1.000  H
  O49      1.0000 0.91122  0.19512  0.74427  Biso   1.000  O
  O50      1.0000 0.86352  0.24271  0.75780  Biso   1.000  O
  C145     1.0000 0.95921  0.28670  0.80360  Biso   1.000  C
  C146     1.0000 0.00996  0.28620  0.80460  Biso   1.000  C
  H73      1.0000 0.01080  0.25340  0.78560  Biso   1.000  H
  C147     1.0000 0.90645  0.23715  0.76640  Biso   1.000  C
  C148     1.0000 0.12983  0.31263  0.90240  Biso   1.000  C
  C149     1.0000 0.09391  0.29101  0.97530  Biso   1.000  C
  H74      1.0000 0.05860  0.29060  0.97670  Biso   1.000  H
  C150     1.0000 0.10970  0.27150  0.04140  Biso   1.000  C
  H75      1.0000 0.08540  0.25760  0.08850  Biso   1.000  H
  O51      1.0000 0.57789  0.52845  0.07760  Biso   1.000  O
  O52      1.0000 0.53019  0.57604  0.09113  Biso   1.000  O
  C151     1.0000 0.62588  0.62003  0.13693  Biso   1.000  C
  C152     1.0000 0.67663  0.61953  0.13793  Biso   1.000  C
  H76      1.0000 0.67747  0.58673  0.11893  Biso   1.000  H
  C153     1.0000 0.57312  0.57048  0.09973  Biso   1.000  C
  C154     1.0000 0.79650  0.64596  0.23573  Biso   1.000  C
  C155     1.0000 0.76058  0.62434  0.30863  Biso   1.000  C
  H77      1.0000 0.72527  0.62393  0.31003  Biso   1.000  H
  C156     1.0000 0.77637  0.60483  0.37473  Biso   1.000  C
  H78      1.0000 0.75207  0.59093  0.42183  Biso   1.000  H
  O53      1.0000 0.24455  0.86179  0.41094  Biso   1.000  O
  O54      1.0000 0.19685  0.90938  0.42447  Biso   1.000  O
  C157     1.0000 0.29254  0.95337  0.47027  Biso   1.000  C
  C158     1.0000 0.34329  0.95287  0.47127  Biso   1.000  C
  H79      1.0000 0.34413  0.92007  0.45227  Biso   1.000  H
  C159     1.0000 0.23978  0.90382  0.43307  Biso   1.000  C
  C160     1.0000 0.46316  0.97930  0.56907  Biso   1.000  C
  C161     1.0000 0.42724  0.95768  0.64197  Biso   1.000  C
  H80      1.0000 0.39193  0.95727  0.64337  Biso   1.000  H
  C162     1.0000 0.44303  0.93817  0.70807  Biso   1.000  C
  H81      1.0000 0.41873  0.92427  0.75517  Biso   1.000  H
  O55      1.0000 0.71610  0.80488  0.25573  Biso   1.000  O
  O56      1.0000 0.62081  0.75729  0.24220  Biso   1.000  O
  C163     1.0000 0.67251  0.71330  0.19640  Biso   1.000  C
  C164     1.0000 0.72376  0.71380  0.19540  Biso   1.000  C
  H82      1.0000 0.75740  0.74660  0.21440  Biso   1.000  H
  C165     1.0000 0.66930  0.76285  0.23360  Biso   1.000  C
  C166     1.0000 0.81720  0.68737  0.09760  Biso   1.000  C
  C167     1.0000 0.80290  0.70899  0.02470  Biso   1.000  C
  H83      1.0000 0.76800  0.70940  0.02330  Biso   1.000  H
  C168     1.0000 0.83820  0.72850  0.95860  Biso   1.000  C
  H84      1.0000 0.82780  0.74240  0.91150  Biso   1.000  H
  O57      1.0000 0.38277  0.13821  0.58906  Biso   1.000  O
  O58      1.0000 0.28748  0.09062  0.57553  Biso   1.000  O
  C169     1.0000 0.33918  0.04663  0.52973  Biso   1.000  C
  C170     1.0000 0.39043  0.04713  0.52873  Biso   1.000  C
  H85      1.0000 0.42407  0.07993  0.54773  Biso   1.000  H
  C171     1.0000 0.33597  0.09618  0.56693  Biso   1.000  C
  C172     1.0000 0.48387  0.02070  0.43093  Biso   1.000  C
  C173     1.0000 0.46957  0.04232  0.35803  Biso   1.000  C
  H86      1.0000 0.43467  0.04273  0.35663  Biso   1.000  H
  C174     1.0000 0.50487  0.06183  0.29193  Biso   1.000  C
  H87      1.0000 0.49447  0.07573  0.24483  Biso   1.000  H
  O59      1.0000 0.04943  0.47155  0.92240  Biso   1.000  O
  O60      1.0000 0.95414  0.42396  0.90887  Biso   1.000  O
  C175     1.0000 0.00584  0.37997  0.86307  Biso   1.000  C
  C176     1.0000 0.05709  0.38047  0.86207  Biso   1.000  C
  H88      1.0000 0.09073  0.41327  0.88107  Biso   1.000  H
  C177     1.0000 0.00263  0.42952  0.90027  Biso   1.000  C
  C178     1.0000 0.15053  0.35404  0.76427  Biso   1.000  C
  C179     1.0000 0.13623  0.37566  0.69137  Biso   1.000  C
  H89      1.0000 0.10133  0.37607  0.68997  Biso   1.000  H
  C180     1.0000 0.17153  0.39517  0.62527  Biso   1.000  C
  H90      1.0000 0.16113  0.40907  0.57817  Biso   1.000  H
  O61      1.0000 0.08878  0.28390  0.25573  Biso   1.000  O
  O62      1.0000 0.13648  0.37919  0.24220  Biso   1.000  O
  C181     1.0000 0.04079  0.32749  0.19640  Biso   1.000  C
  C182     1.0000 0.99004  0.27624  0.19540  Biso   1.000  C
  H91      1.0000 0.98920  0.24260  0.21440  Biso   1.000  H
  C183     1.0000 0.09355  0.33070  0.23360  Biso   1.000  C
  C184     1.0000 0.87017  0.18280  0.09760  Biso   1.000  C
  C185     1.0000 0.90609  0.19710  0.02470  Biso   1.000  C
  H92      1.0000 0.94140  0.23200  0.02330  Biso   1.000  H
  C186     1.0000 0.89030  0.16180  0.95860  Biso   1.000  C
  H93      1.0000 0.91460  0.17220  0.91150  Biso   1.000  H
  O63      1.0000 0.75545  0.61723  0.58906  Biso   1.000  O
  O64      1.0000 0.80315  0.71252  0.57553  Biso   1.000  O
  C187     1.0000 0.70746  0.66082  0.52973  Biso   1.000  C
  C188     1.0000 0.65671  0.60957  0.52873  Biso   1.000  C
  H94      1.0000 0.65587  0.57593  0.54773  Biso   1.000  H
  C189     1.0000 0.76022  0.66403  0.56693  Biso   1.000  C
  C190     1.0000 0.53684  0.51613  0.43093  Biso   1.000  C
  C191     1.0000 0.57276  0.53043  0.35803  Biso   1.000  C
  H95      1.0000 0.60807  0.56533  0.35663  Biso   1.000  H
  C192     1.0000 0.55697  0.49513  0.29193  Biso   1.000  C
  H96      1.0000 0.58127  0.50553  0.24483  Biso   1.000  H
  O65      1.0000 0.42211  0.95057  0.92240  Biso   1.000  O
  O66      1.0000 0.46981  0.04586  0.90887  Biso   1.000  O
  C193     1.0000 0.37412  0.99416  0.86307  Biso   1.000  C
  C194     1.0000 0.32337  0.94291  0.86207  Biso   1.000  C
  H97      1.0000 0.32253  0.90927  0.88107  Biso   1.000  H
  C195     1.0000 0.42688  0.99737  0.90027  Biso   1.000  C
  C196     1.0000 0.20350  0.84947  0.76427  Biso   1.000  C
  C197     1.0000 0.23942  0.86377  0.69137  Biso   1.000  C
  H98      1.0000 0.27473  0.89867  0.68997  Biso   1.000  H
  C198     1.0000 0.22363  0.82847  0.62527  Biso   1.000  C
  H99      1.0000 0.24793  0.83887  0.57817  Biso   1.000  H
  O67      1.0000 0.19512  0.91122  0.25573  Biso   1.000  O
  O68      1.0000 0.24271  0.86352  0.24220  Biso   1.000  O
  C199     1.0000 0.28670  0.95921  0.19640  Biso   1.000  C
  C200     1.0000 0.28620  0.00996  0.19540  Biso   1.000  C
  H100     1.0000 0.25340  0.01080  0.21440  Biso   1.000  H
  C201     1.0000 0.23715  0.90645  0.23360  Biso   1.000  C
  C202     1.0000 0.31263  0.12983  0.09760  Biso   1.000  C
  C203     1.0000 0.29101  0.09391  0.02470  Biso   1.000  C
  H101     1.0000 0.29060  0.05860  0.02330  Biso   1.000  H
  C204     1.0000 0.27150  0.10970  0.95860  Biso   1.000  C
  H102     1.0000 0.25760  0.08540  0.91150  Biso   1.000  H
  O69      1.0000 0.86179  0.24455  0.58906  Biso   1.000  O
  O70      1.0000 0.90938  0.19685  0.57553  Biso   1.000  O
  C205     1.0000 0.95337  0.29254  0.52973  Biso   1.000  C
  C206     1.0000 0.95287  0.34329  0.52873  Biso   1.000  C
  H103     1.0000 0.92007  0.34413  0.54773  Biso   1.000  H
  C207     1.0000 0.90382  0.23978  0.56693  Biso   1.000  C
  C208     1.0000 0.97930  0.46316  0.43093  Biso   1.000  C
  C209     1.0000 0.95768  0.42724  0.35803  Biso   1.000  C
  H104     1.0000 0.95727  0.39193  0.35663  Biso   1.000  H
  C210     1.0000 0.93817  0.44303  0.29193  Biso   1.000  C
  H105     1.0000 0.92427  0.41873  0.24483  Biso   1.000  H
  O71      1.0000 0.52845  0.57789  0.92240  Biso   1.000  O
  O72      1.0000 0.57604  0.53019  0.90887  Biso   1.000  O
  C211     1.0000 0.62003  0.62588  0.86307  Biso   1.000  C
  C212     1.0000 0.61953  0.67663  0.86207  Biso   1.000  C
  H106     1.0000 0.58673  0.67747  0.88107  Biso   1.000  H
  C213     1.0000 0.57048  0.57312  0.90027  Biso   1.000  C
  C214     1.0000 0.64596  0.79650  0.76427  Biso   1.000  C
  C215     1.0000 0.62434  0.76058  0.69137  Biso   1.000  C
  H107     1.0000 0.62393  0.72527  0.68997  Biso   1.000  H
  C216     1.0000 0.60483  0.77637  0.62527  Biso   1.000  C
  H108     1.0000 0.59093  0.75207  0.57817  Biso   1.000  H
  Zn1      1.0000 0.13443  0.26886  0.34117  Biso   1.000  Zn
  Zn2      1.0000 0.80110  0.60219  0.67450  Biso   1.000  Zn
  Zn3      1.0000 0.46776  0.93553  0.00784  Biso   1.000  Zn
  Zn4      1.0000 0.73114  0.86557  0.34117  Biso   1.000  Zn
  Zn5      1.0000 0.39781  0.19890  0.67450  Biso   1.000  Zn
  Zn6      1.0000 0.06447  0.53224  0.00784  Biso   1.000  Zn
  Zn7      1.0000 0.13443  0.86557  0.34117  Biso   1.000  Zn
  Zn8      1.0000 0.80110  0.19890  0.67450  Biso   1.000  Zn
  Zn9      1.0000 0.46776  0.53224  0.00784  Biso   1.000  Zn
  Zn10     1.0000 0.26886  0.13443  0.65883  Biso   1.000  Zn
  Zn11     1.0000 0.93553  0.46776  0.99216  Biso   1.000  Zn
  Zn12     1.0000 0.60219  0.80110  0.32550  Biso   1.000  Zn
  Zn13     1.0000 0.86557  0.73114  0.65883  Biso   1.000  Zn
  Zn14     1.0000 0.53224  0.06447  0.99216  Biso   1.000  Zn
  Zn15     1.0000 0.19890  0.39781  0.32550  Biso   1.000  Zn
  Zn16     1.0000 0.86557  0.13443  0.65883  Biso   1.000  Zn
  Zn17     1.0000 0.53224  0.46776  0.99216  Biso   1.000  Zn
  Zn18     1.0000 0.19890  0.80110  0.32550  Biso   1.000  Zn
  C217     1.0000 0.33333  0.37662  0.16667  Biso   1.000  C
  H109     1.0000 0.33333  0.41172  0.16667  Biso   1.000  H
  C218     1.0000 0.33333  0.27331  0.16667  Biso   1.000  C
  C219     1.0000 0.33333  0.21847  0.16667  Biso   1.000  C
  C220     1.0000 0.00000  0.70995  0.50000  Biso   1.000  C
  H110     1.0000 1.00000  0.74505  0.50000  Biso   1.000  H
  C221     1.0000 0.00000  0.60664  0.50000  Biso   1.000  C
  C222     1.0000 0.00000  0.55180  0.50000  Biso   1.000  C
  C223     1.0000 0.62338  0.95672  0.16667  Biso   1.000  C
  H111     1.0000 0.58828  0.92162  0.16667  Biso   1.000  H
  C224     1.0000 0.72669  0.06003  0.16667  Biso   1.000  C
  C225     1.0000 0.78153  0.11487  0.16667  Biso   1.000  C
  C226     1.0000 0.29005  0.29005  0.50000  Biso   1.000  C
  H112     1.0000 0.25495  0.25495  0.50000  Biso   1.000  H
  C227     1.0000 0.39336  0.39336  0.50000  Biso   1.000  C
  C228     1.0000 0.44820  0.44820  0.50000  Biso   1.000  C
  C229     1.0000 0.04328  0.66667  0.16667  Biso   1.000  C
  H113     1.0000 0.07838  0.66667  0.16667  Biso   1.000  H
  C230     1.0000 0.93997  0.66667  0.16667  Biso   1.000  C
  C231     1.0000 0.88513  0.66667  0.16667  Biso   1.000  C
  C232     1.0000 0.70995  0.00000  0.50000  Biso   1.000  C
  H114     1.0000 0.74505  0.00000  0.50000  Biso   1.000  H
  C233     1.0000 0.60664  0.00000  0.50000  Biso   1.000  C
  C234     1.0000 0.55180  0.00000  0.50000  Biso   1.000  C
  C235     1.0000 0.37662  0.33333  0.83333  Biso   1.000  C
  H115     1.0000 0.41172  0.33333  0.83333  Biso   1.000  H
  C236     1.0000 0.27331  0.33333  0.83333  Biso   1.000  C
  C237     1.0000 0.21847  0.33333  0.83333  Biso   1.000  C
  C238     1.0000 0.95672  0.62338  0.83333  Biso   1.000  C
  H116     1.0000 0.92162  0.58828  0.83333  Biso   1.000  H
  C239     1.0000 0.06003  0.72669  0.83333  Biso   1.000  C
  C240     1.0000 0.11487  0.78153  0.83333  Biso   1.000  C
  C241     1.0000 0.66667  0.04328  0.83333  Biso   1.000  C
  H117     1.0000 0.66667  0.07838  0.83333  Biso   1.000  H
  C242     1.0000 0.66667  0.93997  0.83333  Biso   1.000  C
  C243     1.0000 0.66667  0.88513  0.83333  Biso   1.000  C
  C244     1.0000 0.66667  0.62338  0.83333  Biso   1.000  C
  H118     1.0000 0.66667  0.58828  0.83333  Biso   1.000  H
  C245     1.0000 0.66667  0.72669  0.83333  Biso   1.000  C
  C246     1.0000 0.66667  0.78153  0.83333  Biso   1.000  C
  C247     1.0000 0.33333  0.95672  0.16667  Biso   1.000  C
  H119     1.0000 0.33333  0.92162  0.16667  Biso   1.000  H
  C248     1.0000 0.33333  0.06003  0.16667  Biso   1.000  C
  C249     1.0000 0.33333  0.11487  0.16667  Biso   1.000  C
  C250     1.0000 0.37662  0.04328  0.83333  Biso   1.000  C
  H120     1.0000 0.41172  0.07838  0.83333  Biso   1.000  H
  C251     1.0000 0.27331  0.93997  0.83333  Biso   1.000  C
  C252     1.0000 0.21847  0.88513  0.83333  Biso   1.000  C
  C253     1.0000 0.70995  0.70995  0.50000  Biso   1.000  C
  H121     1.0000 0.74505  0.74505  0.50000  Biso   1.000  H
  C254     1.0000 0.60664  0.60664  0.50000  Biso   1.000  C
  C255     1.0000 0.55180  0.55180  0.50000  Biso   1.000  C
  C256     1.0000 0.95672  0.33333  0.83333  Biso   1.000  C
  H122     1.0000 0.92162  0.33333  0.83333  Biso   1.000  H
  C257     1.0000 0.06003  0.33333  0.83333  Biso   1.000  C
  C258     1.0000 0.11487  0.33333  0.83333  Biso   1.000  C
  C259     1.0000 0.62338  0.66667  0.16667  Biso   1.000  C
  H123     1.0000 0.58828  0.66667  0.16667  Biso   1.000  H
  C260     1.0000 0.72669  0.66667  0.16667  Biso   1.000  C
  C261     1.0000 0.78153  0.66667  0.16667  Biso   1.000  C
  C262     1.0000 0.29005  0.00000  0.50000  Biso   1.000  C
  H124     1.0000 0.25495  0.00000  0.50000  Biso   1.000  H
  C263     1.0000 0.39336  0.00000  0.50000  Biso   1.000  C
  C264     1.0000 0.44820  0.00000  0.50000  Biso   1.000  C
  C265     1.0000 0.04328  0.37662  0.16667  Biso   1.000  C
  H125     1.0000 0.07838  0.41172  0.16667  Biso   1.000  H
  C266     1.0000 0.93997  0.27331  0.16667  Biso   1.000  C
  C267     1.0000 0.88513  0.21847  0.16667  Biso   1.000  C
  C268     1.0000 0.00000  0.29005  0.50000  Biso   1.000  C
  H126     1.0000 0.00000  0.25495  0.50000  Biso   1.000  H
  C269     1.0000 0.00000  0.39336  0.50000  Biso   1.000  C
  C270     1.0000 0.00000  0.44820  0.50000  Biso   1.000  C
