data_image0
_cell_length_a       8.13
_cell_length_b       20.174
_cell_length_c       9.014
_cell_angle_alpha    90
_cell_angle_beta     91.423
_cell_angle_gamma    90

_symmetry_space_group_name_H-M    "P 1"
_symmetry_int_tables_number       1

loop_
  _symmetry_equiv_pos_as_xyz
  'x, y, z'

loop_
  _atom_site_label
  _atom_site_occupancy
  _atom_site_fract_x
  _atom_site_fract_y
  _atom_site_fract_z
  _atom_site_thermal_displace_type
  _atom_site_B_iso_or_equiv
  _atom_site_type_symbol
  N1       1.0000 0.35150  0.57290  0.61039  Biso   1.000  N
  N2       1.0000 0.18120  0.57947  0.58830  Biso   1.000  N
  N3       1.0000 0.27770  0.66451  0.71400  Biso   1.000  N
  N4       1.0000 0.30350  0.72663  0.77620  Biso   1.000  N
  N5       1.0000 0.17360  0.75897  0.77020  Biso   1.000  N
  N6       1.0000 0.20160  0.82169  0.82890  Biso   1.000  N
  N7       1.0000 0.13810  0.91925  0.90871  Biso   1.000  N
  N8       1.0000 0.30860  0.91289  0.92060  Biso   1.000  N
  N9       1.0000 0.65960  0.49666  0.69416  Biso   1.000  N
  N10      1.0000 0.58180  0.49526  0.83065  Biso   1.000  N
  N11      1.0000 0.84750  0.49757  0.86827  Biso   1.000  N
  N12      1.0000 0.00390  0.49955  0.93118  Biso   1.000  N
  C1       1.0000 0.40530  0.62378  0.68520  Biso   1.000  C
  H1       1.0000 0.51670  0.63120  0.71510  Biso   1.000  H
  C2       1.0000 0.14040  0.63518  0.65000  Biso   1.000  C
  H2       1.0000 0.03230  0.65300  0.65090  Biso   1.000  H
  C3       1.0000 0.07770  0.86501  0.85190  Biso   1.000  C
  H3       1.0000 0.96450  0.85700  0.82990  Biso   1.000  H
  C4       1.0000 0.34380  0.85379  0.87160  Biso   1.000  C
  H4       1.0000 0.45140  0.83580  0.86630  Biso   1.000  H
  C5       1.0000 0.81840  0.49777  0.71900  Biso   1.000  C
  H5       1.0000 0.89990  0.49860  0.64520  Biso   1.000  H
  C6       1.0000 0.69670  0.49612  0.93360  Biso   1.000  C
  H6       1.0000 0.67910  0.49580  0.03750  Biso   1.000  H
  N13      1.0000 0.14850  0.07290  0.88961  Biso   1.000  N
  N14      1.0000 0.31880  0.07947  0.91170  Biso   1.000  N
  N15      1.0000 0.22230  0.16451  0.78600  Biso   1.000  N
  N16      1.0000 0.19650  0.22663  0.72380  Biso   1.000  N
  N17      1.0000 0.32640  0.25897  0.72980  Biso   1.000  N
  N18      1.0000 0.29840  0.32169  0.67110  Biso   1.000  N
  N19      1.0000 0.36190  0.41925  0.59129  Biso   1.000  N
  N20      1.0000 0.19140  0.41289  0.57940  Biso   1.000  N
  N21      1.0000 0.84040  0.99666  0.80584  Biso   1.000  N
  N22      1.0000 0.91820  0.99526  0.66935  Biso   1.000  N
  N23      1.0000 0.65250  0.99757  0.63173  Biso   1.000  N
  N24      1.0000 0.49610  0.99955  0.56882  Biso   1.000  N
  C7       1.0000 0.09470  0.12378  0.81480  Biso   1.000  C
  H7       1.0000 0.98330  0.13120  0.78490  Biso   1.000  H
  C8       1.0000 0.35960  0.13518  0.85000  Biso   1.000  C
  H8       1.0000 0.46770  0.15300  0.84910  Biso   1.000  H
  C9       1.0000 0.42230  0.36501  0.64810  Biso   1.000  C
  H9       1.0000 0.53550  0.35700  0.67010  Biso   1.000  H
  C10      1.0000 0.15620  0.35379  0.62840  Biso   1.000  C
  H10      1.0000 0.04860  0.33580  0.63370  Biso   1.000  H
  C11      1.0000 0.68160  0.99777  0.78100  Biso   1.000  C
  H11      1.0000 0.60010  0.99860  0.85480  Biso   1.000  H
  C12      1.0000 0.80330  0.99612  0.56640  Biso   1.000  C
  H12      1.0000 0.82090  0.99580  0.46250  Biso   1.000  H
  N25      1.0000 0.64850  0.42710  0.38961  Biso   1.000  N
  N26      1.0000 0.81880  0.42053  0.41170  Biso   1.000  N
  N27      1.0000 0.72230  0.33549  0.28600  Biso   1.000  N
  N28      1.0000 0.69650  0.27337  0.22380  Biso   1.000  N
  N29      1.0000 0.82640  0.24103  0.22980  Biso   1.000  N
  N30      1.0000 0.79840  0.17831  0.17110  Biso   1.000  N
  N31      1.0000 0.86190  0.08075  0.09129  Biso   1.000  N
  N32      1.0000 0.69140  0.08711  0.07940  Biso   1.000  N
  N33      1.0000 0.34040  0.50334  0.30584  Biso   1.000  N
  N34      1.0000 0.41820  0.50474  0.16935  Biso   1.000  N
  N35      1.0000 0.15250  0.50243  0.13173  Biso   1.000  N
  N36      1.0000 0.99610  0.50045  0.06882  Biso   1.000  N
  C13      1.0000 0.59470  0.37622  0.31480  Biso   1.000  C
  H13      1.0000 0.48330  0.36880  0.28490  Biso   1.000  H
  C14      1.0000 0.85960  0.36482  0.35000  Biso   1.000  C
  H14      1.0000 0.96770  0.34700  0.34910  Biso   1.000  H
  C15      1.0000 0.92230  0.13499  0.14810  Biso   1.000  C
  H15      1.0000 0.03550  0.14300  0.17010  Biso   1.000  H
  C16      1.0000 0.65620  0.14621  0.12840  Biso   1.000  C
  H16      1.0000 0.54860  0.16420  0.13370  Biso   1.000  H
  C17      1.0000 0.18160  0.50223  0.28100  Biso   1.000  C
  H17      1.0000 0.10010  0.50140  0.35480  Biso   1.000  H
  C18      1.0000 0.30330  0.50388  0.06640  Biso   1.000  C
  H18      1.0000 0.32090  0.50420  0.96250  Biso   1.000  H
  N37      1.0000 0.85150  0.92710  0.11039  Biso   1.000  N
  N38      1.0000 0.68120  0.92053  0.08830  Biso   1.000  N
  N39      1.0000 0.77770  0.83549  0.21400  Biso   1.000  N
  N40      1.0000 0.80350  0.77337  0.27620  Biso   1.000  N
  N41      1.0000 0.67360  0.74103  0.27020  Biso   1.000  N
  N42      1.0000 0.70160  0.67831  0.32890  Biso   1.000  N
  N43      1.0000 0.63810  0.58075  0.40871  Biso   1.000  N
  N44      1.0000 0.80860  0.58711  0.42060  Biso   1.000  N
  N45      1.0000 0.15960  0.00334  0.19416  Biso   1.000  N
  N46      1.0000 0.08180  0.00474  0.33065  Biso   1.000  N
  N47      1.0000 0.34750  0.00243  0.36827  Biso   1.000  N
  N48      1.0000 0.50390  0.00045  0.43118  Biso   1.000  N
  C19      1.0000 0.90530  0.87622  0.18520  Biso   1.000  C
  H19      1.0000 0.01670  0.86880  0.21510  Biso   1.000  H
  C20      1.0000 0.64040  0.86482  0.15000  Biso   1.000  C
  H20      1.0000 0.53230  0.84700  0.15090  Biso   1.000  H
  C21      1.0000 0.57770  0.63499  0.35190  Biso   1.000  C
  H21      1.0000 0.46450  0.64300  0.32990  Biso   1.000  H
  C22      1.0000 0.84380  0.64621  0.37160  Biso   1.000  C
  H22      1.0000 0.95140  0.66420  0.36630  Biso   1.000  H
  C23      1.0000 0.31840  0.00223  0.21900  Biso   1.000  C
  H23      1.0000 0.39990  0.00140  0.14520  Biso   1.000  H
  C24      1.0000 0.19670  0.00388  0.43360  Biso   1.000  C
  H24      1.0000 0.17910  0.00420  0.53750  Biso   1.000  H
  Zn1      1.0000 0.50000  0.50000  0.50000  Biso   1.000  Zn
  Zn2      1.0000 0.00000  0.00000  0.00000  Biso   1.000  Zn
