data_image0
_cell_length_a       19.144
_cell_length_b       23.388
_cell_length_c       22.86
_cell_angle_alpha    90
_cell_angle_beta     102.838
_cell_angle_gamma    90

_symmetry_space_group_name_H-M    "P 1"
_symmetry_int_tables_number       1

loop_
  _symmetry_equiv_pos_as_xyz
  'x, y, z'

loop_
  _atom_site_label
  _atom_site_occupancy
  _atom_site_fract_x
  _atom_site_fract_y
  _atom_site_fract_z
  _atom_site_thermal_displace_type
  _atom_site_B_iso_or_equiv
  _atom_site_type_symbol
  W1       1.0000 0.66970  0.81376  0.99447  Biso   1.000  W
  O1       1.0000 0.74240  0.76010  0.03130  Biso   1.000  O
  O2       1.0000 0.72360  0.87040  0.05030  Biso   1.000  O
  O3       1.0000 0.64970  0.79360  0.09110  Biso   1.000  O
  O4       1.0000 0.59070  0.86090  0.98850  Biso   1.000  O
  O5       1.0000 0.60780  0.75170  0.96960  Biso   1.000  O
  W2       1.0000 0.74784  0.73007  0.11233  Biso   1.000  W
  W3       1.0000 0.72457  0.87134  0.13315  Biso   1.000  W
  P1       1.0000 0.57440  0.77880  0.10500  Biso   1.000  P
  W4       1.0000 0.48727  0.86861  0.98844  Biso   1.000  W
  W5       1.0000 0.51375  0.71545  0.96268  Biso   1.000  W
  O6       1.0000 0.78380  0.80420  0.14110  Biso   1.000  O
  O7       1.0000 0.71960  0.71700  0.18390  Biso   1.000  O
  O8       1.0000 0.68100  0.67450  0.07770  Biso   1.000  O
  O9       1.0000 0.82730  0.69630  0.12590  Biso   1.000  O
  O10      1.0000 0.78880  0.92230  0.15810  Biso   1.000  O
  O11      1.0000 0.70030  0.84820  0.20630  Biso   1.000  O
  O12      1.0000 0.63720  0.91100  0.11760  Biso   1.000  O
  O13      1.0000 0.58440  0.76740  0.17230  Biso   1.000  O
  O14      1.0000 0.54560  0.72670  0.06880  Biso   1.000  O
  O15      1.0000 0.52730  0.83070  0.08550  Biso   1.000  O
  O16      1.0000 0.47900  0.79070  0.96510  Biso   1.000  O
  O17      1.0000 0.46520  0.90270  0.92000  Biso   1.000  O
  O18      1.0000 0.51290  0.93190  0.04120  Biso   1.000  O
  O19      1.0000 0.39760  0.86590  0.00700  Biso   1.000  O
  O20      1.0000 0.50090  0.70120  0.88750  Biso   1.000  O
  O21      1.0000 0.56370  0.64690  0.99400  Biso   1.000  O
  O22      1.0000 0.42730  0.68880  0.97580  Biso   1.000  O
  W6       1.0000 0.65106  0.69138  0.22993  Biso   1.000  W
  W7       1.0000 0.59262  0.63183  0.07858  Biso   1.000  W
  Co1      1.0000 0.91575  0.65762  0.19153  Biso   1.000  Co
  W8       1.0000 0.62917  0.83144  0.25152  Biso   1.000  W
  W9       1.0000 0.53977  0.92355  0.12642  Biso   1.000  W
  Co2      1.0000 0.41222  0.92175  0.83169  Biso   1.000  Co
  W10      1.0000 0.30712  0.83779  0.02047  Biso   1.000  W
  Na1      1.0000 0.54340  0.63140  0.82450  Biso   1.000  Na
  W11      1.0000 0.33207  0.68534  0.99314  Biso   1.000  W
  O23      1.0000 0.61290  0.64650  0.16170  Biso   1.000  O
  O24      1.0000 0.67210  0.76040  0.27690  Biso   1.000  O
  O25      1.0000 0.56630  0.68060  0.25700  Biso   1.000  O
  O26      1.0000 0.49970  0.61290  0.08090  Biso   1.000  O
  O27      1.0000 0.57090  0.88530  0.20030  Biso   1.000  O
  O28      1.0000 0.54540  0.80760  0.27460  Biso   1.000  O
  O29      1.0000 0.66780  0.87350  0.31320  Biso   1.000  O
  O30      1.0000 0.55190  0.99340  0.14720  Biso   1.000  O
  O31      1.0000 0.44470  0.91530  0.13060  Biso   1.000  O
  N1       1.0000 0.50440  0.90810  0.79980  Biso   1.000  N
  N2       1.0000 0.35500  0.94600  0.74670  Biso   1.000  N
  N3       1.0000 0.37800  0.83750  0.81750  Biso   1.000  N
  O32      1.0000 0.30750  0.89890  0.07740  Biso   1.000  O
  O33      1.0000 0.37750  0.80610  0.11130  Biso   1.000  O
  O34      1.0000 0.23300  0.79760  0.04870  Biso   1.000  O
  O35      1.0000 0.32930  0.76520  0.98920  Biso   1.000  O
  N4       1.0000 0.51800  0.68280  0.74940  Biso   1.000  N
  O36      1.0000 0.35690  0.61320  0.02950  Biso   1.000  O
  O37      1.0000 0.39670  0.70030  0.09350  Biso   1.000  O
  O38      1.0000 0.25200  0.68910  0.03070  Biso   1.000  O
  W12      1.0000 0.47053  0.65816  0.25901  Biso   1.000  W
  W13      1.0000 0.41234  0.60056  0.10803  Biso   1.000  W
  W14      1.0000 0.44764  0.79749  0.28018  Biso   1.000  W
  Co3      1.0000 0.73710  0.92490  0.37920  Biso   1.000  Co
  W15      1.0000 0.35919  0.89259  0.15792  Biso   1.000  W
  C1       1.0000 0.56490  0.93560  0.81210  Biso   1.000  C
  N5       1.0000 0.50380  0.87980  0.74810  Biso   1.000  N
  C2       1.0000 0.31800  0.99030  0.73240  Biso   1.000  C
  N6       1.0000 0.34980  0.91460  0.69700  Biso   1.000  N
  C3       1.0000 0.35230  0.80140  0.85450  Biso   1.000  C
  N7       1.0000 0.38050  0.80550  0.76780  Biso   1.000  N
  P2       1.0000 0.38330  0.74520  0.13720  Biso   1.000  P
  W16      1.0000 0.19730  0.72982  0.07736  Biso   1.000  W
  C4       1.0000 0.51600  0.74400  0.74400  Biso   1.000  C
  N8       1.0000 0.48400  0.66520  0.69110  Biso   1.000  N
  O39      1.0000 0.46440  0.62070  0.18630  Biso   1.000  O
  O40      1.0000 0.46670  0.72360  0.31100  Biso   1.000  O
  O41      1.0000 0.43770  0.74170  0.19650  Biso   1.000  O
  O42      1.0000 0.36790  0.65250  0.24570  Biso   1.000  O
  O43      1.0000 0.32480  0.60980  0.13780  Biso   1.000  O
  O44      1.0000 0.42340  0.85880  0.22460  Biso   1.000  O
  O45      1.0000 0.45440  0.83240  0.34680  Biso   1.000  O
  O46      1.0000 0.34860  0.78280  0.26670  Biso   1.000  O
  N9       1.0000 0.65870  0.91540  0.43080  Biso   1.000  N
  N10      1.0000 0.70440  0.00510  0.32830  Biso   1.000  N
  O47      1.0000 0.28520  0.84940  0.17980  Biso   1.000  O
  O48      1.0000 0.34040  0.95750  0.18760  Biso   1.000  O
  H1       1.0000 0.57780  0.95780  0.84650  Biso   1.000  H
  N11      1.0000 0.60720  0.93090  0.77420  Biso   1.000  N
  C5       1.0000 0.56920  0.89050  0.73580  Biso   1.000  C
  H2       1.0000 0.30780  0.01660  0.75980  Biso   1.000  H
  C6       1.0000 0.31310  0.94480  0.65070  Biso   1.000  C
  H3       1.0000 0.34740  0.81070  0.89290  Biso   1.000  H
  N12      1.0000 0.33500  0.75030  0.82780  Biso   1.000  N
  C7       1.0000 0.35580  0.75500  0.77460  Biso   1.000  C
  O49      1.0000 0.30610  0.73000  0.15110  Biso   1.000  O
  O50      1.0000 0.19770  0.66300  0.12600  Biso   1.000  O
  O51      1.0000 0.17920  0.77350  0.14480  Biso   1.000  O
  H4       1.0000 0.54310  0.76770  0.77220  Biso   1.000  H
  N13      1.0000 0.47100  0.76350  0.69150  Biso   1.000  N
  C8       1.0000 0.45300  0.71700  0.65800  Biso   1.000  C
  K1       1.0000 0.50220  0.58310  0.66370  Biso   1.000  K
  W17      1.0000 0.27682  0.64466  0.19263  Biso   1.000  W
  Co4      1.0000 0.44821  0.85685  0.43237  Biso   1.000  Co
  W18      1.0000 0.25247  0.78668  0.21601  Biso   1.000  W
  C9       1.0000 0.60790  0.87450  0.42390  Biso   1.000  C
  C10      1.0000 0.63100  0.95890  0.46100  Biso   1.000  C
  Co5      1.0000 0.30350  0.02430  0.23800  Biso   1.000  Co
  H5       1.0000 0.58610  0.87270  0.70530  Biso   1.000  H
  N14      1.0000 0.44410  0.87650  0.61080  Biso   1.000  N
  H6       1.0000 0.30170  0.93310  0.61080  Biso   1.000  H
  H7       1.0000 0.35260  0.72560  0.74670  Biso   1.000  H
  H8       1.0000 0.42470  0.71760  0.61910  Biso   1.000  H
  O52      1.0000 0.51320  0.59380  0.62910  Biso   1.000  O
  O53      1.0000 0.24190  0.70640  0.23550  Biso   1.000  O
  O54      1.0000 0.24140  0.58790  0.22220  Biso   1.000  O
  N15      1.0000 0.55080  0.89190  0.44370  Biso   1.000  N
  N16      1.0000 0.44930  0.87920  0.52100  Biso   1.000  N
  N17      1.0000 0.40510  0.93420  0.39780  Biso   1.000  N
  O55      1.0000 0.48250  0.78410  0.45230  Biso   1.000  O
  H9       1.0000 0.61210  0.83860  0.40740  Biso   1.000  H
  H10      1.0000 0.65530  0.99220  0.47530  Biso   1.000  H
  N18      1.0000 0.56630  0.94630  0.46630  Biso   1.000  N
  N19      1.0000 0.34940  0.99490  0.33140  Biso   1.000  N
  C11      1.0000 0.43660  0.84690  0.56410  Biso   1.000  C
  N20      1.0000 0.46430  0.93280  0.54510  Biso   1.000  N
  C12      1.0000 0.36380  0.94260  0.34300  Biso   1.000  C
  N21      1.0000 0.41970  0.98650  0.42360  Biso   1.000  N
  H11      1.0000 0.52270  0.78390  0.47740  Biso   1.000  H
  C13      1.0000 0.38360  0.02310  0.38170  Biso   1.000  C
  H12      1.0000 0.42410  0.80840  0.56070  Biso   1.000  H
  C14      1.0000 0.46100  0.92760  0.60020  Biso   1.000  C
  H13      1.0000 0.34730  0.91310  0.31620  Biso   1.000  H
  H14      1.0000 0.38230  0.06250  0.38660  Biso   1.000  H
  H15      1.0000 0.46960  0.95690  0.62840  Biso   1.000  H
  K2       1.0000 0.91930  0.92140  0.18670  Biso   1.000  K
  W19      1.0000 0.83030  0.31376  0.50553  Biso   1.000  W
  O56      1.0000 0.75760  0.26010  0.46870  Biso   1.000  O
  O57      1.0000 0.77640  0.37040  0.44970  Biso   1.000  O
  O58      1.0000 0.85030  0.29360  0.40890  Biso   1.000  O
  O59      1.0000 0.90930  0.36090  0.51150  Biso   1.000  O
  O60      1.0000 0.89220  0.25170  0.53040  Biso   1.000  O
  W20      1.0000 0.75216  0.23007  0.38767  Biso   1.000  W
  W21      1.0000 0.77543  0.37134  0.36685  Biso   1.000  W
  P3       1.0000 0.92560  0.27880  0.39500  Biso   1.000  P
  W22      1.0000 0.01273  0.36861  0.51156  Biso   1.000  W
  W23      1.0000 0.98625  0.21545  0.53732  Biso   1.000  W
  O61      1.0000 0.71620  0.30420  0.35890  Biso   1.000  O
  O62      1.0000 0.78040  0.21700  0.31610  Biso   1.000  O
  O63      1.0000 0.81900  0.17450  0.42230  Biso   1.000  O
  O64      1.0000 0.67270  0.19630  0.37410  Biso   1.000  O
  O65      1.0000 0.71120  0.42230  0.34190  Biso   1.000  O
  O66      1.0000 0.79970  0.34820  0.29370  Biso   1.000  O
  O67      1.0000 0.86280  0.41100  0.38240  Biso   1.000  O
  O68      1.0000 0.91560  0.26740  0.32770  Biso   1.000  O
  O69      1.0000 0.95440  0.22670  0.43120  Biso   1.000  O
  O70      1.0000 0.97270  0.33070  0.41450  Biso   1.000  O
  O71      1.0000 0.02100  0.29070  0.53490  Biso   1.000  O
  O72      1.0000 0.03480  0.40270  0.58000  Biso   1.000  O
  O73      1.0000 0.98710  0.43190  0.45880  Biso   1.000  O
  O74      1.0000 0.10240  0.36590  0.49300  Biso   1.000  O
  O75      1.0000 0.99910  0.20120  0.61250  Biso   1.000  O
  O76      1.0000 0.93630  0.14690  0.50600  Biso   1.000  O
  O77      1.0000 0.07270  0.18880  0.52420  Biso   1.000  O
  W24      1.0000 0.84894  0.19138  0.27007  Biso   1.000  W
  W25      1.0000 0.90738  0.13183  0.42142  Biso   1.000  W
  Co6      1.0000 0.58425  0.15762  0.30847  Biso   1.000  Co
  W26      1.0000 0.87083  0.33144  0.24848  Biso   1.000  W
  W27      1.0000 0.96023  0.42355  0.37358  Biso   1.000  W
  Co7      1.0000 0.08778  0.42175  0.66831  Biso   1.000  Co
  W28      1.0000 0.19288  0.33779  0.47953  Biso   1.000  W
  Na2      1.0000 0.95660  0.13140  0.67550  Biso   1.000  Na
  W29      1.0000 0.16793  0.18534  0.50686  Biso   1.000  W
  O78      1.0000 0.88710  0.14650  0.33830  Biso   1.000  O
  O79      1.0000 0.82790  0.26040  0.22310  Biso   1.000  O
  O80      1.0000 0.93370  0.18060  0.24300  Biso   1.000  O
  O81      1.0000 0.00030  0.11290  0.41910  Biso   1.000  O
  O82      1.0000 0.92910  0.38530  0.29970  Biso   1.000  O
  O83      1.0000 0.95460  0.30760  0.22540  Biso   1.000  O
  O84      1.0000 0.83220  0.37350  0.18680  Biso   1.000  O
  O85      1.0000 0.94810  0.49340  0.35280  Biso   1.000  O
  O86      1.0000 0.05530  0.41530  0.36940  Biso   1.000  O
  N22      1.0000 0.99560  0.40810  0.70020  Biso   1.000  N
  N23      1.0000 0.14500  0.44600  0.75330  Biso   1.000  N
  N24      1.0000 0.12200  0.33750  0.68250  Biso   1.000  N
  O87      1.0000 0.19250  0.39890  0.42260  Biso   1.000  O
  O88      1.0000 0.12250  0.30610  0.38870  Biso   1.000  O
  O89      1.0000 0.26700  0.29760  0.45130  Biso   1.000  O
  O90      1.0000 0.17070  0.26520  0.51080  Biso   1.000  O
  N25      1.0000 0.98200  0.18280  0.75060  Biso   1.000  N
  O91      1.0000 0.14310  0.11320  0.47050  Biso   1.000  O
  O92      1.0000 0.10330  0.20030  0.40650  Biso   1.000  O
  O93      1.0000 0.24800  0.18910  0.46930  Biso   1.000  O
  W30      1.0000 0.02947  0.15816  0.24099  Biso   1.000  W
  W31      1.0000 0.08766  0.10056  0.39197  Biso   1.000  W
  W32      1.0000 0.05236  0.29749  0.21982  Biso   1.000  W
  Co8      1.0000 0.76290  0.42490  0.12080  Biso   1.000  Co
  W33      1.0000 0.14081  0.39259  0.34208  Biso   1.000  W
  C15      1.0000 0.93510  0.43560  0.68790  Biso   1.000  C
  N26      1.0000 0.99620  0.37980  0.75190  Biso   1.000  N
  C16      1.0000 0.18200  0.49030  0.76760  Biso   1.000  C
  N27      1.0000 0.15020  0.41460  0.80300  Biso   1.000  N
  C17      1.0000 0.14770  0.30140  0.64550  Biso   1.000  C
  N28      1.0000 0.11950  0.30550  0.73220  Biso   1.000  N
  P4       1.0000 0.11670  0.24520  0.36280  Biso   1.000  P
  W34      1.0000 0.30270  0.22982  0.42264  Biso   1.000  W
  C18      1.0000 0.98400  0.24400  0.75600  Biso   1.000  C
  N29      1.0000 0.01600  0.16520  0.80890  Biso   1.000  N
  O94      1.0000 0.03560  0.12070  0.31370  Biso   1.000  O
  O95      1.0000 0.03330  0.22360  0.18900  Biso   1.000  O
  O96      1.0000 0.06230  0.24170  0.30350  Biso   1.000  O
  O97      1.0000 0.13210  0.15250  0.25430  Biso   1.000  O
  O98      1.0000 0.17520  0.10980  0.36220  Biso   1.000  O
  O99      1.0000 0.07660  0.35880  0.27540  Biso   1.000  O
  O100     1.0000 0.04560  0.33240  0.15320  Biso   1.000  O
  O101     1.0000 0.15140  0.28280  0.23330  Biso   1.000  O
  N30      1.0000 0.84130  0.41540  0.06920  Biso   1.000  N
  N31      1.0000 0.79560  0.50510  0.17170  Biso   1.000  N
  O102     1.0000 0.21480  0.34940  0.32020  Biso   1.000  O
  O103     1.0000 0.15960  0.45750  0.31240  Biso   1.000  O
  H16      1.0000 0.92220  0.45780  0.65350  Biso   1.000  H
  N32      1.0000 0.89280  0.43090  0.72580  Biso   1.000  N
  C19      1.0000 0.93080  0.39050  0.76420  Biso   1.000  C
  H17      1.0000 0.19220  0.51660  0.74020  Biso   1.000  H
  C20      1.0000 0.18690  0.44480  0.84930  Biso   1.000  C
  H18      1.0000 0.15260  0.31070  0.60710  Biso   1.000  H
  N33      1.0000 0.16500  0.25030  0.67220  Biso   1.000  N
  C21      1.0000 0.14420  0.25500  0.72540  Biso   1.000  C
  O104     1.0000 0.19390  0.23000  0.34890  Biso   1.000  O
  O105     1.0000 0.30230  0.16300  0.37400  Biso   1.000  O
  O106     1.0000 0.32080  0.27350  0.35520  Biso   1.000  O
  H19      1.0000 0.95690  0.26770  0.72780  Biso   1.000  H
  N34      1.0000 0.02900  0.26350  0.80850  Biso   1.000  N
  C22      1.0000 0.04700  0.21700  0.84200  Biso   1.000  C
  K3       1.0000 0.99780  0.08310  0.83630  Biso   1.000  K
  W35      1.0000 0.22318  0.14466  0.30737  Biso   1.000  W
  Co9      1.0000 0.05179  0.35685  0.06763  Biso   1.000  Co
  W36      1.0000 0.24753  0.28668  0.28399  Biso   1.000  W
  C23      1.0000 0.89210  0.37450  0.07610  Biso   1.000  C
  C24      1.0000 0.86900  0.45890  0.03900  Biso   1.000  C
  Co10     1.0000 0.19650  0.52430  0.26200  Biso   1.000  Co
  H20      1.0000 0.91390  0.37270  0.79470  Biso   1.000  H
  N35      1.0000 0.05590  0.37650  0.88920  Biso   1.000  N
  H21      1.0000 0.19830  0.43310  0.88920  Biso   1.000  H
  H22      1.0000 0.14740  0.22560  0.75330  Biso   1.000  H
  H23      1.0000 0.07530  0.21760  0.88090  Biso   1.000  H
  O107     1.0000 0.98680  0.09380  0.87090  Biso   1.000  O
  O108     1.0000 0.25810  0.20640  0.26450  Biso   1.000  O
  O109     1.0000 0.25860  0.08790  0.27780  Biso   1.000  O
  N36      1.0000 0.94920  0.39190  0.05630  Biso   1.000  N
  N37      1.0000 0.05070  0.37920  0.97900  Biso   1.000  N
  N38      1.0000 0.09490  0.43420  0.10220  Biso   1.000  N
  O110     1.0000 0.01750  0.28410  0.04770  Biso   1.000  O
  H24      1.0000 0.88790  0.33860  0.09260  Biso   1.000  H
  H25      1.0000 0.84470  0.49220  0.02470  Biso   1.000  H
  N39      1.0000 0.93370  0.44630  0.03370  Biso   1.000  N
  N40      1.0000 0.15060  0.49490  0.16860  Biso   1.000  N
  C25      1.0000 0.06340  0.34690  0.93590  Biso   1.000  C
  N41      1.0000 0.03570  0.43280  0.95490  Biso   1.000  N
  C26      1.0000 0.13620  0.44260  0.15700  Biso   1.000  C
  N42      1.0000 0.08030  0.48650  0.07640  Biso   1.000  N
  H26      1.0000 0.97730  0.28390  0.02260  Biso   1.000  H
  C27      1.0000 0.11640  0.52310  0.11830  Biso   1.000  C
  H27      1.0000 0.07590  0.30840  0.93930  Biso   1.000  H
  C28      1.0000 0.03900  0.42760  0.89980  Biso   1.000  C
  H28      1.0000 0.15270  0.41310  0.18380  Biso   1.000  H
  H29      1.0000 0.11770  0.56250  0.11340  Biso   1.000  H
  H30      1.0000 0.03040  0.45690  0.87160  Biso   1.000  H
  K4       1.0000 0.58070  0.42140  0.31330  Biso   1.000  K
  W37      1.0000 0.33030  0.18624  0.00553  Biso   1.000  W
  O111     1.0000 0.25760  0.23990  0.96870  Biso   1.000  O
  O112     1.0000 0.27640  0.12960  0.94970  Biso   1.000  O
  O113     1.0000 0.35030  0.20640  0.90890  Biso   1.000  O
  O114     1.0000 0.40930  0.13910  0.01150  Biso   1.000  O
  O115     1.0000 0.39220  0.24830  0.03040  Biso   1.000  O
  W38      1.0000 0.25216  0.26993  0.88767  Biso   1.000  W
  W39      1.0000 0.27543  0.12866  0.86685  Biso   1.000  W
  P5       1.0000 0.42560  0.22120  0.89500  Biso   1.000  P
  W40      1.0000 0.51273  0.13139  0.01156  Biso   1.000  W
  W41      1.0000 0.48625  0.28455  0.03732  Biso   1.000  W
  O116     1.0000 0.21620  0.19580  0.85890  Biso   1.000  O
  O117     1.0000 0.28040  0.28300  0.81610  Biso   1.000  O
  O118     1.0000 0.31900  0.32550  0.92230  Biso   1.000  O
  O119     1.0000 0.17270  0.30370  0.87410  Biso   1.000  O
  O120     1.0000 0.21120  0.07770  0.84190  Biso   1.000  O
  O121     1.0000 0.29970  0.15180  0.79370  Biso   1.000  O
  O122     1.0000 0.36280  0.08900  0.88240  Biso   1.000  O
  O123     1.0000 0.41560  0.23260  0.82770  Biso   1.000  O
  O124     1.0000 0.45440  0.27330  0.93120  Biso   1.000  O
  O125     1.0000 0.47270  0.16930  0.91450  Biso   1.000  O
  O126     1.0000 0.52100  0.20930  0.03490  Biso   1.000  O
  O127     1.0000 0.53480  0.09730  0.08000  Biso   1.000  O
  O128     1.0000 0.48710  0.06810  0.95880  Biso   1.000  O
  O129     1.0000 0.60240  0.13410  0.99300  Biso   1.000  O
  O130     1.0000 0.49910  0.29880  0.11250  Biso   1.000  O
  O131     1.0000 0.43630  0.35310  0.00600  Biso   1.000  O
  O132     1.0000 0.57270  0.31120  0.02420  Biso   1.000  O
  W42      1.0000 0.34894  0.30862  0.77007  Biso   1.000  W
  W43      1.0000 0.40738  0.36817  0.92142  Biso   1.000  W
  Co11     1.0000 0.08425  0.34238  0.80847  Biso   1.000  Co
  W44      1.0000 0.37083  0.16856  0.74848  Biso   1.000  W
  W45      1.0000 0.46023  0.07645  0.87358  Biso   1.000  W
  Co12     1.0000 0.58778  0.07825  0.16831  Biso   1.000  Co
  W46      1.0000 0.69288  0.16221  0.97953  Biso   1.000  W
  Na3      1.0000 0.45660  0.36860  0.17550  Biso   1.000  Na
  W47      1.0000 0.66793  0.31466  0.00686  Biso   1.000  W
  O133     1.0000 0.38710  0.35350  0.83830  Biso   1.000  O
  O134     1.0000 0.32790  0.23960  0.72310  Biso   1.000  O
  O135     1.0000 0.43370  0.31940  0.74300  Biso   1.000  O
  O136     1.0000 0.50030  0.38710  0.91910  Biso   1.000  O
  O137     1.0000 0.42910  0.11470  0.79970  Biso   1.000  O
  O138     1.0000 0.45460  0.19240  0.72540  Biso   1.000  O
  O139     1.0000 0.33220  0.12650  0.68680  Biso   1.000  O
  O140     1.0000 0.44810  0.00660  0.85280  Biso   1.000  O
  O141     1.0000 0.55530  0.08470  0.86940  Biso   1.000  O
  N43      1.0000 0.49560  0.09190  0.20020  Biso   1.000  N
  N44      1.0000 0.64500  0.05400  0.25330  Biso   1.000  N
  N45      1.0000 0.62200  0.16250  0.18250  Biso   1.000  N
  O142     1.0000 0.69250  0.10110  0.92260  Biso   1.000  O
  O143     1.0000 0.62250  0.19390  0.88870  Biso   1.000  O
  O144     1.0000 0.76700  0.20240  0.95130  Biso   1.000  O
  O145     1.0000 0.67070  0.23480  0.01080  Biso   1.000  O
  N46      1.0000 0.48200  0.31720  0.25060  Biso   1.000  N
  O146     1.0000 0.64310  0.38680  0.97050  Biso   1.000  O
  O147     1.0000 0.60330  0.29970  0.90650  Biso   1.000  O
  O148     1.0000 0.74800  0.31090  0.96930  Biso   1.000  O
  W48      1.0000 0.52947  0.34184  0.74099  Biso   1.000  W
  W49      1.0000 0.58766  0.39944  0.89197  Biso   1.000  W
  W50      1.0000 0.55236  0.20251  0.71982  Biso   1.000  W
  Co13     1.0000 0.26290  0.07510  0.62080  Biso   1.000  Co
  W51      1.0000 0.64081  0.10741  0.84208  Biso   1.000  W
  C29      1.0000 0.43510  0.06440  0.18790  Biso   1.000  C
  N47      1.0000 0.49620  0.12020  0.25190  Biso   1.000  N
  C30      1.0000 0.68200  0.00970  0.26760  Biso   1.000  C
  N48      1.0000 0.65020  0.08540  0.30300  Biso   1.000  N
  C31      1.0000 0.64770  0.19860  0.14550  Biso   1.000  C
  N49      1.0000 0.61950  0.19450  0.23220  Biso   1.000  N
  P6       1.0000 0.61670  0.25480  0.86280  Biso   1.000  P
  W52      1.0000 0.80270  0.27018  0.92264  Biso   1.000  W
  C32      1.0000 0.48400  0.25600  0.25600  Biso   1.000  C
  N50      1.0000 0.51600  0.33480  0.30890  Biso   1.000  N
  O149     1.0000 0.53560  0.37930  0.81370  Biso   1.000  O
  O150     1.0000 0.53330  0.27640  0.68900  Biso   1.000  O
  O151     1.0000 0.56230  0.25830  0.80350  Biso   1.000  O
  O152     1.0000 0.63210  0.34750  0.75430  Biso   1.000  O
  O153     1.0000 0.67520  0.39020  0.86220  Biso   1.000  O
  O154     1.0000 0.57660  0.14120  0.77540  Biso   1.000  O
  O155     1.0000 0.54560  0.16760  0.65320  Biso   1.000  O
  O156     1.0000 0.65140  0.21720  0.73330  Biso   1.000  O
  N51      1.0000 0.34130  0.08460  0.56920  Biso   1.000  N
  N52      1.0000 0.29560  0.99490  0.67170  Biso   1.000  N
  O157     1.0000 0.71480  0.15060  0.82020  Biso   1.000  O
  O158     1.0000 0.65960  0.04250  0.81240  Biso   1.000  O
  H31      1.0000 0.42220  0.04220  0.15350  Biso   1.000  H
  N53      1.0000 0.39280  0.06910  0.22580  Biso   1.000  N
  C33      1.0000 0.43080  0.10950  0.26420  Biso   1.000  C
  H32      1.0000 0.69220  0.98340  0.24020  Biso   1.000  H
  C34      1.0000 0.68690  0.05520  0.34930  Biso   1.000  C
  H33      1.0000 0.65260  0.18930  0.10710  Biso   1.000  H
  N54      1.0000 0.66500  0.24970  0.17220  Biso   1.000  N
  C35      1.0000 0.64420  0.24500  0.22540  Biso   1.000  C
  O159     1.0000 0.69390  0.27000  0.84890  Biso   1.000  O
  O160     1.0000 0.80230  0.33700  0.87400  Biso   1.000  O
  O161     1.0000 0.82080  0.22650  0.85520  Biso   1.000  O
  H34      1.0000 0.45690  0.23230  0.22780  Biso   1.000  H
  N55      1.0000 0.52900  0.23650  0.30850  Biso   1.000  N
  C36      1.0000 0.54700  0.28300  0.34200  Biso   1.000  C
  K5       1.0000 0.49780  0.41690  0.33630  Biso   1.000  K
  W53      1.0000 0.72318  0.35534  0.80737  Biso   1.000  W
  Co14     1.0000 0.55179  0.14315  0.56763  Biso   1.000  Co
  W54      1.0000 0.74753  0.21332  0.78399  Biso   1.000  W
  C37      1.0000 0.39210  0.12550  0.57610  Biso   1.000  C
  C38      1.0000 0.36900  0.04110  0.53900  Biso   1.000  C
  Co15     1.0000 0.69650  0.97570  0.76200  Biso   1.000  Co
  H35      1.0000 0.41390  0.12730  0.29470  Biso   1.000  H
  N56      1.0000 0.55590  0.12350  0.38920  Biso   1.000  N
  H36      1.0000 0.69830  0.06690  0.38920  Biso   1.000  H
  H37      1.0000 0.64740  0.27440  0.25330  Biso   1.000  H
  H38      1.0000 0.57530  0.28240  0.38090  Biso   1.000  H
  O162     1.0000 0.48680  0.40620  0.37090  Biso   1.000  O
  O163     1.0000 0.75810  0.29360  0.76450  Biso   1.000  O
  O164     1.0000 0.75860  0.41210  0.77780  Biso   1.000  O
  N57      1.0000 0.44920  0.10810  0.55630  Biso   1.000  N
  N58      1.0000 0.55070  0.12080  0.47900  Biso   1.000  N
  N59      1.0000 0.59490  0.06580  0.60220  Biso   1.000  N
  O165     1.0000 0.51750  0.21590  0.54770  Biso   1.000  O
  H39      1.0000 0.38790  0.16140  0.59260  Biso   1.000  H
  H40      1.0000 0.34470  0.00780  0.52470  Biso   1.000  H
  N60      1.0000 0.43370  0.05370  0.53370  Biso   1.000  N
  N61      1.0000 0.65060  0.00510  0.66860  Biso   1.000  N
  C39      1.0000 0.56340  0.15310  0.43590  Biso   1.000  C
  N62      1.0000 0.53570  0.06720  0.45490  Biso   1.000  N
  C40      1.0000 0.63620  0.05740  0.65700  Biso   1.000  C
  N63      1.0000 0.58030  0.01350  0.57640  Biso   1.000  N
  H41      1.0000 0.47730  0.21610  0.52260  Biso   1.000  H
  C41      1.0000 0.61640  0.97690  0.61830  Biso   1.000  C
  H42      1.0000 0.57590  0.19160  0.43930  Biso   1.000  H
  C42      1.0000 0.53900  0.07240  0.39980  Biso   1.000  C
  H43      1.0000 0.65270  0.08690  0.68380  Biso   1.000  H
  H44      1.0000 0.61770  0.93750  0.61340  Biso   1.000  H
  H45      1.0000 0.53040  0.04310  0.37160  Biso   1.000  H
  K6       1.0000 0.08070  0.07860  0.81330  Biso   1.000  K
  W55      1.0000 0.16970  0.68624  0.49447  Biso   1.000  W
  O166     1.0000 0.24240  0.73990  0.53130  Biso   1.000  O
  O167     1.0000 0.22360  0.62960  0.55030  Biso   1.000  O
  O168     1.0000 0.14970  0.70640  0.59110  Biso   1.000  O
  O169     1.0000 0.09070  0.63910  0.48850  Biso   1.000  O
  O170     1.0000 0.10780  0.74830  0.46960  Biso   1.000  O
  W56      1.0000 0.24784  0.76993  0.61233  Biso   1.000  W
  W57      1.0000 0.22457  0.62866  0.63315  Biso   1.000  W
  P7       1.0000 0.07440  0.72120  0.60500  Biso   1.000  P
  W58      1.0000 0.98727  0.63139  0.48844  Biso   1.000  W
  W59      1.0000 0.01375  0.78455  0.46268  Biso   1.000  W
  O171     1.0000 0.28380  0.69580  0.64110  Biso   1.000  O
  O172     1.0000 0.21960  0.78300  0.68390  Biso   1.000  O
  O173     1.0000 0.18100  0.82550  0.57770  Biso   1.000  O
  O174     1.0000 0.32730  0.80370  0.62590  Biso   1.000  O
  O175     1.0000 0.28880  0.57770  0.65810  Biso   1.000  O
  O176     1.0000 0.20030  0.65180  0.70630  Biso   1.000  O
  O177     1.0000 0.13720  0.58900  0.61760  Biso   1.000  O
  O178     1.0000 0.08440  0.73260  0.67230  Biso   1.000  O
  O179     1.0000 0.04560  0.77330  0.56880  Biso   1.000  O
  O180     1.0000 0.02730  0.66930  0.58550  Biso   1.000  O
  O181     1.0000 0.97900  0.70930  0.46510  Biso   1.000  O
  O182     1.0000 0.96520  0.59730  0.42000  Biso   1.000  O
  O183     1.0000 0.01290  0.56810  0.54120  Biso   1.000  O
  O184     1.0000 0.89760  0.63410  0.50700  Biso   1.000  O
  O185     1.0000 0.00090  0.79880  0.38750  Biso   1.000  O
  O186     1.0000 0.06370  0.85310  0.49400  Biso   1.000  O
  O187     1.0000 0.92730  0.81120  0.47580  Biso   1.000  O
  W60      1.0000 0.15106  0.80862  0.72993  Biso   1.000  W
  W61      1.0000 0.09262  0.86817  0.57858  Biso   1.000  W
  Co16     1.0000 0.41575  0.84238  0.69153  Biso   1.000  Co
  W62      1.0000 0.12917  0.66856  0.75152  Biso   1.000  W
  W63      1.0000 0.03977  0.57645  0.62642  Biso   1.000  W
  Co17     1.0000 0.91222  0.57825  0.33169  Biso   1.000  Co
  W64      1.0000 0.80712  0.66221  0.52047  Biso   1.000  W
  Na4      1.0000 0.04340  0.86860  0.32450  Biso   1.000  Na
  W65      1.0000 0.83207  0.81466  0.49314  Biso   1.000  W
  O188     1.0000 0.11290  0.85350  0.66170  Biso   1.000  O
  O189     1.0000 0.17210  0.73960  0.77690  Biso   1.000  O
  O190     1.0000 0.06630  0.81940  0.75700  Biso   1.000  O
  O191     1.0000 0.99970  0.88710  0.58090  Biso   1.000  O
  O192     1.0000 0.07090  0.61470  0.70030  Biso   1.000  O
  O193     1.0000 0.04540  0.69240  0.77460  Biso   1.000  O
  O194     1.0000 0.16780  0.62650  0.81320  Biso   1.000  O
  O195     1.0000 0.05190  0.50660  0.64720  Biso   1.000  O
  O196     1.0000 0.94470  0.58470  0.63060  Biso   1.000  O
  N64      1.0000 0.00440  0.59190  0.29980  Biso   1.000  N
  N65      1.0000 0.85500  0.55400  0.24670  Biso   1.000  N
  N66      1.0000 0.87800  0.66250  0.31750  Biso   1.000  N
  O197     1.0000 0.80750  0.60110  0.57740  Biso   1.000  O
  O198     1.0000 0.87750  0.69390  0.61130  Biso   1.000  O
  O199     1.0000 0.73300  0.70240  0.54870  Biso   1.000  O
  O200     1.0000 0.82930  0.73480  0.48920  Biso   1.000  O
  N67      1.0000 0.01800  0.81720  0.24940  Biso   1.000  N
  O201     1.0000 0.85690  0.88680  0.52950  Biso   1.000  O
  O202     1.0000 0.89670  0.79970  0.59350  Biso   1.000  O
  O203     1.0000 0.75200  0.81090  0.53070  Biso   1.000  O
  W66      1.0000 0.97053  0.84184  0.75901  Biso   1.000  W
  W67      1.0000 0.91234  0.89944  0.60803  Biso   1.000  W
  W68      1.0000 0.94764  0.70251  0.78018  Biso   1.000  W
  Co18     1.0000 0.23710  0.57510  0.87920  Biso   1.000  Co
  W69      1.0000 0.85919  0.60741  0.65792  Biso   1.000  W
  C43      1.0000 0.06490  0.56440  0.31210  Biso   1.000  C
  N68      1.0000 0.00380  0.62020  0.24810  Biso   1.000  N
  C44      1.0000 0.81800  0.50970  0.23240  Biso   1.000  C
  N69      1.0000 0.84980  0.58540  0.19700  Biso   1.000  N
  C45      1.0000 0.85230  0.69860  0.35450  Biso   1.000  C
  N70      1.0000 0.88050  0.69450  0.26780  Biso   1.000  N
  P8       1.0000 0.88330  0.75480  0.63720  Biso   1.000  P
  W70      1.0000 0.69730  0.77018  0.57736  Biso   1.000  W
  C46      1.0000 0.01600  0.75600  0.24400  Biso   1.000  C
  N71      1.0000 0.98400  0.83480  0.19110  Biso   1.000  N
  O204     1.0000 0.96440  0.87930  0.68630  Biso   1.000  O
  O205     1.0000 0.96670  0.77640  0.81100  Biso   1.000  O
  O206     1.0000 0.93770  0.75830  0.69650  Biso   1.000  O
  O207     1.0000 0.86790  0.84750  0.74570  Biso   1.000  O
  O208     1.0000 0.82480  0.89020  0.63780  Biso   1.000  O
  O209     1.0000 0.92340  0.64120  0.72460  Biso   1.000  O
  O210     1.0000 0.95440  0.66760  0.84680  Biso   1.000  O
  O211     1.0000 0.84860  0.71720  0.76670  Biso   1.000  O
  N72      1.0000 0.15870  0.58460  0.93080  Biso   1.000  N
  N73      1.0000 0.20440  0.49490  0.82830  Biso   1.000  N
  O212     1.0000 0.78520  0.65060  0.67980  Biso   1.000  O
  O213     1.0000 0.84040  0.54250  0.68760  Biso   1.000  O
  H46      1.0000 0.07780  0.54220  0.34650  Biso   1.000  H
  N74      1.0000 0.10720  0.56910  0.27420  Biso   1.000  N
  C47      1.0000 0.06920  0.60950  0.23580  Biso   1.000  C
  H47      1.0000 0.80780  0.48340  0.25980  Biso   1.000  H
  C48      1.0000 0.81310  0.55520  0.15070  Biso   1.000  C
  H48      1.0000 0.84740  0.68930  0.39290  Biso   1.000  H
  N75      1.0000 0.83500  0.74970  0.32780  Biso   1.000  N
  C49      1.0000 0.85580  0.74500  0.27460  Biso   1.000  C
  O214     1.0000 0.80610  0.77000  0.65110  Biso   1.000  O
  O215     1.0000 0.69770  0.83700  0.62600  Biso   1.000  O
  O216     1.0000 0.67920  0.72650  0.64480  Biso   1.000  O
  H49      1.0000 0.04310  0.73230  0.27220  Biso   1.000  H
  N76      1.0000 0.97100  0.73650  0.19150  Biso   1.000  N
  C50      1.0000 0.95300  0.78300  0.15800  Biso   1.000  C
  K7       1.0000 0.00220  0.91690  0.16370  Biso   1.000  K
  W71      1.0000 0.77682  0.85534  0.69263  Biso   1.000  W
  Co19     1.0000 0.94821  0.64315  0.93237  Biso   1.000  Co
  W72      1.0000 0.75247  0.71332  0.71601  Biso   1.000  W
  C51      1.0000 0.10790  0.62550  0.92390  Biso   1.000  C
  C52      1.0000 0.13100  0.54110  0.96100  Biso   1.000  C
  Co20     1.0000 0.80350  0.47570  0.73800  Biso   1.000  Co
  H50      1.0000 0.08610  0.62730  0.20530  Biso   1.000  H
  N77      1.0000 0.94410  0.62350  0.11080  Biso   1.000  N
  H51      1.0000 0.80170  0.56690  0.11080  Biso   1.000  H
  H52      1.0000 0.85260  0.77440  0.24670  Biso   1.000  H
  H53      1.0000 0.92470  0.78240  0.11910  Biso   1.000  H
  O217     1.0000 0.01320  0.90620  0.12910  Biso   1.000  O
  O218     1.0000 0.74190  0.79360  0.73550  Biso   1.000  O
  O219     1.0000 0.74140  0.91210  0.72220  Biso   1.000  O
  N78      1.0000 0.05080  0.60810  0.94370  Biso   1.000  N
  N79      1.0000 0.94930  0.62080  0.02100  Biso   1.000  N
  N80      1.0000 0.90510  0.56580  0.89780  Biso   1.000  N
  O220     1.0000 0.98250  0.71590  0.95230  Biso   1.000  O
  H54      1.0000 0.11210  0.66140  0.90740  Biso   1.000  H
  H55      1.0000 0.15530  0.50780  0.97530  Biso   1.000  H
  N81      1.0000 0.06630  0.55370  0.96630  Biso   1.000  N
  N82      1.0000 0.84940  0.50510  0.83140  Biso   1.000  N
  C53      1.0000 0.93660  0.65310  0.06410  Biso   1.000  C
  N83      1.0000 0.96430  0.56720  0.04510  Biso   1.000  N
  C54      1.0000 0.86380  0.55740  0.84300  Biso   1.000  C
  N84      1.0000 0.91970  0.51350  0.92360  Biso   1.000  N
  H56      1.0000 0.02270  0.71610  0.97740  Biso   1.000  H
  C55      1.0000 0.88360  0.47690  0.88170  Biso   1.000  C
  H57      1.0000 0.92410  0.69160  0.06070  Biso   1.000  H
  C56      1.0000 0.96100  0.57240  0.10020  Biso   1.000  C
  H58      1.0000 0.84730  0.58690  0.81620  Biso   1.000  H
  H59      1.0000 0.88230  0.43750  0.88660  Biso   1.000  H
  H60      1.0000 0.96960  0.54310  0.12840  Biso   1.000  H
  K8       1.0000 0.41930  0.57860  0.68670  Biso   1.000  K
  Co21     1.0000 0.50000  0.00000  0.50000  Biso   1.000  Co
  Co22     1.0000 0.00000  0.50000  0.00000  Biso   1.000  Co
