data_image0
_cell_length_a       12.329
_cell_length_b       21.69
_cell_length_c       17.435
_cell_angle_alpha    90
_cell_angle_beta     96.32
_cell_angle_gamma    90

_symmetry_space_group_name_H-M    "P 1"
_symmetry_int_tables_number       1

loop_
  _symmetry_equiv_pos_as_xyz
  'x, y, z'

loop_
  _atom_site_label
  _atom_site_occupancy
  _atom_site_fract_x
  _atom_site_fract_y
  _atom_site_fract_z
  _atom_site_thermal_displace_type
  _atom_site_B_iso_or_equiv
  _atom_site_type_symbol
  Co1      1.0000 0.76365  0.38426  0.89318  Biso   1.000  Co
  C1       1.0000 0.78680  0.40360  0.12370  Biso   1.000  C
  C2       1.0000 0.84620  0.36360  0.17490  Biso   1.000  C
  H1       1.0000 0.87790  0.32850  0.15650  Biso   1.000  H
  C3       1.0000 0.85790  0.37620  0.25300  Biso   1.000  C
  H2       1.0000 0.89710  0.34940  0.28720  Biso   1.000  H
  C4       1.0000 0.81160  0.42830  0.28050  Biso   1.000  C
  H3       1.0000 0.82190  0.43720  0.33300  Biso   1.000  H
  C5       1.0000 0.74930  0.46800  0.23030  Biso   1.000  C
  C6       1.0000 0.73660  0.45480  0.15160  Biso   1.000  C
  H4       1.0000 0.69430  0.48040  0.11770  Biso   1.000  H
  C7       1.0000 0.77600  0.39110  0.03850  Biso   1.000  C
  C8       1.0000 0.69570  0.52420  0.25980  Biso   1.000  C
  C9       1.0000 0.56150  0.26270  0.20100  Biso   1.000  C
  C10      1.0000 0.56040  0.32660  0.20100  Biso   1.000  C
  H5       1.0000 0.60060  0.34830  0.16780  Biso   1.000  H
  C11      1.0000 0.63120  0.22910  0.14880  Biso   1.000  C
  C12      1.0000 0.45000  0.30140  0.86380  Biso   1.000  C
  C13      1.0000 0.33950  0.29640  0.83800  Biso   1.000  C
  H6       1.0000 0.30500  0.32160  0.79950  Biso   1.000  H
  C14      1.0000 0.28360  0.24970  0.87500  Biso   1.000  C
  H7       1.0000 0.20970  0.24320  0.86020  Biso   1.000  H
  C15      1.0000 0.33820  0.21330  0.93370  Biso   1.000  C
  H8       1.0000 0.29960  0.18330  0.95750  Biso   1.000  H
  C16      1.0000 0.44910  0.22120  0.95690  Biso   1.000  C
  H9       1.0000 0.48500  0.19690  0.99560  Biso   1.000  H
  C17      1.0000 0.50440  0.26650  0.92040  Biso   1.000  C
  N1       1.0000 0.52800  0.34460  0.84060  Biso   1.000  N
  N2       1.0000 0.61920  0.33230  0.88270  Biso   1.000  N
  N3       1.0000 0.61290  0.28640  0.93100  Biso   1.000  N
  O1       1.0000 0.73530  0.43170  0.99250  Biso   1.000  O
  O2       1.0000 0.81000  0.34178  0.01280  Biso   1.000  O
  O3       1.0000 0.61590  0.54590  0.21910  Biso   1.000  O
  O4       1.0000 0.73570  0.54390  0.32390  Biso   1.000  O
  O5       1.0000 0.66460  0.25990  0.09480  Biso   1.000  O
  O6       1.0000 0.64890  0.17288  0.16230  Biso   1.000  O
  Co2      1.0000 0.26365  0.88426  0.89318  Biso   1.000  Co
  C18      1.0000 0.28680  0.90360  0.12370  Biso   1.000  C
  C19      1.0000 0.34620  0.86360  0.17490  Biso   1.000  C
  H10      1.0000 0.37790  0.82850  0.15650  Biso   1.000  H
  C20      1.0000 0.35790  0.87620  0.25300  Biso   1.000  C
  H11      1.0000 0.39710  0.84940  0.28720  Biso   1.000  H
  C21      1.0000 0.31160  0.92830  0.28050  Biso   1.000  C
  H12      1.0000 0.32190  0.93720  0.33300  Biso   1.000  H
  C22      1.0000 0.24930  0.96800  0.23030  Biso   1.000  C
  C23      1.0000 0.23660  0.95480  0.15160  Biso   1.000  C
  H13      1.0000 0.19430  0.98040  0.11770  Biso   1.000  H
  C24      1.0000 0.27600  0.89110  0.03850  Biso   1.000  C
  C25      1.0000 0.19570  0.02420  0.25980  Biso   1.000  C
  C26      1.0000 0.06150  0.76270  0.20100  Biso   1.000  C
  C27      1.0000 0.06040  0.82660  0.20100  Biso   1.000  C
  H14      1.0000 0.10060  0.84830  0.16780  Biso   1.000  H
  C28      1.0000 0.13120  0.72910  0.14880  Biso   1.000  C
  C29      1.0000 0.95000  0.80140  0.86380  Biso   1.000  C
  C30      1.0000 0.83950  0.79640  0.83800  Biso   1.000  C
  H15      1.0000 0.80500  0.82160  0.79950  Biso   1.000  H
  C31      1.0000 0.78360  0.74970  0.87500  Biso   1.000  C
  H16      1.0000 0.70970  0.74320  0.86020  Biso   1.000  H
  C32      1.0000 0.83820  0.71330  0.93370  Biso   1.000  C
  H17      1.0000 0.79960  0.68330  0.95750  Biso   1.000  H
  C33      1.0000 0.94910  0.72120  0.95690  Biso   1.000  C
  H18      1.0000 0.98500  0.69690  0.99560  Biso   1.000  H
  C34      1.0000 0.00440  0.76650  0.92040  Biso   1.000  C
  N4       1.0000 0.02800  0.84460  0.84060  Biso   1.000  N
  N5       1.0000 0.11920  0.83230  0.88270  Biso   1.000  N
  N6       1.0000 0.11290  0.78640  0.93100  Biso   1.000  N
  O7       1.0000 0.23530  0.93170  0.99250  Biso   1.000  O
  O8       1.0000 0.31000  0.84178  0.01280  Biso   1.000  O
  O9       1.0000 0.11590  0.04590  0.21910  Biso   1.000  O
  O10      1.0000 0.23570  0.04390  0.32390  Biso   1.000  O
  O11      1.0000 0.16460  0.75990  0.09480  Biso   1.000  O
  O12      1.0000 0.14890  0.67288  0.16230  Biso   1.000  O
  Co3      1.0000 0.23635  0.38426  0.60682  Biso   1.000  Co
  C35      1.0000 0.21320  0.40360  0.37630  Biso   1.000  C
  C36      1.0000 0.15380  0.36360  0.32510  Biso   1.000  C
  H19      1.0000 0.12210  0.32850  0.34350  Biso   1.000  H
  C37      1.0000 0.14210  0.37620  0.24700  Biso   1.000  C
  H20      1.0000 0.10290  0.34940  0.21280  Biso   1.000  H
  C38      1.0000 0.18840  0.42830  0.21950  Biso   1.000  C
  H21      1.0000 0.17810  0.43720  0.16700  Biso   1.000  H
  C39      1.0000 0.25070  0.46800  0.26970  Biso   1.000  C
  C40      1.0000 0.26340  0.45480  0.34840  Biso   1.000  C
  H22      1.0000 0.30570  0.48040  0.38230  Biso   1.000  H
  C41      1.0000 0.22400  0.39110  0.46150  Biso   1.000  C
  C42      1.0000 0.30430  0.52420  0.24020  Biso   1.000  C
  C43      1.0000 0.43850  0.26270  0.29900  Biso   1.000  C
  C44      1.0000 0.43960  0.32660  0.29900  Biso   1.000  C
  H23      1.0000 0.39940  0.34830  0.33220  Biso   1.000  H
  C45      1.0000 0.36880  0.22910  0.35120  Biso   1.000  C
  C46      1.0000 0.55000  0.30140  0.63620  Biso   1.000  C
  C47      1.0000 0.66050  0.29640  0.66200  Biso   1.000  C
  H24      1.0000 0.69500  0.32160  0.70050  Biso   1.000  H
  C48      1.0000 0.71640  0.24970  0.62500  Biso   1.000  C
  H25      1.0000 0.79030  0.24320  0.63980  Biso   1.000  H
  C49      1.0000 0.66180  0.21330  0.56630  Biso   1.000  C
  H26      1.0000 0.70040  0.18330  0.54250  Biso   1.000  H
  C50      1.0000 0.55090  0.22120  0.54310  Biso   1.000  C
  H27      1.0000 0.51500  0.19690  0.50440  Biso   1.000  H
  C51      1.0000 0.49560  0.26650  0.57960  Biso   1.000  C
  N7       1.0000 0.47200  0.34460  0.65940  Biso   1.000  N
  N8       1.0000 0.38080  0.33230  0.61730  Biso   1.000  N
  N9       1.0000 0.38710  0.28640  0.56900  Biso   1.000  N
  O13      1.0000 0.26470  0.43170  0.50750  Biso   1.000  O
  O14      1.0000 0.19000  0.34178  0.48720  Biso   1.000  O
  O15      1.0000 0.38410  0.54590  0.28090  Biso   1.000  O
  O16      1.0000 0.26430  0.54390  0.17610  Biso   1.000  O
  O17      1.0000 0.33540  0.25990  0.40520  Biso   1.000  O
  O18      1.0000 0.35110  0.17288  0.33770  Biso   1.000  O
  Co4      1.0000 0.73635  0.88426  0.60682  Biso   1.000  Co
  C52      1.0000 0.71320  0.90360  0.37630  Biso   1.000  C
  C53      1.0000 0.65380  0.86360  0.32510  Biso   1.000  C
  H28      1.0000 0.62210  0.82850  0.34350  Biso   1.000  H
  C54      1.0000 0.64210  0.87620  0.24700  Biso   1.000  C
  H29      1.0000 0.60290  0.84940  0.21280  Biso   1.000  H
  C55      1.0000 0.68840  0.92830  0.21950  Biso   1.000  C
  H30      1.0000 0.67810  0.93720  0.16700  Biso   1.000  H
  C56      1.0000 0.75070  0.96800  0.26970  Biso   1.000  C
  C57      1.0000 0.76340  0.95480  0.34840  Biso   1.000  C
  H31      1.0000 0.80570  0.98040  0.38230  Biso   1.000  H
  C58      1.0000 0.72400  0.89110  0.46150  Biso   1.000  C
  C59      1.0000 0.80430  0.02420  0.24020  Biso   1.000  C
  C60      1.0000 0.93850  0.76270  0.29900  Biso   1.000  C
  C61      1.0000 0.93960  0.82660  0.29900  Biso   1.000  C
  H32      1.0000 0.89940  0.84830  0.33220  Biso   1.000  H
  C62      1.0000 0.86880  0.72910  0.35120  Biso   1.000  C
  C63      1.0000 0.05000  0.80140  0.63620  Biso   1.000  C
  C64      1.0000 0.16050  0.79640  0.66200  Biso   1.000  C
  H33      1.0000 0.19500  0.82160  0.70050  Biso   1.000  H
  C65      1.0000 0.21640  0.74970  0.62500  Biso   1.000  C
  H34      1.0000 0.29030  0.74320  0.63980  Biso   1.000  H
  C66      1.0000 0.16180  0.71330  0.56630  Biso   1.000  C
  H35      1.0000 0.20040  0.68330  0.54250  Biso   1.000  H
  C67      1.0000 0.05090  0.72120  0.54310  Biso   1.000  C
  H36      1.0000 0.01500  0.69690  0.50440  Biso   1.000  H
  C68      1.0000 0.99560  0.76650  0.57960  Biso   1.000  C
  N10      1.0000 0.97200  0.84460  0.65940  Biso   1.000  N
  N11      1.0000 0.88080  0.83230  0.61730  Biso   1.000  N
  N12      1.0000 0.88710  0.78640  0.56900  Biso   1.000  N
  O19      1.0000 0.76470  0.93170  0.50750  Biso   1.000  O
  O20      1.0000 0.69000  0.84178  0.48720  Biso   1.000  O
  O21      1.0000 0.88410  0.04590  0.28090  Biso   1.000  O
  O22      1.0000 0.76430  0.04390  0.17610  Biso   1.000  O
  O23      1.0000 0.83540  0.75990  0.40520  Biso   1.000  O
  O24      1.0000 0.85110  0.67288  0.33770  Biso   1.000  O
  Co5      1.0000 0.23635  0.61574  0.10682  Biso   1.000  Co
  C69      1.0000 0.21320  0.59640  0.87630  Biso   1.000  C
  C70      1.0000 0.15380  0.63640  0.82510  Biso   1.000  C
  H37      1.0000 0.12210  0.67150  0.84350  Biso   1.000  H
  C71      1.0000 0.14210  0.62380  0.74700  Biso   1.000  C
  H38      1.0000 0.10290  0.65060  0.71280  Biso   1.000  H
  C72      1.0000 0.18840  0.57170  0.71950  Biso   1.000  C
  H39      1.0000 0.17810  0.56280  0.66700  Biso   1.000  H
  C73      1.0000 0.25070  0.53200  0.76970  Biso   1.000  C
  C74      1.0000 0.26340  0.54520  0.84840  Biso   1.000  C
  H40      1.0000 0.30570  0.51960  0.88230  Biso   1.000  H
  C75      1.0000 0.22400  0.60890  0.96150  Biso   1.000  C
  C76      1.0000 0.30430  0.47580  0.74020  Biso   1.000  C
  C77      1.0000 0.43850  0.73730  0.79900  Biso   1.000  C
  C78      1.0000 0.43960  0.67340  0.79900  Biso   1.000  C
  H41      1.0000 0.39940  0.65170  0.83220  Biso   1.000  H
  C79      1.0000 0.36880  0.77090  0.85120  Biso   1.000  C
  C80      1.0000 0.55000  0.69860  0.13620  Biso   1.000  C
  C81      1.0000 0.66050  0.70360  0.16200  Biso   1.000  C
  H42      1.0000 0.69500  0.67840  0.20050  Biso   1.000  H
  C82      1.0000 0.71640  0.75030  0.12500  Biso   1.000  C
  H43      1.0000 0.79030  0.75680  0.13980  Biso   1.000  H
  C83      1.0000 0.66180  0.78670  0.06630  Biso   1.000  C
  H44      1.0000 0.70040  0.81670  0.04250  Biso   1.000  H
  C84      1.0000 0.55090  0.77880  0.04310  Biso   1.000  C
  H45      1.0000 0.51500  0.80310  0.00440  Biso   1.000  H
  C85      1.0000 0.49560  0.73350  0.07960  Biso   1.000  C
  N13      1.0000 0.47200  0.65540  0.15940  Biso   1.000  N
  N14      1.0000 0.38080  0.66770  0.11730  Biso   1.000  N
  N15      1.0000 0.38710  0.71360  0.06900  Biso   1.000  N
  O25      1.0000 0.26470  0.56830  0.00750  Biso   1.000  O
  O26      1.0000 0.19000  0.65822  0.98720  Biso   1.000  O
  O27      1.0000 0.38410  0.45410  0.78090  Biso   1.000  O
  O28      1.0000 0.26430  0.45610  0.67610  Biso   1.000  O
  O29      1.0000 0.33540  0.74010  0.90520  Biso   1.000  O
  O30      1.0000 0.35110  0.82712  0.83770  Biso   1.000  O
  Co6      1.0000 0.73635  0.11574  0.10682  Biso   1.000  Co
  C86      1.0000 0.71320  0.09640  0.87630  Biso   1.000  C
  C87      1.0000 0.65380  0.13640  0.82510  Biso   1.000  C
  H46      1.0000 0.62210  0.17150  0.84350  Biso   1.000  H
  C88      1.0000 0.64210  0.12380  0.74700  Biso   1.000  C
  H47      1.0000 0.60290  0.15060  0.71280  Biso   1.000  H
  C89      1.0000 0.68840  0.07170  0.71950  Biso   1.000  C
  H48      1.0000 0.67810  0.06280  0.66700  Biso   1.000  H
  C90      1.0000 0.75070  0.03200  0.76970  Biso   1.000  C
  C91      1.0000 0.76340  0.04520  0.84840  Biso   1.000  C
  H49      1.0000 0.80570  0.01960  0.88230  Biso   1.000  H
  C92      1.0000 0.72400  0.10890  0.96150  Biso   1.000  C
  C93      1.0000 0.80430  0.97580  0.74020  Biso   1.000  C
  C94      1.0000 0.93850  0.23730  0.79900  Biso   1.000  C
  C95      1.0000 0.93960  0.17340  0.79900  Biso   1.000  C
  H50      1.0000 0.89940  0.15170  0.83220  Biso   1.000  H
  C96      1.0000 0.86880  0.27090  0.85120  Biso   1.000  C
  C97      1.0000 0.05000  0.19860  0.13620  Biso   1.000  C
  C98      1.0000 0.16050  0.20360  0.16200  Biso   1.000  C
  H51      1.0000 0.19500  0.17840  0.20050  Biso   1.000  H
  C99      1.0000 0.21640  0.25030  0.12500  Biso   1.000  C
  H52      1.0000 0.29030  0.25680  0.13980  Biso   1.000  H
  C100     1.0000 0.16180  0.28670  0.06630  Biso   1.000  C
  H53      1.0000 0.20040  0.31670  0.04250  Biso   1.000  H
  C101     1.0000 0.05090  0.27880  0.04310  Biso   1.000  C
  H54      1.0000 0.01500  0.30310  0.00440  Biso   1.000  H
  C102     1.0000 0.99560  0.23350  0.07960  Biso   1.000  C
  N16      1.0000 0.97200  0.15540  0.15940  Biso   1.000  N
  N17      1.0000 0.88080  0.16770  0.11730  Biso   1.000  N
  N18      1.0000 0.88710  0.21360  0.06900  Biso   1.000  N
  O31      1.0000 0.76470  0.06830  0.00750  Biso   1.000  O
  O32      1.0000 0.69000  0.15822  0.98720  Biso   1.000  O
  O33      1.0000 0.88410  0.95410  0.78090  Biso   1.000  O
  O34      1.0000 0.76430  0.95610  0.67610  Biso   1.000  O
  O35      1.0000 0.83540  0.24010  0.90520  Biso   1.000  O
  O36      1.0000 0.85110  0.32712  0.83770  Biso   1.000  O
  Co7      1.0000 0.76365  0.61574  0.39318  Biso   1.000  Co
  C103     1.0000 0.78680  0.59640  0.62370  Biso   1.000  C
  C104     1.0000 0.84620  0.63640  0.67490  Biso   1.000  C
  H55      1.0000 0.87790  0.67150  0.65650  Biso   1.000  H
  C105     1.0000 0.85790  0.62380  0.75300  Biso   1.000  C
  H56      1.0000 0.89710  0.65060  0.78720  Biso   1.000  H
  C106     1.0000 0.81160  0.57170  0.78050  Biso   1.000  C
  H57      1.0000 0.82190  0.56280  0.83300  Biso   1.000  H
  C107     1.0000 0.74930  0.53200  0.73030  Biso   1.000  C
  C108     1.0000 0.73660  0.54520  0.65160  Biso   1.000  C
  H58      1.0000 0.69430  0.51960  0.61770  Biso   1.000  H
  C109     1.0000 0.77600  0.60890  0.53850  Biso   1.000  C
  C110     1.0000 0.69570  0.47580  0.75980  Biso   1.000  C
  C111     1.0000 0.56150  0.73730  0.70100  Biso   1.000  C
  C112     1.0000 0.56040  0.67340  0.70100  Biso   1.000  C
  H59      1.0000 0.60060  0.65170  0.66780  Biso   1.000  H
  C113     1.0000 0.63120  0.77090  0.64880  Biso   1.000  C
  C114     1.0000 0.45000  0.69860  0.36380  Biso   1.000  C
  C115     1.0000 0.33950  0.70360  0.33800  Biso   1.000  C
  H60      1.0000 0.30500  0.67840  0.29950  Biso   1.000  H
  C116     1.0000 0.28360  0.75030  0.37500  Biso   1.000  C
  H61      1.0000 0.20970  0.75680  0.36020  Biso   1.000  H
  C117     1.0000 0.33820  0.78670  0.43370  Biso   1.000  C
  H62      1.0000 0.29960  0.81670  0.45750  Biso   1.000  H
  C118     1.0000 0.44910  0.77880  0.45690  Biso   1.000  C
  H63      1.0000 0.48500  0.80310  0.49560  Biso   1.000  H
  C119     1.0000 0.50440  0.73350  0.42040  Biso   1.000  C
  N19      1.0000 0.52800  0.65540  0.34060  Biso   1.000  N
  N20      1.0000 0.61920  0.66770  0.38270  Biso   1.000  N
  N21      1.0000 0.61290  0.71360  0.43100  Biso   1.000  N
  O37      1.0000 0.73530  0.56830  0.49250  Biso   1.000  O
  O38      1.0000 0.81000  0.65822  0.51280  Biso   1.000  O
  O39      1.0000 0.61590  0.45410  0.71910  Biso   1.000  O
  O40      1.0000 0.73570  0.45610  0.82390  Biso   1.000  O
  O41      1.0000 0.66460  0.74010  0.59480  Biso   1.000  O
  O42      1.0000 0.64890  0.82712  0.66230  Biso   1.000  O
  Co8      1.0000 0.26365  0.11574  0.39318  Biso   1.000  Co
  C120     1.0000 0.28680  0.09640  0.62370  Biso   1.000  C
  C121     1.0000 0.34620  0.13640  0.67490  Biso   1.000  C
  H64      1.0000 0.37790  0.17150  0.65650  Biso   1.000  H
  C122     1.0000 0.35790  0.12380  0.75300  Biso   1.000  C
  H65      1.0000 0.39710  0.15060  0.78720  Biso   1.000  H
  C123     1.0000 0.31160  0.07170  0.78050  Biso   1.000  C
  H66      1.0000 0.32190  0.06280  0.83300  Biso   1.000  H
  C124     1.0000 0.24930  0.03200  0.73030  Biso   1.000  C
  C125     1.0000 0.23660  0.04520  0.65160  Biso   1.000  C
  H67      1.0000 0.19430  0.01960  0.61770  Biso   1.000  H
  C126     1.0000 0.27600  0.10890  0.53850  Biso   1.000  C
  C127     1.0000 0.19570  0.97580  0.75980  Biso   1.000  C
  C128     1.0000 0.06150  0.23730  0.70100  Biso   1.000  C
  C129     1.0000 0.06040  0.17340  0.70100  Biso   1.000  C
  H68      1.0000 0.10060  0.15170  0.66780  Biso   1.000  H
  C130     1.0000 0.13120  0.27090  0.64880  Biso   1.000  C
  C131     1.0000 0.95000  0.19860  0.36380  Biso   1.000  C
  C132     1.0000 0.83950  0.20360  0.33800  Biso   1.000  C
  H69      1.0000 0.80500  0.17840  0.29950  Biso   1.000  H
  C133     1.0000 0.78360  0.25030  0.37500  Biso   1.000  C
  H70      1.0000 0.70970  0.25680  0.36020  Biso   1.000  H
  C134     1.0000 0.83820  0.28670  0.43370  Biso   1.000  C
  H71      1.0000 0.79960  0.31670  0.45750  Biso   1.000  H
  C135     1.0000 0.94910  0.27880  0.45690  Biso   1.000  C
  H72      1.0000 0.98500  0.30310  0.49560  Biso   1.000  H
  C136     1.0000 0.00440  0.23350  0.42040  Biso   1.000  C
  N22      1.0000 0.02800  0.15540  0.34060  Biso   1.000  N
  N23      1.0000 0.11920  0.16770  0.38270  Biso   1.000  N
  N24      1.0000 0.11290  0.21360  0.43100  Biso   1.000  N
  O43      1.0000 0.23530  0.06830  0.49250  Biso   1.000  O
  O44      1.0000 0.31000  0.15822  0.51280  Biso   1.000  O
  O45      1.0000 0.11590  0.95410  0.71910  Biso   1.000  O
  O46      1.0000 0.23570  0.95610  0.82390  Biso   1.000  O
  O47      1.0000 0.16460  0.24010  0.59480  Biso   1.000  O
  O48      1.0000 0.14890  0.32712  0.66230  Biso   1.000  O
  Co9      1.0000 0.75000  0.25000  0.00000  Biso   1.000  Co
  Co10     1.0000 0.25000  0.25000  0.50000  Biso   1.000  Co
  Co11     1.0000 0.25000  0.75000  0.00000  Biso   1.000  Co
  Co12     1.0000 0.75000  0.75000  0.50000  Biso   1.000  Co
  Co13     1.0000 0.50000  0.40229  0.75000  Biso   1.000  Co
  Co14     1.0000 0.00000  0.90229  0.75000  Biso   1.000  Co
  Co15     1.0000 0.50000  0.59771  0.25000  Biso   1.000  Co
  Co16     1.0000 0.00000  0.09771  0.25000  Biso   1.000  Co
  C137     1.0000 0.50000  0.23080  0.25000  Biso   1.000  C
  H73      1.0000 0.50000  0.18800  0.25000  Biso   1.000  H
  C138     1.0000 0.50000  0.35780  0.25000  Biso   1.000  C
  H74      1.0000 0.50000  0.40070  0.25000  Biso   1.000  H
  C139     1.0000 0.00000  0.73080  0.25000  Biso   1.000  C
  H75      1.0000 0.00000  0.68800  0.25000  Biso   1.000  H
  C140     1.0000 0.00000  0.85780  0.25000  Biso   1.000  C
  H76      1.0000 0.00000  0.90070  0.25000  Biso   1.000  H
  C141     1.0000 0.50000  0.76920  0.75000  Biso   1.000  C
  H77      1.0000 0.50000  0.81200  0.75000  Biso   1.000  H
  C142     1.0000 0.50000  0.64220  0.75000  Biso   1.000  C
  H78      1.0000 0.50000  0.59930  0.75000  Biso   1.000  H
  C143     1.0000 0.00000  0.26920  0.75000  Biso   1.000  C
  H79      1.0000 0.00000  0.31200  0.75000  Biso   1.000  H
  C144     1.0000 0.00000  0.14220  0.75000  Biso   1.000  C
  H80      1.0000 0.00000  0.09930  0.75000  Biso   1.000  H
