data_image0
_cell_length_a       12.219
_cell_length_b       16.015
_cell_length_c       22.014
_cell_angle_alpha    90
_cell_angle_beta     99.223
_cell_angle_gamma    90

_symmetry_space_group_name_H-M    "P 1"
_symmetry_int_tables_number       1

loop_
  _symmetry_equiv_pos_as_xyz
  'x, y, z'

loop_
  _atom_site_label
  _atom_site_occupancy
  _atom_site_fract_x
  _atom_site_fract_y
  _atom_site_fract_z
  _atom_site_thermal_displace_type
  _atom_site_B_iso_or_equiv
  _atom_site_type_symbol
  Cu1      1.0000 0.25800  0.66900  0.10889  Biso   1.000  Cu
  Cu2      1.0000 0.96160  0.66350  0.24734  Biso   1.000  Cu
  Cu3      1.0000 0.61120  0.50810  0.17476  Biso   1.000  Cu
  Cu4      1.0000 0.58610  0.19800  0.19689  Biso   1.000  Cu
  Cu5      1.0000 0.08010  0.59800  0.89341  Biso   1.000  Cu
  Cu6      1.0000 0.30330  0.97960  0.12349  Biso   1.000  Cu
  Cu7      1.0000 0.60530  0.20640  0.43022  Biso   1.000  Cu
  Cu8      1.0000 0.02450  0.79920  0.45396  Biso   1.000  Cu
  Cu9      1.0000 0.66590  0.90850  0.50148  Biso   1.000  Cu
  N1       1.0000 0.14900  0.60980  0.98080  Biso   1.000  N
  C1       1.0000 0.19000  0.63200  0.02910  Biso   1.000  C
  C2       1.0000 0.30450  0.86140  0.11480  Biso   1.000  C
  C3       1.0000 0.29500  0.79160  0.10970  Biso   1.000  C
  N2       1.0000 0.15190  0.66690  0.17080  Biso   1.000  N
  C4       1.0000 0.08200  0.66290  0.19910  Biso   1.000  C
  N3       1.0000 0.99600  0.75600  0.37150  Biso   1.000  N
  C5       1.0000 0.97700  0.72100  0.32460  Biso   1.000  C
  C6       1.0000 0.39700  0.60760  0.13820  Biso   1.000  C
  C7       1.0000 0.47400  0.57110  0.14910  Biso   1.000  C
  C8       1.0000 0.82900  0.60300  0.22280  Biso   1.000  C
  C9       1.0000 0.74900  0.56920  0.20510  Biso   1.000  C
  C10      1.0000 0.59700  0.38930  0.17140  Biso   1.000  C
  C11      1.0000 0.58200  0.31800  0.17400  Biso   1.000  C
  N4       1.0000 0.73640  0.16040  0.17420  Biso   1.000  N
  C12      1.0000 0.18700  0.63550  0.84560  Biso   1.000  C
  N5       1.0000 0.15600  0.03010  0.11830  Biso   1.000  N
  C13      1.0000 0.93300  0.55600  0.88490  Biso   1.000  C
  N6       1.0000 0.47150  0.11680  0.15960  Biso   1.000  N
  C14      1.0000 0.40900  0.06390  0.14710  Biso   1.000  C
  N7       1.0000 0.59850  0.19570  0.28960  Biso   1.000  N
  C15      1.0000 0.59700  0.20300  0.34320  Biso   1.000  C
  N8       1.0000 0.74840  0.25630  0.47270  Biso   1.000  N
  C16      1.0000 0.17000  0.77790  0.49920  Biso   1.000  C
  N9       1.0000 0.81390  0.86980  0.49260  Biso   1.000  N
  C17      1.0000 0.89800  0.84700  0.47950  Biso   1.000  C
  N10      1.0000 0.48630  0.27560  0.46010  Biso   1.000  N
  C18      1.0000 0.57500  0.82370  0.52470  Biso   1.000  C
  N11      1.0000 0.60690  0.08870  0.46250  Biso   1.000  N
  C19      1.0000 0.63100  0.02100  0.47950  Biso   1.000  C
  Cu10     1.0000 0.74200  0.16900  0.89111  Biso   1.000  Cu
  Cu11     1.0000 0.03840  0.16350  0.75266  Biso   1.000  Cu
  Cu12     1.0000 0.38880  0.00810  0.82524  Biso   1.000  Cu
  Cu13     1.0000 0.41390  0.69800  0.80311  Biso   1.000  Cu
  Cu14     1.0000 0.91990  0.09800  0.10659  Biso   1.000  Cu
  Cu15     1.0000 0.69670  0.47960  0.87651  Biso   1.000  Cu
  Cu16     1.0000 0.39470  0.70640  0.56978  Biso   1.000  Cu
  Cu17     1.0000 0.97550  0.29920  0.54604  Biso   1.000  Cu
  Cu18     1.0000 0.33410  0.40850  0.49852  Biso   1.000  Cu
  N12      1.0000 0.85100  0.10980  0.01920  Biso   1.000  N
  C20      1.0000 0.81000  0.13200  0.97090  Biso   1.000  C
  C21      1.0000 0.69550  0.36140  0.88520  Biso   1.000  C
  C22      1.0000 0.70500  0.29160  0.89030  Biso   1.000  C
  N13      1.0000 0.84810  0.16690  0.82920  Biso   1.000  N
  C23      1.0000 0.91800  0.16290  0.80090  Biso   1.000  C
  N14      1.0000 0.00400  0.25600  0.62850  Biso   1.000  N
  C24      1.0000 0.02300  0.22100  0.67540  Biso   1.000  C
  C25      1.0000 0.60300  0.10760  0.86180  Biso   1.000  C
  C26      1.0000 0.52600  0.07110  0.85090  Biso   1.000  C
  C27      1.0000 0.17100  0.10300  0.77720  Biso   1.000  C
  C28      1.0000 0.25100  0.06920  0.79490  Biso   1.000  C
  C29      1.0000 0.40300  0.88930  0.82860  Biso   1.000  C
  C30      1.0000 0.41800  0.81800  0.82600  Biso   1.000  C
  N15      1.0000 0.26360  0.66040  0.82580  Biso   1.000  N
  C31      1.0000 0.81300  0.13550  0.15440  Biso   1.000  C
  N16      1.0000 0.84400  0.53010  0.88170  Biso   1.000  N
  C32      1.0000 0.06700  0.05600  0.11510  Biso   1.000  C
  N17      1.0000 0.52850  0.61680  0.84040  Biso   1.000  N
  C33      1.0000 0.59100  0.56390  0.85290  Biso   1.000  C
  N18      1.0000 0.40150  0.69570  0.71040  Biso   1.000  N
  C34      1.0000 0.40300  0.70300  0.65680  Biso   1.000  C
  N19      1.0000 0.25160  0.75630  0.52730  Biso   1.000  N
  C35      1.0000 0.83000  0.27790  0.50080  Biso   1.000  C
  N20      1.0000 0.18610  0.36980  0.50740  Biso   1.000  N
  C36      1.0000 0.10200  0.34700  0.52050  Biso   1.000  C
  N21      1.0000 0.51370  0.77560  0.53990  Biso   1.000  N
  C37      1.0000 0.42500  0.32370  0.47530  Biso   1.000  C
  N22      1.0000 0.39310  0.58870  0.53750  Biso   1.000  N
  C38      1.0000 0.36900  0.52100  0.52050  Biso   1.000  C
