data_image0
_cell_length_a       9.001
_cell_length_b       11.966
_cell_length_c       15.106
_cell_angle_alpha    90
_cell_angle_beta     99.66
_cell_angle_gamma    90

_symmetry_space_group_name_H-M    "P 1"
_symmetry_int_tables_number       1

loop_
  _symmetry_equiv_pos_as_xyz
  'x, y, z'

loop_
  _atom_site_label
  _atom_site_occupancy
  _atom_site_fract_x
  _atom_site_fract_y
  _atom_site_fract_z
  _atom_site_thermal_displace_type
  _atom_site_B_iso_or_equiv
  _atom_site_type_symbol
  Fe1      1.0000 0.14982  0.41598  0.03243  Biso   1.000  Fe
  Na1      1.0000 0.75706  0.46918  0.17119  Biso   1.000  Na
  O1       1.0000 0.76190  0.27560  0.10880  Biso   1.000  O
  O2       1.0000 0.94130  0.39430  0.08625  Biso   1.000  O
  O3       1.0000 0.21800  0.27930  0.11365  Biso   1.000  O
  O4       1.0000 0.08910  0.52340  0.92495  Biso   1.000  O
  O5       1.0000 0.37960  0.47650  0.06390  Biso   1.000  O
  O6       1.0000 0.92300  0.56370  0.80383  Biso   1.000  O
  O7       1.0000 0.38110  0.14100  0.14528  Biso   1.000  O
  O8       1.0000 0.60480  0.49630  0.02336  Biso   1.000  O
  N1       1.0000 0.97870  0.30680  0.93105  Biso   1.000  N
  N2       1.0000 0.29640  0.31550  0.94373  Biso   1.000  N
  C1       1.0000 0.05690  0.23090  0.87590  Biso   1.000  C
  H1       1.0000 0.99150  0.21590  0.81930  Biso   1.000  H
  H2       1.0000 0.07850  0.16050  0.90710  Biso   1.000  H
  C2       1.0000 0.20230  0.28230  0.85790  Biso   1.000  C
  H3       1.0000 0.25650  0.22880  0.82710  Biso   1.000  H
  H4       1.0000 0.18030  0.34740  0.81960  Biso   1.000  H
  C3       1.0000 0.88540  0.24210  0.98450  Biso   1.000  C
  H5       1.0000 0.93540  0.17220  0.00350  Biso   1.000  H
  H6       1.0000 0.78910  0.22480  0.94780  Biso   1.000  H
  C4       1.0000 0.86000  0.30830  0.06640  Biso   1.000  C
  C5       1.0000 0.31880  0.21200  0.09320  Biso   1.000  C
  C6       1.0000 0.35830  0.21810  0.99890  Biso   1.000  C
  H7       1.0000 0.46720  0.21920  0.00410  Biso   1.000  H
  H8       1.0000 0.32240  0.15040  0.96690  Biso   1.000  H
  C7       1.0000 0.88830  0.39300  0.87560  Biso   1.000  C
  H9       1.0000 0.80000  0.40990  0.90210  Biso   1.000  H
  H10      1.0000 0.85380  0.36250  0.81620  Biso   1.000  H
  C8       1.0000 0.97330  0.50060  0.86630  Biso   1.000  C
  C9       1.0000 0.41850  0.39170  0.92820  Biso   1.000  C
  H11      1.0000 0.38130  0.44180  0.87900  Biso   1.000  H
  H12      1.0000 0.50070  0.34850  0.91140  Biso   1.000  H
  C10      1.0000 0.47590  0.45920  0.01150  Biso   1.000  C
  Fe2      1.0000 0.64982  0.91598  0.03243  Biso   1.000  Fe
  Na2      1.0000 0.25706  0.96918  0.17119  Biso   1.000  Na
  O9       1.0000 0.26190  0.77560  0.10880  Biso   1.000  O
  O10      1.0000 0.44130  0.89430  0.08625  Biso   1.000  O
  O11      1.0000 0.71800  0.77930  0.11365  Biso   1.000  O
  O12      1.0000 0.58910  0.02340  0.92495  Biso   1.000  O
  O13      1.0000 0.87960  0.97650  0.06390  Biso   1.000  O
  O14      1.0000 0.42300  0.06370  0.80383  Biso   1.000  O
  O15      1.0000 0.88110  0.64100  0.14528  Biso   1.000  O
  O16      1.0000 0.10480  0.99630  0.02336  Biso   1.000  O
  N3       1.0000 0.47870  0.80680  0.93105  Biso   1.000  N
  N4       1.0000 0.79640  0.81550  0.94373  Biso   1.000  N
  C11      1.0000 0.55690  0.73090  0.87590  Biso   1.000  C
  H13      1.0000 0.49150  0.71590  0.81930  Biso   1.000  H
  H14      1.0000 0.57850  0.66050  0.90710  Biso   1.000  H
  C12      1.0000 0.70230  0.78230  0.85790  Biso   1.000  C
  H15      1.0000 0.75650  0.72880  0.82710  Biso   1.000  H
  H16      1.0000 0.68030  0.84740  0.81960  Biso   1.000  H
  C13      1.0000 0.38540  0.74210  0.98450  Biso   1.000  C
  H17      1.0000 0.43540  0.67220  0.00350  Biso   1.000  H
  H18      1.0000 0.28910  0.72480  0.94780  Biso   1.000  H
  C14      1.0000 0.36000  0.80830  0.06640  Biso   1.000  C
  C15      1.0000 0.81880  0.71200  0.09320  Biso   1.000  C
  C16      1.0000 0.85830  0.71810  0.99890  Biso   1.000  C
  H19      1.0000 0.96720  0.71920  0.00410  Biso   1.000  H
  H20      1.0000 0.82240  0.65040  0.96690  Biso   1.000  H
  C17      1.0000 0.38830  0.89300  0.87560  Biso   1.000  C
  H21      1.0000 0.30000  0.90990  0.90210  Biso   1.000  H
  H22      1.0000 0.35380  0.86250  0.81620  Biso   1.000  H
  C18      1.0000 0.47330  0.00060  0.86630  Biso   1.000  C
  C19      1.0000 0.91850  0.89170  0.92820  Biso   1.000  C
  H23      1.0000 0.88130  0.94180  0.87900  Biso   1.000  H
  H24      1.0000 0.00070  0.84850  0.91140  Biso   1.000  H
  C20      1.0000 0.97590  0.95920  0.01150  Biso   1.000  C
  Fe3      1.0000 0.14982  0.58402  0.53243  Biso   1.000  Fe
  Na3      1.0000 0.75706  0.53082  0.67119  Biso   1.000  Na
  O17      1.0000 0.76190  0.72440  0.60880  Biso   1.000  O
  O18      1.0000 0.94130  0.60570  0.58625  Biso   1.000  O
  O19      1.0000 0.21800  0.72070  0.61365  Biso   1.000  O
  O20      1.0000 0.08910  0.47660  0.42495  Biso   1.000  O
  O21      1.0000 0.37960  0.52350  0.56390  Biso   1.000  O
  O22      1.0000 0.92300  0.43630  0.30383  Biso   1.000  O
  O23      1.0000 0.38110  0.85900  0.64528  Biso   1.000  O
  O24      1.0000 0.60480  0.50370  0.52336  Biso   1.000  O
  N5       1.0000 0.97870  0.69320  0.43105  Biso   1.000  N
  N6       1.0000 0.29640  0.68450  0.44373  Biso   1.000  N
  C21      1.0000 0.05690  0.76910  0.37590  Biso   1.000  C
  H25      1.0000 0.99150  0.78410  0.31930  Biso   1.000  H
  H26      1.0000 0.07850  0.83950  0.40710  Biso   1.000  H
  C22      1.0000 0.20230  0.71770  0.35790  Biso   1.000  C
  H27      1.0000 0.25650  0.77120  0.32710  Biso   1.000  H
  H28      1.0000 0.18030  0.65260  0.31960  Biso   1.000  H
  C23      1.0000 0.88540  0.75790  0.48450  Biso   1.000  C
  H29      1.0000 0.93540  0.82780  0.50350  Biso   1.000  H
  H30      1.0000 0.78910  0.77520  0.44780  Biso   1.000  H
  C24      1.0000 0.86000  0.69170  0.56640  Biso   1.000  C
  C25      1.0000 0.31880  0.78800  0.59320  Biso   1.000  C
  C26      1.0000 0.35830  0.78190  0.49890  Biso   1.000  C
  H31      1.0000 0.46720  0.78080  0.50410  Biso   1.000  H
  H32      1.0000 0.32240  0.84960  0.46690  Biso   1.000  H
  C27      1.0000 0.88830  0.60700  0.37560  Biso   1.000  C
  H33      1.0000 0.80000  0.59010  0.40210  Biso   1.000  H
  H34      1.0000 0.85380  0.63750  0.31620  Biso   1.000  H
  C28      1.0000 0.97330  0.49940  0.36630  Biso   1.000  C
  C29      1.0000 0.41850  0.60830  0.42820  Biso   1.000  C
  H35      1.0000 0.38130  0.55820  0.37900  Biso   1.000  H
  H36      1.0000 0.50070  0.65150  0.41140  Biso   1.000  H
  C30      1.0000 0.47590  0.54080  0.51150  Biso   1.000  C
  Fe4      1.0000 0.64982  0.08402  0.53243  Biso   1.000  Fe
  Na4      1.0000 0.25706  0.03082  0.67119  Biso   1.000  Na
  O25      1.0000 0.26190  0.22440  0.60880  Biso   1.000  O
  O26      1.0000 0.44130  0.10570  0.58625  Biso   1.000  O
  O27      1.0000 0.71800  0.22070  0.61365  Biso   1.000  O
  O28      1.0000 0.58910  0.97660  0.42495  Biso   1.000  O
  O29      1.0000 0.87960  0.02350  0.56390  Biso   1.000  O
  O30      1.0000 0.42300  0.93630  0.30383  Biso   1.000  O
  O31      1.0000 0.88110  0.35900  0.64528  Biso   1.000  O
  O32      1.0000 0.10480  0.00370  0.52336  Biso   1.000  O
  N7       1.0000 0.47870  0.19320  0.43105  Biso   1.000  N
  N8       1.0000 0.79640  0.18450  0.44373  Biso   1.000  N
  C31      1.0000 0.55690  0.26910  0.37590  Biso   1.000  C
  H37      1.0000 0.49150  0.28410  0.31930  Biso   1.000  H
  H38      1.0000 0.57850  0.33950  0.40710  Biso   1.000  H
  C32      1.0000 0.70230  0.21770  0.35790  Biso   1.000  C
  H39      1.0000 0.75650  0.27120  0.32710  Biso   1.000  H
  H40      1.0000 0.68030  0.15260  0.31960  Biso   1.000  H
  C33      1.0000 0.38540  0.25790  0.48450  Biso   1.000  C
  H41      1.0000 0.43540  0.32780  0.50350  Biso   1.000  H
  H42      1.0000 0.28910  0.27520  0.44780  Biso   1.000  H
  C34      1.0000 0.36000  0.19170  0.56640  Biso   1.000  C
  C35      1.0000 0.81880  0.28800  0.59320  Biso   1.000  C
  C36      1.0000 0.85830  0.28190  0.49890  Biso   1.000  C
  H43      1.0000 0.96720  0.28080  0.50410  Biso   1.000  H
  H44      1.0000 0.82240  0.34960  0.46690  Biso   1.000  H
  C37      1.0000 0.38830  0.10700  0.37560  Biso   1.000  C
  H45      1.0000 0.30000  0.09010  0.40210  Biso   1.000  H
  H46      1.0000 0.35380  0.13750  0.31620  Biso   1.000  H
  C38      1.0000 0.47330  0.99940  0.36630  Biso   1.000  C
  C39      1.0000 0.91850  0.10830  0.42820  Biso   1.000  C
  H47      1.0000 0.88130  0.05820  0.37900  Biso   1.000  H
  H48      1.0000 0.00070  0.15150  0.41140  Biso   1.000  H
  C40      1.0000 0.97590  0.04080  0.51150  Biso   1.000  C
