data_image0
_cell_length_a       12.8563
_cell_length_b       12.8563
_cell_length_c       12.8563
_cell_angle_alpha    90
_cell_angle_beta     90
_cell_angle_gamma    90

_symmetry_space_group_name_H-M    "P 1"
_symmetry_int_tables_number       1

loop_
  _symmetry_equiv_pos_as_xyz
  'x, y, z'

loop_
  _atom_site_label
  _atom_site_occupancy
  _atom_site_fract_x
  _atom_site_fract_y
  _atom_site_fract_z
  _atom_site_thermal_displace_type
  _atom_site_B_iso_or_equiv
  _atom_site_type_symbol
  N1       1.0000 0.72420  0.48120  0.03350  Biso   1.000  N
  N2       1.0000 0.64190  0.43920  0.04460  Biso   1.000  N
  N3       1.0000 0.80690  0.51590  0.02700  Biso   1.000  N
  N4       1.0000 0.77580  0.51880  0.53350  Biso   1.000  N
  N5       1.0000 0.85810  0.56080  0.54460  Biso   1.000  N
  N6       1.0000 0.69310  0.48410  0.52700  Biso   1.000  N
  N7       1.0000 0.27580  0.98120  0.46650  Biso   1.000  N
  N8       1.0000 0.35810  0.93920  0.45540  Biso   1.000  N
  N9       1.0000 0.19310  0.01590  0.47300  Biso   1.000  N
  N10      1.0000 0.22420  0.01880  0.96650  Biso   1.000  N
  N11      1.0000 0.14190  0.06080  0.95540  Biso   1.000  N
  N12      1.0000 0.30690  0.98410  0.97300  Biso   1.000  N
  N13      1.0000 0.03350  0.72420  0.48120  Biso   1.000  N
  N14      1.0000 0.04460  0.64190  0.43920  Biso   1.000  N
  N15      1.0000 0.02700  0.80690  0.51590  Biso   1.000  N
  N16      1.0000 0.53350  0.77580  0.51880  Biso   1.000  N
  N17      1.0000 0.54460  0.85810  0.56080  Biso   1.000  N
  N18      1.0000 0.52700  0.69310  0.48410  Biso   1.000  N
  N19      1.0000 0.46650  0.27580  0.98120  Biso   1.000  N
  N20      1.0000 0.45540  0.35810  0.93920  Biso   1.000  N
  N21      1.0000 0.47300  0.19310  0.01590  Biso   1.000  N
  N22      1.0000 0.96650  0.22420  0.01880  Biso   1.000  N
  N23      1.0000 0.95540  0.14190  0.06080  Biso   1.000  N
  N24      1.0000 0.97300  0.30690  0.98410  Biso   1.000  N
  N25      1.0000 0.48120  0.03350  0.72420  Biso   1.000  N
  N26      1.0000 0.43920  0.04460  0.64190  Biso   1.000  N
  N27      1.0000 0.51590  0.02700  0.80690  Biso   1.000  N
  N28      1.0000 0.51880  0.53350  0.77580  Biso   1.000  N
  N29      1.0000 0.56080  0.54460  0.85810  Biso   1.000  N
  N30      1.0000 0.48410  0.52700  0.69310  Biso   1.000  N
  N31      1.0000 0.98120  0.46650  0.27580  Biso   1.000  N
  N32      1.0000 0.93920  0.45540  0.35810  Biso   1.000  N
  N33      1.0000 0.01590  0.47300  0.19310  Biso   1.000  N
  N34      1.0000 0.01880  0.96650  0.22420  Biso   1.000  N
  N35      1.0000 0.06080  0.95540  0.14190  Biso   1.000  N
  N36      1.0000 0.98410  0.97300  0.30690  Biso   1.000  N
  N37      1.0000 0.27580  0.51880  0.96650  Biso   1.000  N
  N38      1.0000 0.35810  0.56080  0.95540  Biso   1.000  N
  N39      1.0000 0.19310  0.48410  0.97300  Biso   1.000  N
  N40      1.0000 0.22420  0.48120  0.46650  Biso   1.000  N
  N41      1.0000 0.14190  0.43920  0.45540  Biso   1.000  N
  N42      1.0000 0.30690  0.51590  0.47300  Biso   1.000  N
  N43      1.0000 0.72420  0.01880  0.53350  Biso   1.000  N
  N44      1.0000 0.64190  0.06080  0.54460  Biso   1.000  N
  N45      1.0000 0.80690  0.98410  0.52700  Biso   1.000  N
  N46      1.0000 0.77580  0.98120  0.03350  Biso   1.000  N
  N47      1.0000 0.85810  0.93920  0.04460  Biso   1.000  N
  N48      1.0000 0.69310  0.01590  0.02700  Biso   1.000  N
  N49      1.0000 0.96650  0.27580  0.51880  Biso   1.000  N
  N50      1.0000 0.95540  0.35810  0.56080  Biso   1.000  N
  N51      1.0000 0.97300  0.19310  0.48410  Biso   1.000  N
  N52      1.0000 0.46650  0.22420  0.48120  Biso   1.000  N
  N53      1.0000 0.45540  0.14190  0.43920  Biso   1.000  N
  N54      1.0000 0.47300  0.30690  0.51590  Biso   1.000  N
  N55      1.0000 0.53350  0.72420  0.01880  Biso   1.000  N
  N56      1.0000 0.54460  0.64190  0.06080  Biso   1.000  N
  N57      1.0000 0.52700  0.80690  0.98410  Biso   1.000  N
  N58      1.0000 0.03350  0.77580  0.98120  Biso   1.000  N
  N59      1.0000 0.04460  0.85810  0.93920  Biso   1.000  N
  N60      1.0000 0.02700  0.69310  0.01590  Biso   1.000  N
  N61      1.0000 0.51880  0.96650  0.27580  Biso   1.000  N
  N62      1.0000 0.56080  0.95540  0.35810  Biso   1.000  N
  N63      1.0000 0.48410  0.97300  0.19310  Biso   1.000  N
  N64      1.0000 0.48120  0.46650  0.22420  Biso   1.000  N
  N65      1.0000 0.43920  0.45540  0.14190  Biso   1.000  N
  N66      1.0000 0.51590  0.47300  0.30690  Biso   1.000  N
  N67      1.0000 0.01880  0.53350  0.72420  Biso   1.000  N
  N68      1.0000 0.06080  0.54460  0.64190  Biso   1.000  N
  N69      1.0000 0.98410  0.52700  0.80690  Biso   1.000  N
  N70      1.0000 0.98120  0.03350  0.77580  Biso   1.000  N
  N71      1.0000 0.93920  0.04460  0.85810  Biso   1.000  N
  N72      1.0000 0.01590  0.02700  0.69310  Biso   1.000  N
  Ru1      1.0000 0.50000  0.50000  0.00000  Biso   1.000  Ru
  Ru2      1.0000 0.00000  0.50000  0.50000  Biso   1.000  Ru
  Ru3      1.0000 0.50000  0.00000  0.50000  Biso   1.000  Ru
  Ru4      1.0000 0.00000  0.00000  0.00000  Biso   1.000  Ru
  Na1      1.0000 0.00000  0.50000  0.00000  Biso   1.000  Na
  Na2      1.0000 0.50000  0.50000  0.50000  Biso   1.000  Na
  Na3      1.0000 0.00000  0.00000  0.50000  Biso   1.000  Na
  Na4      1.0000 0.50000  0.00000  0.00000  Biso   1.000  Na
