data_image0
_cell_length_a       14.71
_cell_length_b       13.074
_cell_length_c       15.261
_cell_angle_alpha    90
_cell_angle_beta     111.04
_cell_angle_gamma    90

_symmetry_space_group_name_H-M    "P 1"
_symmetry_int_tables_number       1

loop_
  _symmetry_equiv_pos_as_xyz
  'x, y, z'

loop_
  _atom_site_label
  _atom_site_occupancy
  _atom_site_fract_x
  _atom_site_fract_y
  _atom_site_fract_z
  _atom_site_thermal_displace_type
  _atom_site_B_iso_or_equiv
  _atom_site_type_symbol
  Al1      1.0000 0.25026  0.62905  0.58198  Biso   1.000  Al
  Al2      1.0000 0.08357  0.39527  0.66327  Biso   1.000  Al
  Al3      1.0000 0.87562  0.69070  0.62320  Biso   1.000  Al
  P1       1.0000 0.09202  0.63458  0.67058  Biso   1.000  P
  P2       1.0000 0.24583  0.38831  0.57898  Biso   1.000  P
  P3       1.0000 0.12278  0.68508  0.37194  Biso   1.000  P
  O1       1.0000 0.06370  0.52660  0.63570  Biso   1.000  O
  O2       1.0000 0.27950  0.49440  0.61270  Biso   1.000  O
  O3       1.0000 0.17290  0.34830  0.62090  Biso   1.000  O
  O4       1.0000 0.16150  0.67930  0.62930  Biso   1.000  O
  O5       1.0000 0.00130  0.70240  0.64060  Biso   1.000  O
  O6       1.0000 0.20850  0.64350  0.45420  Biso   1.000  O
  O7       1.0000 0.12120  0.62670  0.28560  Biso   1.000  O
  O8       1.0000 0.33510  0.31970  0.60890  Biso   1.000  O
  O9       1.0000 0.19780  0.38780  0.47260  Biso   1.000  O
  O10      1.0000 0.13590  0.79970  0.36240  Biso   1.000  O
  O11      1.0000 0.14010  0.63160  0.77700  Biso   1.000  O
  O12      1.0000 0.02760  0.67050  0.38810  Biso   1.000  O
  Al4      1.0000 0.75026  0.12905  0.58198  Biso   1.000  Al
  Al5      1.0000 0.58357  0.89527  0.66327  Biso   1.000  Al
  Al6      1.0000 0.37562  0.19070  0.62320  Biso   1.000  Al
  P4       1.0000 0.59202  0.13458  0.67058  Biso   1.000  P
  P5       1.0000 0.74583  0.88831  0.57898  Biso   1.000  P
  P6       1.0000 0.62278  0.18508  0.37194  Biso   1.000  P
  O13      1.0000 0.56370  0.02660  0.63570  Biso   1.000  O
  O14      1.0000 0.77950  0.99440  0.61270  Biso   1.000  O
  O15      1.0000 0.67290  0.84830  0.62090  Biso   1.000  O
  O16      1.0000 0.66150  0.17930  0.62930  Biso   1.000  O
  O17      1.0000 0.50130  0.20240  0.64060  Biso   1.000  O
  O18      1.0000 0.70850  0.14350  0.45420  Biso   1.000  O
  O19      1.0000 0.62120  0.12670  0.28560  Biso   1.000  O
  O20      1.0000 0.83510  0.81970  0.60890  Biso   1.000  O
  O21      1.0000 0.69780  0.88780  0.47260  Biso   1.000  O
  O22      1.0000 0.63590  0.29970  0.36240  Biso   1.000  O
  O23      1.0000 0.64010  0.13160  0.77700  Biso   1.000  O
  O24      1.0000 0.52760  0.17050  0.38810  Biso   1.000  O
  Al7      1.0000 0.74974  0.62905  0.91802  Biso   1.000  Al
  Al8      1.0000 0.91643  0.39527  0.83673  Biso   1.000  Al
  Al9      1.0000 0.12438  0.69070  0.87680  Biso   1.000  Al
  P7       1.0000 0.90798  0.63458  0.82942  Biso   1.000  P
  P8       1.0000 0.75417  0.38831  0.92102  Biso   1.000  P
  P9       1.0000 0.87722  0.68508  0.12806  Biso   1.000  P
  O25      1.0000 0.93630  0.52660  0.86430  Biso   1.000  O
  O26      1.0000 0.72050  0.49440  0.88730  Biso   1.000  O
  O27      1.0000 0.82710  0.34830  0.87910  Biso   1.000  O
  O28      1.0000 0.83850  0.67930  0.87070  Biso   1.000  O
  O29      1.0000 0.99870  0.70240  0.85940  Biso   1.000  O
  O30      1.0000 0.79150  0.64350  0.04580  Biso   1.000  O
  O31      1.0000 0.87880  0.62670  0.21440  Biso   1.000  O
  O32      1.0000 0.66490  0.31970  0.89110  Biso   1.000  O
  O33      1.0000 0.80220  0.38780  0.02740  Biso   1.000  O
  O34      1.0000 0.86410  0.79970  0.13760  Biso   1.000  O
  O35      1.0000 0.85990  0.63160  0.72300  Biso   1.000  O
  O36      1.0000 0.97240  0.67050  0.11190  Biso   1.000  O
  Al10     1.0000 0.24974  0.12905  0.91802  Biso   1.000  Al
  Al11     1.0000 0.41643  0.89527  0.83673  Biso   1.000  Al
  Al12     1.0000 0.62438  0.19070  0.87680  Biso   1.000  Al
  P10      1.0000 0.40798  0.13458  0.82942  Biso   1.000  P
  P11      1.0000 0.25417  0.88831  0.92102  Biso   1.000  P
  P12      1.0000 0.37722  0.18508  0.12806  Biso   1.000  P
  O37      1.0000 0.43630  0.02660  0.86430  Biso   1.000  O
  O38      1.0000 0.22050  0.99440  0.88730  Biso   1.000  O
  O39      1.0000 0.32710  0.84830  0.87910  Biso   1.000  O
  O40      1.0000 0.33850  0.17930  0.87070  Biso   1.000  O
  O41      1.0000 0.49870  0.20240  0.85940  Biso   1.000  O
  O42      1.0000 0.29150  0.14350  0.04580  Biso   1.000  O
  O43      1.0000 0.37880  0.12670  0.21440  Biso   1.000  O
  O44      1.0000 0.16490  0.81970  0.89110  Biso   1.000  O
  O45      1.0000 0.30220  0.88780  0.02740  Biso   1.000  O
  O46      1.0000 0.36410  0.29970  0.13760  Biso   1.000  O
  O47      1.0000 0.35990  0.13160  0.72300  Biso   1.000  O
  O48      1.0000 0.47240  0.17050  0.11190  Biso   1.000  O
  Al13     1.0000 0.74974  0.37095  0.41802  Biso   1.000  Al
  Al14     1.0000 0.91643  0.60473  0.33673  Biso   1.000  Al
  Al15     1.0000 0.12438  0.30930  0.37680  Biso   1.000  Al
  P13      1.0000 0.90798  0.36542  0.32942  Biso   1.000  P
  P14      1.0000 0.75417  0.61169  0.42102  Biso   1.000  P
  P15      1.0000 0.87722  0.31492  0.62806  Biso   1.000  P
  O49      1.0000 0.93630  0.47340  0.36430  Biso   1.000  O
  O50      1.0000 0.72050  0.50560  0.38730  Biso   1.000  O
  O51      1.0000 0.82710  0.65170  0.37910  Biso   1.000  O
  O52      1.0000 0.83850  0.32070  0.37070  Biso   1.000  O
  O53      1.0000 0.99870  0.29760  0.35940  Biso   1.000  O
  O54      1.0000 0.79150  0.35650  0.54580  Biso   1.000  O
  O55      1.0000 0.87880  0.37330  0.71440  Biso   1.000  O
  O56      1.0000 0.66490  0.68030  0.39110  Biso   1.000  O
  O57      1.0000 0.80220  0.61220  0.52740  Biso   1.000  O
  O58      1.0000 0.86410  0.20030  0.63760  Biso   1.000  O
  O59      1.0000 0.85990  0.36840  0.22300  Biso   1.000  O
  O60      1.0000 0.97240  0.32950  0.61190  Biso   1.000  O
  Al16     1.0000 0.24974  0.87095  0.41802  Biso   1.000  Al
  Al17     1.0000 0.41643  0.10473  0.33673  Biso   1.000  Al
  Al18     1.0000 0.62438  0.80930  0.37680  Biso   1.000  Al
  P16      1.0000 0.40798  0.86542  0.32942  Biso   1.000  P
  P17      1.0000 0.25417  0.11169  0.42102  Biso   1.000  P
  P18      1.0000 0.37722  0.81492  0.62806  Biso   1.000  P
  O61      1.0000 0.43630  0.97340  0.36430  Biso   1.000  O
  O62      1.0000 0.22050  0.00560  0.38730  Biso   1.000  O
  O63      1.0000 0.32710  0.15170  0.37910  Biso   1.000  O
  O64      1.0000 0.33850  0.82070  0.37070  Biso   1.000  O
  O65      1.0000 0.49870  0.79760  0.35940  Biso   1.000  O
  O66      1.0000 0.29150  0.85650  0.54580  Biso   1.000  O
  O67      1.0000 0.37880  0.87330  0.71440  Biso   1.000  O
  O68      1.0000 0.16490  0.18030  0.39110  Biso   1.000  O
  O69      1.0000 0.30220  0.11220  0.52740  Biso   1.000  O
  O70      1.0000 0.36410  0.70030  0.63760  Biso   1.000  O
  O71      1.0000 0.35990  0.86840  0.22300  Biso   1.000  O
  O72      1.0000 0.47240  0.82950  0.61190  Biso   1.000  O
  Al19     1.0000 0.25026  0.37095  0.08198  Biso   1.000  Al
  Al20     1.0000 0.08357  0.60473  0.16327  Biso   1.000  Al
  Al21     1.0000 0.87562  0.30930  0.12320  Biso   1.000  Al
  P19      1.0000 0.09202  0.36542  0.17058  Biso   1.000  P
  P20      1.0000 0.24583  0.61169  0.07898  Biso   1.000  P
  P21      1.0000 0.12278  0.31492  0.87194  Biso   1.000  P
  O73      1.0000 0.06370  0.47340  0.13570  Biso   1.000  O
  O74      1.0000 0.27950  0.50560  0.11270  Biso   1.000  O
  O75      1.0000 0.17290  0.65170  0.12090  Biso   1.000  O
  O76      1.0000 0.16150  0.32070  0.12930  Biso   1.000  O
  O77      1.0000 0.00130  0.29760  0.14060  Biso   1.000  O
  O78      1.0000 0.20850  0.35650  0.95420  Biso   1.000  O
  O79      1.0000 0.12120  0.37330  0.78560  Biso   1.000  O
  O80      1.0000 0.33510  0.68030  0.10890  Biso   1.000  O
  O81      1.0000 0.19780  0.61220  0.97260  Biso   1.000  O
  O82      1.0000 0.13590  0.20030  0.86240  Biso   1.000  O
  O83      1.0000 0.14010  0.36840  0.27700  Biso   1.000  O
  O84      1.0000 0.02760  0.32950  0.88810  Biso   1.000  O
  Al22     1.0000 0.75026  0.87095  0.08198  Biso   1.000  Al
  Al23     1.0000 0.58357  0.10473  0.16327  Biso   1.000  Al
  Al24     1.0000 0.37562  0.80930  0.12320  Biso   1.000  Al
  P22      1.0000 0.59202  0.86542  0.17058  Biso   1.000  P
  P23      1.0000 0.74583  0.11169  0.07898  Biso   1.000  P
  P24      1.0000 0.62278  0.81492  0.87194  Biso   1.000  P
  O85      1.0000 0.56370  0.97340  0.13570  Biso   1.000  O
  O86      1.0000 0.77950  0.00560  0.11270  Biso   1.000  O
  O87      1.0000 0.67290  0.15170  0.12090  Biso   1.000  O
  O88      1.0000 0.66150  0.82070  0.12930  Biso   1.000  O
  O89      1.0000 0.50130  0.79760  0.14060  Biso   1.000  O
  O90      1.0000 0.70850  0.85650  0.95420  Biso   1.000  O
  O91      1.0000 0.62120  0.87330  0.78560  Biso   1.000  O
  O92      1.0000 0.83510  0.18030  0.10890  Biso   1.000  O
  O93      1.0000 0.69780  0.11220  0.97260  Biso   1.000  O
  O94      1.0000 0.63590  0.70030  0.86240  Biso   1.000  O
  O95      1.0000 0.64010  0.86840  0.27700  Biso   1.000  O
  O96      1.0000 0.52760  0.82950  0.88810  Biso   1.000  O
