data_image0
_cell_length_a       14.718
_cell_length_b       13.063
_cell_length_c       15.229
_cell_angle_alpha    90
_cell_angle_beta     110.92
_cell_angle_gamma    90

_symmetry_space_group_name_H-M    "P 1"
_symmetry_int_tables_number       1

loop_
  _symmetry_equiv_pos_as_xyz
  'x, y, z'

loop_
  _atom_site_label
  _atom_site_occupancy
  _atom_site_fract_x
  _atom_site_fract_y
  _atom_site_fract_z
  _atom_site_thermal_displace_type
  _atom_site_B_iso_or_equiv
  _atom_site_type_symbol
  Al1      1.0000 0.37526  0.19088  0.12366  Biso   1.000  Al
  Al2      1.0000 0.58341  0.89416  0.16313  Biso   1.000  Al
  Co1      1.0000 0.08341  0.39416  0.16313  Biso   1.000  Co
  Al3      1.0000 0.25080  0.87215  0.91873  Biso   1.000  Al
  Co2      1.0000 0.24920  0.62785  0.08127  Biso   1.000  Co
  P1       1.0000 0.25360  0.11202  0.92122  Biso   1.000  P
  P2       1.0000 0.59130  0.13319  0.17051  Biso   1.000  P
  P3       1.0000 0.37618  0.81418  0.12816  Biso   1.000  P
  O1       1.0000 0.56290  0.02550  0.13680  Biso   1.000  O
  O2       1.0000 0.22120  0.00620  0.88870  Biso   1.000  O
  O3       1.0000 0.50110  0.20090  0.14040  Biso   1.000  O
  O4       1.0000 0.29250  0.85710  0.04660  Biso   1.000  O
  O5       1.0000 0.66000  0.17600  0.12700  Biso   1.000  O
  O6       1.0000 0.32680  0.15160  0.87980  Biso   1.000  O
  O7       1.0000 0.30040  0.11390  0.02760  Biso   1.000  O
  O8       1.0000 0.47360  0.82730  0.11380  Biso   1.000  O
  O9       1.0000 0.36210  0.69940  0.13660  Biso   1.000  O
  O10      1.0000 0.64070  0.13100  0.27700  Biso   1.000  O
  O11      1.0000 0.37650  0.87080  0.21480  Biso   1.000  O
  O12      1.0000 0.16500  0.17940  0.89080  Biso   1.000  O
  Al4      1.0000 0.87526  0.69088  0.12366  Biso   1.000  Al
  Al5      1.0000 0.75080  0.37215  0.91873  Biso   1.000  Al
  Co3      1.0000 0.74920  0.12785  0.08127  Biso   1.000  Co
  P4       1.0000 0.75360  0.61202  0.92122  Biso   1.000  P
  P5       1.0000 0.09130  0.63319  0.17051  Biso   1.000  P
  P6       1.0000 0.87618  0.31418  0.12816  Biso   1.000  P
  O13      1.0000 0.06290  0.52550  0.13680  Biso   1.000  O
  O14      1.0000 0.72120  0.50620  0.88870  Biso   1.000  O
  O15      1.0000 0.00110  0.70090  0.14040  Biso   1.000  O
  O16      1.0000 0.79250  0.35710  0.04660  Biso   1.000  O
  O17      1.0000 0.16000  0.67600  0.12700  Biso   1.000  O
  O18      1.0000 0.82680  0.65160  0.87980  Biso   1.000  O
  O19      1.0000 0.80040  0.61390  0.02760  Biso   1.000  O
  O20      1.0000 0.97360  0.32730  0.11380  Biso   1.000  O
  O21      1.0000 0.86210  0.19940  0.13660  Biso   1.000  O
  O22      1.0000 0.14070  0.63100  0.27700  Biso   1.000  O
  O23      1.0000 0.87650  0.37080  0.21480  Biso   1.000  O
  O24      1.0000 0.66500  0.67940  0.89080  Biso   1.000  O
  Al6      1.0000 0.62474  0.19088  0.37634  Biso   1.000  Al
  Al7      1.0000 0.41659  0.89416  0.33687  Biso   1.000  Al
  Co4      1.0000 0.91659  0.39416  0.33687  Biso   1.000  Co
  Al8      1.0000 0.74920  0.87215  0.58127  Biso   1.000  Al
  Co5      1.0000 0.75080  0.62785  0.41873  Biso   1.000  Co
  P7       1.0000 0.74640  0.11202  0.57878  Biso   1.000  P
  P8       1.0000 0.40870  0.13319  0.32949  Biso   1.000  P
  P9       1.0000 0.62382  0.81418  0.37184  Biso   1.000  P
  O25      1.0000 0.43710  0.02550  0.36320  Biso   1.000  O
  O26      1.0000 0.77880  0.00620  0.61130  Biso   1.000  O
  O27      1.0000 0.49890  0.20090  0.35960  Biso   1.000  O
  O28      1.0000 0.70750  0.85710  0.45340  Biso   1.000  O
  O29      1.0000 0.34000  0.17600  0.37300  Biso   1.000  O
  O30      1.0000 0.67320  0.15160  0.62020  Biso   1.000  O
  O31      1.0000 0.69960  0.11390  0.47240  Biso   1.000  O
  O32      1.0000 0.52640  0.82730  0.38620  Biso   1.000  O
  O33      1.0000 0.63790  0.69940  0.36340  Biso   1.000  O
  O34      1.0000 0.35930  0.13100  0.22300  Biso   1.000  O
  O35      1.0000 0.62350  0.87080  0.28520  Biso   1.000  O
  O36      1.0000 0.83500  0.17940  0.60920  Biso   1.000  O
  Al9      1.0000 0.12474  0.69088  0.37634  Biso   1.000  Al
  Al10     1.0000 0.24920  0.37215  0.58127  Biso   1.000  Al
  Co6      1.0000 0.25080  0.12785  0.41873  Biso   1.000  Co
  P10      1.0000 0.24640  0.61202  0.57878  Biso   1.000  P
  P11      1.0000 0.90870  0.63319  0.32949  Biso   1.000  P
  P12      1.0000 0.12382  0.31418  0.37184  Biso   1.000  P
  O37      1.0000 0.93710  0.52550  0.36320  Biso   1.000  O
  O38      1.0000 0.27880  0.50620  0.61130  Biso   1.000  O
  O39      1.0000 0.99890  0.70090  0.35960  Biso   1.000  O
  O40      1.0000 0.20750  0.35710  0.45340  Biso   1.000  O
  O41      1.0000 0.84000  0.67600  0.37300  Biso   1.000  O
  O42      1.0000 0.17320  0.65160  0.62020  Biso   1.000  O
  O43      1.0000 0.19960  0.61390  0.47240  Biso   1.000  O
  O44      1.0000 0.02640  0.32730  0.38620  Biso   1.000  O
  O45      1.0000 0.13790  0.19940  0.36340  Biso   1.000  O
  O46      1.0000 0.85930  0.63100  0.22300  Biso   1.000  O
  O47      1.0000 0.12350  0.37080  0.28520  Biso   1.000  O
  O48      1.0000 0.33500  0.67940  0.60920  Biso   1.000  O
  Al11     1.0000 0.62474  0.80912  0.87634  Biso   1.000  Al
  Al12     1.0000 0.41659  0.10584  0.83687  Biso   1.000  Al
  Co7      1.0000 0.91659  0.60584  0.83687  Biso   1.000  Co
  P13      1.0000 0.74640  0.88798  0.07878  Biso   1.000  P
  P14      1.0000 0.40870  0.86681  0.82949  Biso   1.000  P
  P15      1.0000 0.62382  0.18582  0.87184  Biso   1.000  P
  O49      1.0000 0.43710  0.97450  0.86320  Biso   1.000  O
  O50      1.0000 0.77880  0.99380  0.11130  Biso   1.000  O
  O51      1.0000 0.49890  0.79910  0.85960  Biso   1.000  O
  O52      1.0000 0.70750  0.14290  0.95340  Biso   1.000  O
  O53      1.0000 0.34000  0.82400  0.87300  Biso   1.000  O
  O54      1.0000 0.67320  0.84840  0.12020  Biso   1.000  O
  O55      1.0000 0.69960  0.88610  0.97240  Biso   1.000  O
  O56      1.0000 0.52640  0.17270  0.88620  Biso   1.000  O
  O57      1.0000 0.63790  0.30060  0.86340  Biso   1.000  O
  O58      1.0000 0.35930  0.86900  0.72300  Biso   1.000  O
  O59      1.0000 0.62350  0.12920  0.78520  Biso   1.000  O
  O60      1.0000 0.83500  0.82060  0.10920  Biso   1.000  O
  Al13     1.0000 0.12474  0.30912  0.87634  Biso   1.000  Al
  P16      1.0000 0.24640  0.38798  0.07878  Biso   1.000  P
  P17      1.0000 0.90870  0.36681  0.82949  Biso   1.000  P
  P18      1.0000 0.12382  0.68582  0.87184  Biso   1.000  P
  O61      1.0000 0.93710  0.47450  0.86320  Biso   1.000  O
  O62      1.0000 0.27880  0.49380  0.11130  Biso   1.000  O
  O63      1.0000 0.99890  0.29910  0.85960  Biso   1.000  O
  O64      1.0000 0.20750  0.64290  0.95340  Biso   1.000  O
  O65      1.0000 0.84000  0.32400  0.87300  Biso   1.000  O
  O66      1.0000 0.17320  0.34840  0.12020  Biso   1.000  O
  O67      1.0000 0.19960  0.38610  0.97240  Biso   1.000  O
  O68      1.0000 0.02640  0.67270  0.88620  Biso   1.000  O
  O69      1.0000 0.13790  0.80060  0.86340  Biso   1.000  O
  O70      1.0000 0.85930  0.36900  0.72300  Biso   1.000  O
  O71      1.0000 0.12350  0.62920  0.78520  Biso   1.000  O
  O72      1.0000 0.33500  0.32060  0.10920  Biso   1.000  O
  Al14     1.0000 0.37526  0.80912  0.62366  Biso   1.000  Al
  Al15     1.0000 0.58341  0.10584  0.66313  Biso   1.000  Al
  Co8      1.0000 0.08341  0.60584  0.66313  Biso   1.000  Co
  P19      1.0000 0.25360  0.88798  0.42122  Biso   1.000  P
  P20      1.0000 0.59130  0.86681  0.67051  Biso   1.000  P
  P21      1.0000 0.37618  0.18582  0.62816  Biso   1.000  P
  O73      1.0000 0.56290  0.97450  0.63680  Biso   1.000  O
  O74      1.0000 0.22120  0.99380  0.38870  Biso   1.000  O
  O75      1.0000 0.50110  0.79910  0.64040  Biso   1.000  O
  O76      1.0000 0.29250  0.14290  0.54660  Biso   1.000  O
  O77      1.0000 0.66000  0.82400  0.62700  Biso   1.000  O
  O78      1.0000 0.32680  0.84840  0.37980  Biso   1.000  O
  O79      1.0000 0.30040  0.88610  0.52760  Biso   1.000  O
  O80      1.0000 0.47360  0.17270  0.61380  Biso   1.000  O
  O81      1.0000 0.36210  0.30060  0.63660  Biso   1.000  O
  O82      1.0000 0.64070  0.86900  0.77700  Biso   1.000  O
  O83      1.0000 0.37650  0.12920  0.71480  Biso   1.000  O
  O84      1.0000 0.16500  0.82060  0.39080  Biso   1.000  O
  Al16     1.0000 0.87526  0.30912  0.62366  Biso   1.000  Al
  P22      1.0000 0.75360  0.38798  0.42122  Biso   1.000  P
  P23      1.0000 0.09130  0.36681  0.67051  Biso   1.000  P
  P24      1.0000 0.87618  0.68582  0.62816  Biso   1.000  P
  O85      1.0000 0.06290  0.47450  0.63680  Biso   1.000  O
  O86      1.0000 0.72120  0.49380  0.38870  Biso   1.000  O
  O87      1.0000 0.00110  0.29910  0.64040  Biso   1.000  O
  O88      1.0000 0.79250  0.64290  0.54660  Biso   1.000  O
  O89      1.0000 0.16000  0.32400  0.62700  Biso   1.000  O
  O90      1.0000 0.82680  0.34840  0.37980  Biso   1.000  O
  O91      1.0000 0.80040  0.38610  0.52760  Biso   1.000  O
  O92      1.0000 0.97360  0.67270  0.61380  Biso   1.000  O
  O93      1.0000 0.86210  0.80060  0.63660  Biso   1.000  O
  O94      1.0000 0.14070  0.36900  0.77700  Biso   1.000  O
  O95      1.0000 0.87650  0.62920  0.71480  Biso   1.000  O
  O96      1.0000 0.66500  0.32060  0.39080  Biso   1.000  O
