data_image0
_cell_length_a       16.2893
_cell_length_b       16.7991
_cell_length_c       17.4829
_cell_angle_alpha    86.419
_cell_angle_beta     87.725
_cell_angle_gamma    66.905

_symmetry_space_group_name_H-M    "P 1"
_symmetry_int_tables_number       1

loop_
  _symmetry_equiv_pos_as_xyz
  'x, y, z'

loop_
  _atom_site_label
  _atom_site_occupancy
  _atom_site_fract_x
  _atom_site_fract_y
  _atom_site_fract_z
  _atom_site_thermal_displace_type
  _atom_site_B_iso_or_equiv
  _atom_site_type_symbol
  Ag1      1.0000 0.77904  0.07106  0.14922  Biso   1.000  Ag
  Ag2      1.0000 0.60357  0.29885  0.20186  Biso   1.000  Ag
  Ag3      1.0000 0.73149  0.09990  0.39054  Biso   1.000  Ag
  S1       1.0000 0.72035  0.22555  0.10260  Biso   1.000  S
  S2       1.0000 0.84658  0.04202  0.27879  Biso   1.000  S
  S3       1.0000 0.59986  0.19271  0.30620  Biso   1.000  S
  P1       1.0000 0.77354  0.12101  0.51875  Biso   1.000  P
  P2       1.0000 0.71244  0.95407  0.42098  Biso   1.000  P
  P3       1.0000 0.81842  0.95392  0.06126  Biso   1.000  P
  P4       1.0000 0.49932  0.44823  0.19426  Biso   1.000  P
  C1       1.0000 0.69369  0.10307  0.58670  Biso   1.000  C
  C2       1.0000 0.60358  0.15000  0.57268  Biso   1.000  C
  H1       1.0000 0.58630  0.19040  0.52990  Biso   1.000  H
  C3       1.0000 0.53853  0.13842  0.62056  Biso   1.000  C
  H2       1.0000 0.47720  0.17160  0.61100  Biso   1.000  H
  C4       1.0000 0.56302  0.07889  0.68172  Biso   1.000  C
  H3       1.0000 0.51850  0.07040  0.71390  Biso   1.000  H
  C5       1.0000 0.65235  0.03138  0.69645  Biso   1.000  C
  H4       1.0000 0.66900  0.99050  0.73890  Biso   1.000  H
  C6       1.0000 0.71821  0.04325  0.64903  Biso   1.000  C
  H5       1.0000 0.77950  0.01060  0.65930  Biso   1.000  H
  C7       1.0000 0.77962  0.21932  0.55417  Biso   1.000  C
  C8       1.0000 0.77609  0.28703  0.50335  Biso   1.000  C
  H6       1.0000 0.77090  0.28260  0.45000  Biso   1.000  H
  C9       1.0000 0.78020  0.36141  0.53010  Biso   1.000  C
  H7       1.0000 0.77720  0.40790  0.49500  Biso   1.000  H
  C10      1.0000 0.78848  0.36817  0.60714  Biso   1.000  C
  H8       1.0000 0.79150  0.41920  0.62510  Biso   1.000  H
  C11      1.0000 0.79241  0.30141  0.65797  Biso   1.000  C
  H9       1.0000 0.79820  0.30610  0.71120  Biso   1.000  H
  C12      1.0000 0.78790  0.22705  0.63201  Biso   1.000  C
  H10      1.0000 0.79050  0.18100  0.66750  Biso   1.000  H
  C13      1.0000 0.88143  0.03637  0.54631  Biso   1.000  C
  H11      1.0000 0.89740  0.04730  0.59760  Biso   1.000  H
  H12      1.0000 0.87650  0.97930  0.54960  Biso   1.000  H
  C14      1.0000 0.95502  0.03422  0.48829  Biso   1.000  C
  H13      1.0000 0.93970  0.02190  0.43730  Biso   1.000  H
  H14      1.0000 0.95880  0.09170  0.48400  Biso   1.000  H
  C15      1.0000 0.69201  0.90536  0.33670  Biso   1.000  C
  C16      1.0000 0.66090  0.95798  0.27039  Biso   1.000  C
  H15      1.0000 0.65230  0.01730  0.26950  Biso   1.000  H
  C17      1.0000 0.64239  0.92445  0.20565  Biso   1.000  C
  H16      1.0000 0.62110  0.96080  0.16090  Biso   1.000  H
  C18      1.0000 0.65493  0.83830  0.20650  Biso   1.000  C
  H17      1.0000 0.64230  0.81530  0.16220  Biso   1.000  H
  C19      1.0000 0.68578  0.78536  0.27148  Biso   1.000  C
  H18      1.0000 0.69440  0.72600  0.27190  Biso   1.000  H
  C20      1.0000 0.70432  0.81858  0.33631  Biso   1.000  C
  H19      1.0000 0.72560  0.78170  0.38080  Biso   1.000  H
  C21      1.0000 0.81580  0.87189  0.45894  Biso   1.000  C
  C22      1.0000 0.82305  0.83546  0.53345  Biso   1.000  C
  H20      1.0000 0.77110  0.84850  0.56500  Biso   1.000  H
  C23      1.0000 0.90516  0.78040  0.56199  Biso   1.000  C
  H21      1.0000 0.90920  0.75610  0.61290  Biso   1.000  H
  C24      1.0000 0.98145  0.76072  0.51635  Biso   1.000  C
  H22      1.0000 0.03780  0.72310  0.53600  Biso   1.000  H
  C25      1.0000 0.97532  0.79572  0.44289  Biso   1.000  C
  H23      1.0000 0.02760  0.78180  0.41160  Biso   1.000  H
  C26      1.0000 0.89347  0.85137  0.41361  Biso   1.000  C
  H24      1.0000 0.89020  0.87560  0.36270  Biso   1.000  H
  C27      1.0000 0.62855  0.94507  0.49083  Biso   1.000  C
  H25      1.0000 0.63310  0.88440  0.49440  Biso   1.000  H
  H26      1.0000 0.64180  0.95910  0.54190  Biso   1.000  H
  C28      1.0000 0.53351  0.00473  0.46996  Biso   1.000  C
  H27      1.0000 0.51940  0.99050  0.41930  Biso   1.000  H
  H28      1.0000 0.52840  0.06550  0.46630  Biso   1.000  H
  C29      1.0000 0.73681  0.93906  0.00140  Biso   1.000  C
  C30      1.0000 0.68076  0.01046  0.95835  Biso   1.000  C
  H29      1.0000 0.68650  0.06440  0.96040  Biso   1.000  H
  C31      1.0000 0.61669  0.00415  0.91242  Biso   1.000  C
  H30      1.0000 0.57860  0.05380  0.88350  Biso   1.000  H
  C32      1.0000 0.60765  0.92670  0.90831  Biso   1.000  C
  H31      1.0000 0.56340  0.92250  0.87680  Biso   1.000  H
  C33      1.0000 0.66360  0.85470  0.95050  Biso   1.000  C
  H32      1.0000 0.65810  0.80070  0.94730  Biso   1.000  H
  C34      1.0000 0.72765  0.86037  0.99721  Biso   1.000  C
  H33      1.0000 0.76530  0.81070  0.02640  Biso   1.000  H
  C35      1.0000 0.88497  0.84596  0.10150  Biso   1.000  C
  C36      1.0000 0.88045  0.83058  0.17996  Biso   1.000  C
  H34      1.0000 0.84330  0.87590  0.21090  Biso   1.000  H
  C37      1.0000 0.92940  0.74980  0.21383  Biso   1.000  C
  H35      1.0000 0.92560  0.74010  0.26770  Biso   1.000  H
  C38      1.0000 0.98349  0.68382  0.16987  Biso   1.000  C
  H36      1.0000 0.01670  0.62840  0.19330  Biso   1.000  H
  C39      1.0000 0.98960  0.69797  0.09174  Biso   1.000  C
  H37      1.0000 0.02720  0.65240  0.06130  Biso   1.000  H
  C40      1.0000 0.94088  0.77868  0.05770  Biso   1.000  C
  H38      1.0000 0.94560  0.78830  0.00390  Biso   1.000  H
  C41      1.0000 0.89364  0.97598  0.98968  Biso   1.000  C
  H39      1.0000 0.91900  0.92680  0.95570  Biso   1.000  H
  H40      1.0000 0.85960  0.02860  0.95770  Biso   1.000  H
  C42      1.0000 0.96925  0.98905  0.02900  Biso   1.000  C
  H41      1.0000 0.94360  0.03660  0.06470  Biso   1.000  H
  H42      1.0000 0.00450  0.93550  0.05940  Biso   1.000  H
  C43      1.0000 0.50785  0.51368  0.26999  Biso   1.000  C
  C44      1.0000 0.43795  0.55457  0.32052  Biso   1.000  C
  H43      1.0000 0.38280  0.54820  0.31670  Biso   1.000  H
  C45      1.0000 0.44850  0.60440  0.37623  Biso   1.000  C
  H44      1.0000 0.40020  0.63230  0.41030  Biso   1.000  H
  C46      1.0000 0.52720  0.61396  0.38299  Biso   1.000  C
  H45      1.0000 0.53330  0.64940  0.42080  Biso   1.000  H
  C47      1.0000 0.59840  0.57170  0.33435  Biso   1.000  C
  H46      1.0000 0.65360  0.57740  0.33940  Biso   1.000  H
  C48      1.0000 0.58896  0.52111  0.27830  Biso   1.000  C
  H47      1.0000 0.63810  0.49150  0.24560  Biso   1.000  H
  C49      1.0000 0.38250  0.46276  0.19258  Biso   1.000  C
  C50      1.0000 0.36084  0.39265  0.21336  Biso   1.000  C
  H48      1.0000 0.40610  0.33920  0.23040  Biso   1.000  H
  C51      1.0000 0.27320  0.39990  0.20940  Biso   1.000  C
  H49      1.0000 0.25860  0.35160  0.22440  Biso   1.000  H
  C52      1.0000 0.20740  0.47670  0.18400  Biso   1.000  C
  H50      1.0000 0.14780  0.48100  0.18050  Biso   1.000  H
  C53      1.0000 0.22787  0.54730  0.16350  Biso   1.000  C
  H51      1.0000 0.18230  0.60060  0.14680  Biso   1.000  H
  C54      1.0000 0.31486  0.54027  0.16740  Biso   1.000  C
  H52      1.0000 0.32890  0.58890  0.15270  Biso   1.000  H
  C55      1.0000 0.51045  0.51171  0.10832  Biso   1.000  C
  H53      1.0000 0.46480  0.57150  0.11020  Biso   1.000  H
  H54      1.0000 0.57000  0.51480  0.10740  Biso   1.000  H
  C56      1.0000 0.49937  0.47190  0.03573  Biso   1.000  C
  H55      1.0000 0.44210  0.46410  0.03880  Biso   1.000  H
  H56      1.0000 0.54820  0.41400  0.03180  Biso   1.000  H
  C57      1.0000 0.67253  0.23017  0.01231  Biso   1.000  C
  C58      1.0000 0.58782  0.22834  0.00450  Biso   1.000  C
  C59      1.0000 0.55350  0.23483  0.93147  Biso   1.000  C
  H57      1.0000 0.49510  0.23600  0.92680  Biso   1.000  H
  C60      1.0000 0.60180  0.23962  0.86562  Biso   1.000  C
  C61      1.0000 0.68620  0.23799  0.87418  Biso   1.000  C
  H58      1.0000 0.72080  0.23950  0.82940  Biso   1.000  H
  C62      1.0000 0.72310  0.23428  0.94538  Biso   1.000  C
  C63      1.0000 0.53379  0.21650  0.07236  Biso   1.000  C
  H59      1.0000 0.57170  0.16850  0.10620  Biso   1.000  H
  H60      1.0000 0.48420  0.20350  0.05490  Biso   1.000  H
  H61      1.0000 0.51010  0.26990  0.10040  Biso   1.000  H
  C64      1.0000 0.56120  0.24700  0.78757  Biso   1.000  C
  H62      1.0000 0.52450  0.21250  0.78880  Biso   1.000  H
  H63      1.0000 0.60900  0.22530  0.74900  Biso   1.000  H
  H64      1.0000 0.52390  0.30780  0.77450  Biso   1.000  H
  C65      1.0000 0.81430  0.23430  0.94980  Biso   1.000  C
  H65      1.0000 0.81010  0.28910  0.96980  Biso   1.000  H
  H66      1.0000 0.84190  0.22810  0.89850  Biso   1.000  H
  H67      1.0000 0.85070  0.18590  0.98400  Biso   1.000  H
  C66      1.0000 0.93346  0.07984  0.26062  Biso   1.000  C
  C67      1.0000 0.91918  0.16758  0.26411  Biso   1.000  C
  C68      1.0000 0.98957  0.19360  0.24809  Biso   1.000  C
  H68      1.0000 0.97940  0.25300  0.25120  Biso   1.000  H
  C69      1.0000 0.07424  0.13560  0.22764  Biso   1.000  C
  C70      1.0000 0.08714  0.04950  0.22404  Biso   1.000  C
  H69      1.0000 0.14450  0.00910  0.20950  Biso   1.000  H
  C71      1.0000 0.01974  0.01966  0.24078  Biso   1.000  C
  C72      1.0000 0.82849  0.23466  0.28271  Biso   1.000  C
  H70      1.0000 0.78670  0.23800  0.24260  Biso   1.000  H
  H71      1.0000 0.83240  0.29120  0.28550  Biso   1.000  H
  H72      1.0000 0.80720  0.21850  0.33210  Biso   1.000  H
  C73      1.0000 0.15000  0.16510  0.21040  Biso   1.000  C
  H73      1.0000 0.12560  0.22630  0.19290  Biso   1.000  H
  H74      1.0000 0.18890  0.13040  0.17020  Biso   1.000  H
  H75      1.0000 0.18450  0.15760  0.25690  Biso   1.000  H
  C74      1.0000 0.03857  0.92529  0.23659  Biso   1.000  C
  H76      1.0000 0.03090  0.90130  0.28760  Biso   1.000  H
  H77      1.0000 0.10000  0.89470  0.21830  Biso   1.000  H
  H78      1.0000 0.99710  0.91820  0.20110  Biso   1.000  H
  C75      1.0000 0.49736  0.24707  0.35550  Biso   1.000  C
  C76      1.0000 0.48504  0.31777  0.40044  Biso   1.000  C
  C77      1.0000 0.40161  0.36182  0.43395  Biso   1.000  C
  H79      1.0000 0.39290  0.41090  0.46250  Biso   1.000  H
  C78      1.0000 0.33130  0.33670  0.42710  Biso   1.000  C
  C79      1.0000 0.34498  0.26688  0.38244  Biso   1.000  C
  H80      1.0000 0.29700  0.24910  0.37670  Biso   1.000  H
  C80      1.0000 0.42541  0.22222  0.34611  Biso   1.000  C
  C81      1.0000 0.55956  0.34594  0.41228  Biso   1.000  C
  H81      1.0000 0.60630  0.30050  0.44210  Biso   1.000  H
  H82      1.0000 0.53700  0.39950  0.44000  Biso   1.000  H
  H83      1.0000 0.58430  0.35630  0.36240  Biso   1.000  H
  C82      1.0000 0.24200  0.38490  0.46580  Biso   1.000  C
  H84      1.0000 0.25140  0.40880  0.51290  Biso   1.000  H
  H85      1.0000 0.21240  0.34500  0.47850  Biso   1.000  H
  H86      1.0000 0.20460  0.43220  0.43110  Biso   1.000  H
  C83      1.0000 0.43340  0.15129  0.29481  Biso   1.000  C
  H87      1.0000 0.44590  0.16740  0.24210  Biso   1.000  H
  H88      1.0000 0.37730  0.14250  0.29650  Biso   1.000  H
  H89      1.0000 0.48210  0.09760  0.31220  Biso   1.000  H
  Ag4      1.0000 0.22096  0.92894  0.85078  Biso   1.000  Ag
  Ag5      1.0000 0.39643  0.70115  0.79814  Biso   1.000  Ag
  Ag6      1.0000 0.26851  0.90010  0.60946  Biso   1.000  Ag
  S4       1.0000 0.27965  0.77445  0.89740  Biso   1.000  S
  S5       1.0000 0.15342  0.95798  0.72121  Biso   1.000  S
  S6       1.0000 0.40014  0.80729  0.69380  Biso   1.000  S
  P5       1.0000 0.22646  0.87899  0.48125  Biso   1.000  P
  P6       1.0000 0.28756  0.04593  0.57902  Biso   1.000  P
  P7       1.0000 0.18158  0.04608  0.93874  Biso   1.000  P
  P8       1.0000 0.50068  0.55177  0.80574  Biso   1.000  P
  C84      1.0000 0.30631  0.89693  0.41330  Biso   1.000  C
  C85      1.0000 0.39642  0.85000  0.42732  Biso   1.000  C
  H90      1.0000 0.41370  0.80960  0.47010  Biso   1.000  H
  C86      1.0000 0.46147  0.86158  0.37944  Biso   1.000  C
  H91      1.0000 0.52280  0.82840  0.38900  Biso   1.000  H
  C87      1.0000 0.43698  0.92111  0.31828  Biso   1.000  C
  H92      1.0000 0.48150  0.92960  0.28610  Biso   1.000  H
  C88      1.0000 0.34765  0.96862  0.30355  Biso   1.000  C
  H93      1.0000 0.33100  0.00950  0.26110  Biso   1.000  H
  C89      1.0000 0.28179  0.95675  0.35097  Biso   1.000  C
  H94      1.0000 0.22050  0.98940  0.34070  Biso   1.000  H
  C90      1.0000 0.22038  0.78068  0.44583  Biso   1.000  C
  C91      1.0000 0.22391  0.71297  0.49665  Biso   1.000  C
  H95      1.0000 0.22910  0.71740  0.55000  Biso   1.000  H
  C92      1.0000 0.21980  0.63859  0.46990  Biso   1.000  C
  H96      1.0000 0.22280  0.59210  0.50500  Biso   1.000  H
  C93      1.0000 0.21152  0.63183  0.39286  Biso   1.000  C
  H97      1.0000 0.20850  0.58080  0.37490  Biso   1.000  H
  C94      1.0000 0.20759  0.69859  0.34203  Biso   1.000  C
  H98      1.0000 0.20180  0.69390  0.28880  Biso   1.000  H
  C95      1.0000 0.21210  0.77295  0.36799  Biso   1.000  C
  H99      1.0000 0.20950  0.81900  0.33250  Biso   1.000  H
  C96      1.0000 0.11857  0.96363  0.45369  Biso   1.000  C
  H100     1.0000 0.10260  0.95270  0.40240  Biso   1.000  H
  H101     1.0000 0.12350  0.02070  0.45040  Biso   1.000  H
  C97      1.0000 0.04498  0.96578  0.51171  Biso   1.000  C
  H102     1.0000 0.06030  0.97810  0.56270  Biso   1.000  H
  H103     1.0000 0.04120  0.90830  0.51600  Biso   1.000  H
  C98      1.0000 0.30799  0.09464  0.66330  Biso   1.000  C
  C99      1.0000 0.33910  0.04202  0.72961  Biso   1.000  C
  H104     1.0000 0.34770  0.98270  0.73050  Biso   1.000  H
  C100     1.0000 0.35761  0.07555  0.79435  Biso   1.000  C
  H105     1.0000 0.37890  0.03920  0.83910  Biso   1.000  H
  C101     1.0000 0.34507  0.16170  0.79350  Biso   1.000  C
  H106     1.0000 0.35770  0.18470  0.83780  Biso   1.000  H
  C102     1.0000 0.31422  0.21464  0.72852  Biso   1.000  C
  H107     1.0000 0.30560  0.27400  0.72810  Biso   1.000  H
  C103     1.0000 0.29568  0.18142  0.66369  Biso   1.000  C
  H108     1.0000 0.27440  0.21830  0.61920  Biso   1.000  H
  C104     1.0000 0.18420  0.12811  0.54106  Biso   1.000  C
  C105     1.0000 0.17695  0.16454  0.46655  Biso   1.000  C
  H109     1.0000 0.22890  0.15150  0.43500  Biso   1.000  H
  C106     1.0000 0.09484  0.21960  0.43801  Biso   1.000  C
  H110     1.0000 0.09080  0.24390  0.38710  Biso   1.000  H
  C107     1.0000 0.01855  0.23928  0.48365  Biso   1.000  C
  H111     1.0000 0.96220  0.27690  0.46400  Biso   1.000  H
  C108     1.0000 0.02468  0.20428  0.55711  Biso   1.000  C
  H112     1.0000 0.97240  0.21820  0.58840  Biso   1.000  H
  C109     1.0000 0.10653  0.14863  0.58639  Biso   1.000  C
  H113     1.0000 0.10980  0.12440  0.63730  Biso   1.000  H
  C110     1.0000 0.37145  0.05493  0.50917  Biso   1.000  C
  H114     1.0000 0.36690  0.11560  0.50560  Biso   1.000  H
  H115     1.0000 0.35820  0.04090  0.45810  Biso   1.000  H
  C111     1.0000 0.46649  0.99527  0.53004  Biso   1.000  C
  H116     1.0000 0.48060  0.00950  0.58070  Biso   1.000  H
  H117     1.0000 0.47160  0.93450  0.53370  Biso   1.000  H
  C112     1.0000 0.26319  0.06094  0.99860  Biso   1.000  C
  C113     1.0000 0.31924  0.98954  0.04165  Biso   1.000  C
  H118     1.0000 0.31350  0.93560  0.03960  Biso   1.000  H
  C114     1.0000 0.38331  0.99585  0.08758  Biso   1.000  C
  H119     1.0000 0.42140  0.94620  0.11650  Biso   1.000  H
  C115     1.0000 0.39235  0.07330  0.09169  Biso   1.000  C
  H120     1.0000 0.43660  0.07750  0.12320  Biso   1.000  H
  C116     1.0000 0.33640  0.14530  0.04950  Biso   1.000  C
  H121     1.0000 0.34190  0.19930  0.05270  Biso   1.000  H
  C117     1.0000 0.27235  0.13963  0.00279  Biso   1.000  C
  H122     1.0000 0.23470  0.18930  0.97360  Biso   1.000  H
  C118     1.0000 0.11503  0.15404  0.89850  Biso   1.000  C
  C119     1.0000 0.11955  0.16942  0.82004  Biso   1.000  C
  H123     1.0000 0.15670  0.12410  0.78910  Biso   1.000  H
  C120     1.0000 0.07060  0.25020  0.78617  Biso   1.000  C
  H124     1.0000 0.07440  0.25990  0.73230  Biso   1.000  H
  C121     1.0000 0.01651  0.31618  0.83013  Biso   1.000  C
  H125     1.0000 0.98330  0.37160  0.80670  Biso   1.000  H
  C122     1.0000 0.01040  0.30203  0.90826  Biso   1.000  C
  H126     1.0000 0.97280  0.34760  0.93870  Biso   1.000  H
  C123     1.0000 0.05912  0.22132  0.94230  Biso   1.000  C
  H127     1.0000 0.05440  0.21170  0.99610  Biso   1.000  H
  C124     1.0000 0.10636  0.02402  0.01032  Biso   1.000  C
  H128     1.0000 0.08100  0.07320  0.04430  Biso   1.000  H
  H129     1.0000 0.14040  0.97140  0.04230  Biso   1.000  H
  C125     1.0000 0.03075  0.01095  0.97100  Biso   1.000  C
  H130     1.0000 0.05640  0.96340  0.93530  Biso   1.000  H
  H131     1.0000 0.99550  0.06450  0.94060  Biso   1.000  H
  C126     1.0000 0.49215  0.48632  0.73001  Biso   1.000  C
  C127     1.0000 0.56205  0.44543  0.67948  Biso   1.000  C
  H132     1.0000 0.61720  0.45180  0.68330  Biso   1.000  H
  C128     1.0000 0.55150  0.39560  0.62377  Biso   1.000  C
  H133     1.0000 0.59980  0.36770  0.58970  Biso   1.000  H
  C129     1.0000 0.47280  0.38604  0.61701  Biso   1.000  C
  H134     1.0000 0.46670  0.35060  0.57920  Biso   1.000  H
  C130     1.0000 0.40160  0.42830  0.66565  Biso   1.000  C
  H135     1.0000 0.34640  0.42260  0.66060  Biso   1.000  H
  C131     1.0000 0.41104  0.47889  0.72170  Biso   1.000  C
  H136     1.0000 0.36190  0.50850  0.75440  Biso   1.000  H
  C132     1.0000 0.61750  0.53724  0.80742  Biso   1.000  C
  C133     1.0000 0.63916  0.60735  0.78664  Biso   1.000  C
  H137     1.0000 0.59390  0.66080  0.76960  Biso   1.000  H
  C134     1.0000 0.72680  0.60010  0.79060  Biso   1.000  C
  H138     1.0000 0.74140  0.64840  0.77560  Biso   1.000  H
  C135     1.0000 0.79260  0.52330  0.81600  Biso   1.000  C
  H139     1.0000 0.85220  0.51900  0.81950  Biso   1.000  H
  C136     1.0000 0.77213  0.45270  0.83650  Biso   1.000  C
  H140     1.0000 0.81770  0.39940  0.85320  Biso   1.000  H
  C137     1.0000 0.68514  0.45973  0.83260  Biso   1.000  C
  H141     1.0000 0.67110  0.41110  0.84730  Biso   1.000  H
  C138     1.0000 0.48955  0.48829  0.89168  Biso   1.000  C
  H142     1.0000 0.53520  0.42850  0.88980  Biso   1.000  H
  H143     1.0000 0.43000  0.48520  0.89260  Biso   1.000  H
  C139     1.0000 0.50063  0.52810  0.96427  Biso   1.000  C
  H144     1.0000 0.55790  0.53590  0.96120  Biso   1.000  H
  H145     1.0000 0.45180  0.58600  0.96820  Biso   1.000  H
  C140     1.0000 0.32747  0.76983  0.98769  Biso   1.000  C
  C141     1.0000 0.41218  0.77166  0.99550  Biso   1.000  C
  C142     1.0000 0.44650  0.76517  0.06853  Biso   1.000  C
  H146     1.0000 0.50490  0.76400  0.07320  Biso   1.000  H
  C143     1.0000 0.39820  0.76038  0.13438  Biso   1.000  C
  C144     1.0000 0.31380  0.76201  0.12582  Biso   1.000  C
  H147     1.0000 0.27920  0.76050  0.17060  Biso   1.000  H
  C145     1.0000 0.27690  0.76572  0.05462  Biso   1.000  C
  C146     1.0000 0.46621  0.78350  0.92764  Biso   1.000  C
  H148     1.0000 0.42830  0.83150  0.89380  Biso   1.000  H
  H149     1.0000 0.51580  0.79650  0.94510  Biso   1.000  H
  H150     1.0000 0.48990  0.73010  0.89960  Biso   1.000  H
  C147     1.0000 0.43880  0.75300  0.21243  Biso   1.000  C
  H151     1.0000 0.47550  0.78750  0.21120  Biso   1.000  H
  H152     1.0000 0.39100  0.77470  0.25100  Biso   1.000  H
  H153     1.0000 0.47610  0.69220  0.22550  Biso   1.000  H
  C148     1.0000 0.18570  0.76570  0.05020  Biso   1.000  C
  H154     1.0000 0.18990  0.71090  0.03020  Biso   1.000  H
  H155     1.0000 0.15810  0.77190  0.10150  Biso   1.000  H
  H156     1.0000 0.14930  0.81410  0.01600  Biso   1.000  H
  C149     1.0000 0.06654  0.92016  0.73938  Biso   1.000  C
  C150     1.0000 0.08082  0.83242  0.73589  Biso   1.000  C
  C151     1.0000 0.01043  0.80640  0.75191  Biso   1.000  C
  H157     1.0000 0.02060  0.74700  0.74880  Biso   1.000  H
  C152     1.0000 0.92576  0.86440  0.77236  Biso   1.000  C
  C153     1.0000 0.91286  0.95050  0.77596  Biso   1.000  C
  H158     1.0000 0.85550  0.99090  0.79050  Biso   1.000  H
  C154     1.0000 0.98026  0.98034  0.75922  Biso   1.000  C
  C155     1.0000 0.17151  0.76534  0.71729  Biso   1.000  C
  H159     1.0000 0.21330  0.76200  0.75740  Biso   1.000  H
  H160     1.0000 0.16760  0.70880  0.71450  Biso   1.000  H
  H161     1.0000 0.19280  0.78150  0.66790  Biso   1.000  H
  C156     1.0000 0.85000  0.83490  0.78960  Biso   1.000  C
  H162     1.0000 0.87440  0.77370  0.80710  Biso   1.000  H
  H163     1.0000 0.81110  0.86960  0.82980  Biso   1.000  H
  H164     1.0000 0.81550  0.84240  0.74310  Biso   1.000  H
  C157     1.0000 0.96143  0.07471  0.76341  Biso   1.000  C
  H165     1.0000 0.96910  0.09870  0.71240  Biso   1.000  H
  H166     1.0000 0.90000  0.10530  0.78170  Biso   1.000  H
  H167     1.0000 0.00290  0.08180  0.79890  Biso   1.000  H
  C158     1.0000 0.50264  0.75293  0.64450  Biso   1.000  C
  C159     1.0000 0.51496  0.68223  0.59956  Biso   1.000  C
  C160     1.0000 0.59839  0.63818  0.56605  Biso   1.000  C
  H168     1.0000 0.60710  0.58910  0.53750  Biso   1.000  H
  C161     1.0000 0.66870  0.66330  0.57290  Biso   1.000  C
  C162     1.0000 0.65502  0.73312  0.61756  Biso   1.000  C
  H169     1.0000 0.70300  0.75090  0.62330  Biso   1.000  H
  C163     1.0000 0.57459  0.77778  0.65389  Biso   1.000  C
  C164     1.0000 0.44044  0.65406  0.58772  Biso   1.000  C
  H170     1.0000 0.39370  0.69950  0.55790  Biso   1.000  H
  H171     1.0000 0.46300  0.60050  0.56000  Biso   1.000  H
  H172     1.0000 0.41570  0.64370  0.63760  Biso   1.000  H
  C165     1.0000 0.75800  0.61510  0.53420  Biso   1.000  C
  H173     1.0000 0.74860  0.59120  0.48710  Biso   1.000  H
  H174     1.0000 0.78760  0.65500  0.52150  Biso   1.000  H
  H175     1.0000 0.79540  0.56780  0.56890  Biso   1.000  H
  C166     1.0000 0.56660  0.84871  0.70519  Biso   1.000  C
  H176     1.0000 0.55410  0.83260  0.75790  Biso   1.000  H
  H177     1.0000 0.62270  0.85750  0.70350  Biso   1.000  H
  H178     1.0000 0.51790  0.90240  0.68780  Biso   1.000  H
