data_YONNUL_clean
_audit_creation_date              2014-07-02
_audit_creation_method            'Materials Studio'
_symmetry_space_group_name_H-M    'P1'
_symmetry_Int_Tables_number       1
_symmetry_cell_setting            triclinic
loop_
_symmetry_equiv_pos_as_xyz
  x,y,z
_cell_length_a                    13.9966
_cell_length_b                    13.9966
_cell_length_c                    30.5210
_cell_angle_alpha                 85.0828
_cell_angle_beta                  85.0828
_cell_angle_gamma                 88.5208
loop_
_atom_site_label
_atom_site_type_symbol
_atom_site_fract_x
_atom_site_fract_y
_atom_site_fract_z
_atom_site_U_iso_or_equiv
_atom_site_adp_type
_atom_site_occupancy
Zn1    Zn    0.60187   0.19503   0.53120   0.01267  Uiso   1.00
Zn2    Zn    0.81153   0.19571   0.51458   0.01267  Uiso   1.00
Zn3    Zn    0.19503   0.60187   0.03120   0.01267  Uiso   1.00
Zn4    Zn    0.19571   0.81153   0.01458   0.01267  Uiso   1.00
H1     H     0.83190   0.68910   0.71740   0.01267  Uiso   1.00
H2     H     0.80440   0.77380   0.74710   0.01267  Uiso   1.00
H3     H     0.56870   0.82290   0.67070   0.01267  Uiso   1.00
H4     H     0.57670   0.94050   0.61510   0.01267  Uiso   1.00
H5     H     0.86160   0.94720   0.61600   0.01267  Uiso   1.00
H6     H     0.85540   0.82720   0.67240   0.01267  Uiso   1.00
H7     H     0.81590   0.57190   0.82500   0.01267  Uiso   1.00
H8     H     0.88220   0.58320   0.78050   0.01267  Uiso   1.00
H9     H     0.95130   0.55450   0.85750   0.01267  Uiso   1.00
H10    H     0.03690   0.56330   0.91770   0.01267  Uiso   1.00
H11    H     0.01240   0.84960   0.90610   0.01267  Uiso   1.00
H12    H     0.92540   0.84240   0.84570   0.01267  Uiso   1.00
H13    H     0.69560   0.75040   0.81400   0.01267  Uiso   1.00
H14    H     0.61500   0.71040   0.78790   0.01267  Uiso   1.00
H15    H     0.54450   0.78270   0.84890   0.01267  Uiso   1.00
H16    H     0.42540   0.81280   0.90290   0.01267  Uiso   1.00
H17    H     0.45880   0.54360   0.95860   0.01267  Uiso   1.00
H18    H     0.58390   0.51770   0.90590   0.01267  Uiso   1.00
H19    H     0.65060   0.57800   0.73980   0.01267  Uiso   1.00
H20    H     0.68390   0.51170   0.78020   0.01267  Uiso   1.00
H21    H     0.89210   0.44510   0.67310   0.01267  Uiso   1.00
H22    H     0.86340   0.35240   0.61690   0.01267  Uiso   1.00
H23    H     0.58180   0.36160   0.65310   0.01267  Uiso   1.00
H24    H     0.60820   0.45480   0.71000   0.01267  Uiso   1.00
H25    H     0.46040   0.12300   0.47510   0.01267  Uiso   1.00
H26    H     0.29830   0.12710   0.46790   0.01267  Uiso   1.00
H27    H     0.25950   0.26250   0.57910   0.01267  Uiso   1.00
H28    H     0.42120   0.25460   0.58310   0.01267  Uiso   1.00
H29    H     0.96170   0.32170   0.54100   0.01267  Uiso   1.00
H30    H     0.12370   0.32110   0.54640   0.01267  Uiso   1.00
H31    H     0.14680   0.07760   0.48700   0.01267  Uiso   1.00
H32    H     0.98280   0.08680   0.48130   0.01267  Uiso   1.00
H33    H     0.68910   0.83190   0.21740   0.01267  Uiso   1.00
H34    H     0.77380   0.80440   0.24710   0.01267  Uiso   1.00
H35    H     0.82290   0.56870   0.17070   0.01267  Uiso   1.00
H36    H     0.94050   0.57670   0.11510   0.01267  Uiso   1.00
H37    H     0.94720   0.86160   0.11600   0.01267  Uiso   1.00
H38    H     0.82720   0.85540   0.17240   0.01267  Uiso   1.00
H39    H     0.57190   0.81590   0.32500   0.01267  Uiso   1.00
H40    H     0.58320   0.88220   0.28050   0.01267  Uiso   1.00
H41    H     0.55450   0.95130   0.35750   0.01267  Uiso   1.00
H42    H     0.56330   0.03690   0.41770   0.01267  Uiso   1.00
H43    H     0.84960   0.01240   0.40610   0.01267  Uiso   1.00
H44    H     0.84240   0.92540   0.34570   0.01267  Uiso   1.00
H45    H     0.75040   0.69560   0.31400   0.01267  Uiso   1.00
H46    H     0.71040   0.61500   0.28790   0.01267  Uiso   1.00
H47    H     0.78270   0.54450   0.34890   0.01267  Uiso   1.00
H48    H     0.81280   0.42540   0.40290   0.01267  Uiso   1.00
H49    H     0.54360   0.45880   0.45860   0.01267  Uiso   1.00
H50    H     0.51770   0.58390   0.40590   0.01267  Uiso   1.00
H51    H     0.57800   0.65060   0.23980   0.01267  Uiso   1.00
H52    H     0.51170   0.68390   0.28020   0.01267  Uiso   1.00
H53    H     0.44510   0.89210   0.17310   0.01267  Uiso   1.00
H54    H     0.35240   0.86340   0.11690   0.01267  Uiso   1.00
H55    H     0.36160   0.58180   0.15310   0.01267  Uiso   1.00
H56    H     0.45480   0.60820   0.21000   0.01267  Uiso   1.00
H57    H     0.12300   0.46040   0.97510   0.01267  Uiso   1.00
H58    H     0.12710   0.29830   0.96790   0.01267  Uiso   1.00
H59    H     0.26250   0.25950   0.07910   0.01267  Uiso   1.00
H60    H     0.25460   0.42120   0.08310   0.01267  Uiso   1.00
H61    H     0.32170   0.96170   0.04100   0.01267  Uiso   1.00
H62    H     0.32110   0.12370   0.04640   0.01267  Uiso   1.00
H63    H     0.07760   0.14680   0.98700   0.01267  Uiso   1.00
H64    H     0.08680   0.98280   0.98130   0.01267  Uiso   1.00
C1     C     0.74710   0.64470   0.77423   0.01267  Uiso   1.00
C2     C     0.78060   0.71700   0.73592   0.01267  Uiso   1.00
C3     C     0.71180   0.81300   0.67761   0.01267  Uiso   1.00
C4     C     0.62770   0.84810   0.65990   0.01267  Uiso   1.00
C5     C     0.63300   0.91880   0.62710   0.01267  Uiso   1.00
C6     C     0.71880   0.96080   0.61037   0.01267  Uiso   1.00
C7     C     0.80250   0.92290   0.62750   0.01267  Uiso   1.00
C8     C     0.79910   0.85070   0.66100   0.01267  Uiso   1.00
C9     C     0.71940   0.04440   0.57694   0.01267  Uiso   1.00
C10    C     0.83420   0.61500   0.79930   0.01267  Uiso   1.00
C11    C     0.92620   0.69840   0.84605   0.01267  Uiso   1.00
C12    C     0.96270   0.61390   0.86750   0.01267  Uiso   1.00
C13    C     0.01490   0.61950   0.90310   0.01267  Uiso   1.00
C14    C     0.03600   0.70660   0.91775   0.01267  Uiso   1.00
C15    C     0.00040   0.79040   0.89620   0.01267  Uiso   1.00
C16    C     0.94730   0.78610   0.86030   0.01267  Uiso   1.00
C17    C     0.09310   0.71110   0.95655   0.01267  Uiso   1.00
C18    C     0.67080   0.69300   0.80380   0.01267  Uiso   1.00
C19    C     0.57510   0.64710   0.87134   0.01267  Uiso   1.00
C20    C     0.52760   0.73500   0.87110   0.01267  Uiso   1.00
C21    C     0.45580   0.75300   0.90320   0.01267  Uiso   1.00
C22    C     0.42870   0.68030   0.93667   0.01267  Uiso   1.00
C23    C     0.47650   0.59210   0.93690   0.01267  Uiso   1.00
C24    C     0.55060   0.57600   0.90490   0.01267  Uiso   1.00
C25    C     0.34530   0.69470   0.96948   0.01267  Uiso   1.00
C26    C     0.70510   0.55830   0.75618   0.01267  Uiso   1.00
C27    C     0.75350   0.46150   0.69648   0.01267  Uiso   1.00
C28    C     0.82960   0.42940   0.66890   0.01267  Uiso   1.00
C29    C     0.81230   0.37430   0.63510   0.01267  Uiso   1.00
C30    C     0.71960   0.35140   0.62815   0.01267  Uiso   1.00
C31    C     0.64370   0.37990   0.65688   0.01267  Uiso   1.00
C32    C     0.65930   0.43530   0.69104   0.01267  Uiso   1.00
C33    C     0.70260   0.29320   0.59041   0.01267  Uiso   1.00
C34    C     0.41930   0.15130   0.49610   0.01267  Uiso   1.00
C35    C     0.32180   0.15340   0.49170   0.01267  Uiso   1.00
C36    C     0.25900   0.19420   0.52249   0.01267  Uiso   1.00
C37    C     0.29870   0.23370   0.55765   0.01267  Uiso   1.00
C38    C     0.39580   0.22880   0.55963   0.01267  Uiso   1.00
C39    C     0.99940   0.27160   0.53030   0.01267  Uiso   1.00
C40    C     0.09660   0.27100   0.53380   0.01267  Uiso   1.00
C41    C     0.15480   0.19720   0.51880   0.01267  Uiso   1.00
C42    C     0.11070   0.12770   0.49860   0.01267  Uiso   1.00
C43    C     0.01130   0.13350   0.49550   0.01267  Uiso   1.00
C44    C     0.64470   0.74710   0.27423   0.01267  Uiso   1.00
C45    C     0.71700   0.78060   0.23592   0.01267  Uiso   1.00
C46    C     0.81300   0.71180   0.17761   0.01267  Uiso   1.00
C47    C     0.84810   0.62770   0.15990   0.01267  Uiso   1.00
C48    C     0.91880   0.63300   0.12710   0.01267  Uiso   1.00
C49    C     0.96080   0.71880   0.11037   0.01267  Uiso   1.00
C50    C     0.92290   0.80250   0.12750   0.01267  Uiso   1.00
C51    C     0.85070   0.79910   0.16100   0.01267  Uiso   1.00
C52    C     0.04440   0.71940   0.07694   0.01267  Uiso   1.00
C53    C     0.61500   0.83420   0.29930   0.01267  Uiso   1.00
C54    C     0.69840   0.92620   0.34605   0.01267  Uiso   1.00
C55    C     0.61390   0.96270   0.36750   0.01267  Uiso   1.00
C56    C     0.61950   0.01490   0.40310   0.01267  Uiso   1.00
C57    C     0.70660   0.03600   0.41775   0.01267  Uiso   1.00
C58    C     0.79040   0.00040   0.39620   0.01267  Uiso   1.00
C59    C     0.78610   0.94730   0.36030   0.01267  Uiso   1.00
C60    C     0.71110   0.09310   0.45655   0.01267  Uiso   1.00
C61    C     0.69300   0.67080   0.30380   0.01267  Uiso   1.00
C62    C     0.64710   0.57510   0.37134   0.01267  Uiso   1.00
C63    C     0.73500   0.52760   0.37110   0.01267  Uiso   1.00
C64    C     0.75300   0.45580   0.40320   0.01267  Uiso   1.00
C65    C     0.68030   0.42870   0.43667   0.01267  Uiso   1.00
C66    C     0.59210   0.47650   0.43690   0.01267  Uiso   1.00
C67    C     0.57600   0.55060   0.40490   0.01267  Uiso   1.00
C68    C     0.69470   0.34530   0.46948   0.01267  Uiso   1.00
C69    C     0.55830   0.70510   0.25618   0.01267  Uiso   1.00
C70    C     0.46150   0.75350   0.19648   0.01267  Uiso   1.00
C71    C     0.42940   0.82960   0.16890   0.01267  Uiso   1.00
C72    C     0.37430   0.81230   0.13510   0.01267  Uiso   1.00
C73    C     0.35140   0.71960   0.12815   0.01267  Uiso   1.00
C74    C     0.37990   0.64370   0.15688   0.01267  Uiso   1.00
C75    C     0.43530   0.65930   0.19104   0.01267  Uiso   1.00
C76    C     0.29320   0.70260   0.09041   0.01267  Uiso   1.00
C77    C     0.15130   0.41930   0.99610   0.01267  Uiso   1.00
C78    C     0.15340   0.32180   0.99170   0.01267  Uiso   1.00
C79    C     0.19420   0.25900   0.02249   0.01267  Uiso   1.00
C80    C     0.23370   0.29870   0.05765   0.01267  Uiso   1.00
C81    C     0.22880   0.39580   0.05963   0.01267  Uiso   1.00
C82    C     0.27160   0.99940   0.03030   0.01267  Uiso   1.00
C83    C     0.27100   0.09660   0.03380   0.01267  Uiso   1.00
C84    C     0.19720   0.15480   0.01880   0.01267  Uiso   1.00
C85    C     0.12770   0.11070   0.99860   0.01267  Uiso   1.00
C86    C     0.13350   0.01130   0.99550   0.01267  Uiso   1.00
N1     N     0.45660   0.18900   0.52984   0.01267  Uiso   1.00
N2     N     0.95710   0.20130   0.51179   0.01267  Uiso   1.00
N3     N     0.18900   0.45660   0.02984   0.01267  Uiso   1.00
N4     N     0.20130   0.95710   0.01179   0.01267  Uiso   1.00
O1     O     0.70020   0.74160   0.71106   0.01267  Uiso   1.00
O2     O     0.64100   0.07320   0.56455   0.01267  Uiso   1.00
O3     O     0.79890   0.08050   0.56273   0.01267  Uiso   1.00
O4     O     0.87080   0.70200   0.81216   0.01267  Uiso   1.00
O5     O     0.12870   0.63490   0.97312   0.01267  Uiso   1.00
O6     O     0.10320   0.79340   0.96989   0.01267  Uiso   1.00
O7     O     0.64570   0.62290   0.84100   0.01267  Uiso   1.00
O8     O     0.30730   0.77710   0.97008   0.01267  Uiso   1.00
O9     O     0.32030   0.62350   0.99505   0.01267  Uiso   1.00
O10    O     0.77870   0.51730   0.72786   0.01267  Uiso   1.00
O11    O     0.77530   0.27930   0.56392   0.01267  Uiso   1.00
O12    O     0.61940   0.26380   0.58685   0.01267  Uiso   1.00
O13    O     0.74160   0.70020   0.21106   0.01267  Uiso   1.00
O14    O     0.07320   0.64100   0.06455   0.01267  Uiso   1.00
O15    O     0.08050   0.79890   0.06273   0.01267  Uiso   1.00
O16    O     0.70200   0.87080   0.31216   0.01267  Uiso   1.00
O17    O     0.63490   0.12870   0.47312   0.01267  Uiso   1.00
O18    O     0.79340   0.10320   0.46989   0.01267  Uiso   1.00
O19    O     0.62290   0.64570   0.34100   0.01267  Uiso   1.00
O20    O     0.77710   0.30730   0.47008   0.01267  Uiso   1.00
O21    O     0.62350   0.32030   0.49505   0.01267  Uiso   1.00
O22    O     0.51730   0.77870   0.22786   0.01267  Uiso   1.00
O23    O     0.27930   0.77530   0.06392   0.01267  Uiso   1.00
O24    O     0.26380   0.61940   0.08685   0.01267  Uiso   1.00
Zn5    Zn    0.80497   0.39813   0.96880   0.01267  Uiso   1.00
Zn6    Zn    0.80429   0.18847   0.98542   0.01267  Uiso   1.00
Zn7    Zn    0.39813   0.80497   0.46880   0.01267  Uiso   1.00
Zn8    Zn    0.18847   0.80429   0.48542   0.01267  Uiso   1.00
H65    H     0.31090   0.16810   0.78260   0.01267  Uiso   1.00
H66    H     0.22620   0.19560   0.75290   0.01267  Uiso   1.00
H67    H     0.17710   0.43130   0.82930   0.01267  Uiso   1.00
H68    H     0.05950   0.42330   0.88490   0.01267  Uiso   1.00
H69    H     0.05280   0.13840   0.88400   0.01267  Uiso   1.00
H70    H     0.17280   0.14460   0.82760   0.01267  Uiso   1.00
H71    H     0.42810   0.18410   0.67500   0.01267  Uiso   1.00
H72    H     0.41680   0.11780   0.71950   0.01267  Uiso   1.00
H73    H     0.44550   0.04870   0.64250   0.01267  Uiso   1.00
H74    H     0.43670   0.96310   0.58230   0.01267  Uiso   1.00
H75    H     0.15040   0.98760   0.59390   0.01267  Uiso   1.00
H76    H     0.15760   0.07460   0.65430   0.01267  Uiso   1.00
H77    H     0.24960   0.30440   0.68600   0.01267  Uiso   1.00
H78    H     0.28960   0.38500   0.71210   0.01267  Uiso   1.00
H79    H     0.21730   0.45550   0.65110   0.01267  Uiso   1.00
H80    H     0.18720   0.57460   0.59710   0.01267  Uiso   1.00
H81    H     0.45640   0.54120   0.54140   0.01267  Uiso   1.00
H82    H     0.48230   0.41610   0.59410   0.01267  Uiso   1.00
H83    H     0.42200   0.34940   0.76020   0.01267  Uiso   1.00
H84    H     0.48830   0.31610   0.71980   0.01267  Uiso   1.00
H85    H     0.55490   0.10790   0.82690   0.01267  Uiso   1.00
H86    H     0.64760   0.13660   0.88310   0.01267  Uiso   1.00
H87    H     0.63840   0.41820   0.84690   0.01267  Uiso   1.00
H88    H     0.54520   0.39180   0.79000   0.01267  Uiso   1.00
H89    H     0.87700   0.53960   0.02490   0.01267  Uiso   1.00
H90    H     0.87290   0.70170   0.03210   0.01267  Uiso   1.00
H91    H     0.73750   0.74050   0.92090   0.01267  Uiso   1.00
H92    H     0.74540   0.57880   0.91690   0.01267  Uiso   1.00
H93    H     0.67830   0.03830   0.95900   0.01267  Uiso   1.00
H94    H     0.67890   0.87630   0.95360   0.01267  Uiso   1.00
H95    H     0.92240   0.85320   0.01300   0.01267  Uiso   1.00
H96    H     0.91320   0.01720   0.01870   0.01267  Uiso   1.00
H97    H     0.16810   0.31090   0.28260   0.01267  Uiso   1.00
H98    H     0.19560   0.22620   0.25290   0.01267  Uiso   1.00
H99    H     0.43130   0.17710   0.32930   0.01267  Uiso   1.00
H100   H     0.42330   0.05950   0.38490   0.01267  Uiso   1.00
H101   H     0.13840   0.05280   0.38400   0.01267  Uiso   1.00
H102   H     0.14460   0.17280   0.32760   0.01267  Uiso   1.00
H103   H     0.18410   0.42810   0.17500   0.01267  Uiso   1.00
H104   H     0.11780   0.41680   0.21950   0.01267  Uiso   1.00
H105   H     0.04870   0.44550   0.14250   0.01267  Uiso   1.00
H106   H     0.96310   0.43670   0.08230   0.01267  Uiso   1.00
H107   H     0.98760   0.15040   0.09390   0.01267  Uiso   1.00
H108   H     0.07460   0.15760   0.15430   0.01267  Uiso   1.00
H109   H     0.30440   0.24960   0.18600   0.01267  Uiso   1.00
H110   H     0.38500   0.28960   0.21210   0.01267  Uiso   1.00
H111   H     0.45550   0.21730   0.15110   0.01267  Uiso   1.00
H112   H     0.57460   0.18720   0.09710   0.01267  Uiso   1.00
H113   H     0.54120   0.45640   0.04140   0.01267  Uiso   1.00
H114   H     0.41610   0.48230   0.09410   0.01267  Uiso   1.00
H115   H     0.34940   0.42200   0.26020   0.01267  Uiso   1.00
H116   H     0.31610   0.48830   0.21980   0.01267  Uiso   1.00
H117   H     0.10790   0.55490   0.32690   0.01267  Uiso   1.00
H118   H     0.13660   0.64760   0.38310   0.01267  Uiso   1.00
H119   H     0.41820   0.63840   0.34690   0.01267  Uiso   1.00
H120   H     0.39180   0.54520   0.29000   0.01267  Uiso   1.00
H121   H     0.53960   0.87700   0.52490   0.01267  Uiso   1.00
H122   H     0.70170   0.87290   0.53210   0.01267  Uiso   1.00
H123   H     0.74050   0.73750   0.42090   0.01267  Uiso   1.00
H124   H     0.57880   0.74540   0.41690   0.01267  Uiso   1.00
H125   H     0.03830   0.67830   0.45900   0.01267  Uiso   1.00
H126   H     0.87630   0.67890   0.45360   0.01267  Uiso   1.00
H127   H     0.85320   0.92240   0.51300   0.01267  Uiso   1.00
H128   H     0.01720   0.91320   0.51870   0.01267  Uiso   1.00
C87    C     0.35530   0.25290   0.72577   0.01267  Uiso   1.00
C88    C     0.28300   0.21940   0.76408   0.01267  Uiso   1.00
C89    C     0.18700   0.28820   0.82239   0.01267  Uiso   1.00
C90    C     0.15190   0.37230   0.84010   0.01267  Uiso   1.00
C91    C     0.08120   0.36700   0.87290   0.01267  Uiso   1.00
C92    C     0.03920   0.28120   0.88963   0.01267  Uiso   1.00
C93    C     0.07710   0.19750   0.87250   0.01267  Uiso   1.00
C94    C     0.14930   0.20090   0.83900   0.01267  Uiso   1.00
C95    C     0.95560   0.28060   0.92306   0.01267  Uiso   1.00
C96    C     0.38500   0.16580   0.70070   0.01267  Uiso   1.00
C97    C     0.30160   0.07380   0.65395   0.01267  Uiso   1.00
C98    C     0.38610   0.03730   0.63250   0.01267  Uiso   1.00
C99    C     0.38050   0.98510   0.59690   0.01267  Uiso   1.00
C100   C     0.29340   0.96400   0.58225   0.01267  Uiso   1.00
C101   C     0.20960   0.99960   0.60380   0.01267  Uiso   1.00
C102   C     0.21390   0.05270   0.63970   0.01267  Uiso   1.00
C103   C     0.28890   0.90690   0.54345   0.01267  Uiso   1.00
C104   C     0.30700   0.32920   0.69620   0.01267  Uiso   1.00
C105   C     0.35290   0.42490   0.62866   0.01267  Uiso   1.00
C106   C     0.26500   0.47240   0.62890   0.01267  Uiso   1.00
C107   C     0.24700   0.54420   0.59680   0.01267  Uiso   1.00
C108   C     0.31970   0.57130   0.56333   0.01267  Uiso   1.00
C109   C     0.40790   0.52350   0.56310   0.01267  Uiso   1.00
C110   C     0.42400   0.44940   0.59510   0.01267  Uiso   1.00
C111   C     0.30530   0.65470   0.53052   0.01267  Uiso   1.00
C112   C     0.44170   0.29490   0.74382   0.01267  Uiso   1.00
C113   C     0.53850   0.24650   0.80352   0.01267  Uiso   1.00
C114   C     0.57060   0.17040   0.83110   0.01267  Uiso   1.00
C115   C     0.62570   0.18770   0.86490   0.01267  Uiso   1.00
C116   C     0.64860   0.28040   0.87185   0.01267  Uiso   1.00
C117   C     0.62010   0.35630   0.84312   0.01267  Uiso   1.00
C118   C     0.56470   0.34070   0.80896   0.01267  Uiso   1.00
C119   C     0.70680   0.29740   0.90959   0.01267  Uiso   1.00
C120   C     0.84870   0.58070   0.00390   0.01267  Uiso   1.00
C121   C     0.84660   0.67820   0.00830   0.01267  Uiso   1.00
C122   C     0.80580   0.74100   0.97751   0.01267  Uiso   1.00
C123   C     0.76630   0.70130   0.94235   0.01267  Uiso   1.00
C124   C     0.77120   0.60420   0.94037   0.01267  Uiso   1.00
C125   C     0.72840   0.00060   0.96970   0.01267  Uiso   1.00
C126   C     0.72900   0.90340   0.96620   0.01267  Uiso   1.00
C127   C     0.80280   0.84520   0.98120   0.01267  Uiso   1.00
C128   C     0.87230   0.88930   0.00140   0.01267  Uiso   1.00
C129   C     0.86650   0.98870   0.00450   0.01267  Uiso   1.00
C130   C     0.25290   0.35530   0.22577   0.01267  Uiso   1.00
C131   C     0.21940   0.28300   0.26408   0.01267  Uiso   1.00
C132   C     0.28820   0.18700   0.32239   0.01267  Uiso   1.00
C133   C     0.37230   0.15190   0.34010   0.01267  Uiso   1.00
C134   C     0.36700   0.08120   0.37290   0.01267  Uiso   1.00
C135   C     0.28120   0.03920   0.38963   0.01267  Uiso   1.00
C136   C     0.19750   0.07710   0.37250   0.01267  Uiso   1.00
C137   C     0.20090   0.14930   0.33900   0.01267  Uiso   1.00
C138   C     0.28060   0.95560   0.42306   0.01267  Uiso   1.00
C139   C     0.16580   0.38500   0.20070   0.01267  Uiso   1.00
C140   C     0.07380   0.30160   0.15395   0.01267  Uiso   1.00
C141   C     0.03730   0.38610   0.13250   0.01267  Uiso   1.00
C142   C     0.98510   0.38050   0.09690   0.01267  Uiso   1.00
C143   C     0.96400   0.29340   0.08225   0.01267  Uiso   1.00
C144   C     0.99960   0.20960   0.10380   0.01267  Uiso   1.00
C145   C     0.05270   0.21390   0.13970   0.01267  Uiso   1.00
C146   C     0.90690   0.28890   0.04345   0.01267  Uiso   1.00
C147   C     0.32920   0.30700   0.19620   0.01267  Uiso   1.00
C148   C     0.42490   0.35290   0.12866   0.01267  Uiso   1.00
C149   C     0.47240   0.26500   0.12890   0.01267  Uiso   1.00
C150   C     0.54420   0.24700   0.09680   0.01267  Uiso   1.00
C151   C     0.57130   0.31970   0.06333   0.01267  Uiso   1.00
C152   C     0.52350   0.40790   0.06310   0.01267  Uiso   1.00
C153   C     0.44940   0.42400   0.09510   0.01267  Uiso   1.00
C154   C     0.65470   0.30530   0.03052   0.01267  Uiso   1.00
C155   C     0.29490   0.44170   0.24382   0.01267  Uiso   1.00
C156   C     0.24650   0.53850   0.30352   0.01267  Uiso   1.00
C157   C     0.17040   0.57060   0.33110   0.01267  Uiso   1.00
C158   C     0.18770   0.62570   0.36490   0.01267  Uiso   1.00
C159   C     0.28040   0.64860   0.37185   0.01267  Uiso   1.00
C160   C     0.35630   0.62010   0.34312   0.01267  Uiso   1.00
C161   C     0.34070   0.56470   0.30896   0.01267  Uiso   1.00
C162   C     0.29740   0.70680   0.40959   0.01267  Uiso   1.00
C163   C     0.58070   0.84870   0.50390   0.01267  Uiso   1.00
C164   C     0.67820   0.84660   0.50830   0.01267  Uiso   1.00
C165   C     0.74100   0.80580   0.47751   0.01267  Uiso   1.00
C166   C     0.70130   0.76630   0.44235   0.01267  Uiso   1.00
C167   C     0.60420   0.77120   0.44037   0.01267  Uiso   1.00
C168   C     0.00060   0.72840   0.46970   0.01267  Uiso   1.00
C169   C     0.90340   0.72900   0.46620   0.01267  Uiso   1.00
C170   C     0.84520   0.80280   0.48120   0.01267  Uiso   1.00
C171   C     0.88930   0.87230   0.50140   0.01267  Uiso   1.00
C172   C     0.98870   0.86650   0.50450   0.01267  Uiso   1.00
N5     N     0.81100   0.54340   0.97016   0.01267  Uiso   1.00
N6     N     0.79870   0.04290   0.98821   0.01267  Uiso   1.00
N7     N     0.54340   0.81100   0.47016   0.01267  Uiso   1.00
N8     N     0.04290   0.79870   0.48821   0.01267  Uiso   1.00
O25    O     0.25840   0.29980   0.78894   0.01267  Uiso   1.00
O26    O     0.92680   0.35900   0.93545   0.01267  Uiso   1.00
O27    O     0.91950   0.20110   0.93727   0.01267  Uiso   1.00
O28    O     0.29800   0.12920   0.68784   0.01267  Uiso   1.00
O29    O     0.36510   0.87130   0.52688   0.01267  Uiso   1.00
O30    O     0.20660   0.89680   0.53011   0.01267  Uiso   1.00
O31    O     0.37710   0.35430   0.65900   0.01267  Uiso   1.00
O32    O     0.22290   0.69270   0.52992   0.01267  Uiso   1.00
O33    O     0.37650   0.67970   0.50495   0.01267  Uiso   1.00
O34    O     0.48270   0.22130   0.77214   0.01267  Uiso   1.00
O35    O     0.72070   0.22470   0.93608   0.01267  Uiso   1.00
O36    O     0.73620   0.38060   0.91315   0.01267  Uiso   1.00
O37    O     0.29980   0.25840   0.28894   0.01267  Uiso   1.00
O38    O     0.35900   0.92680   0.43545   0.01267  Uiso   1.00
O39    O     0.20110   0.91950   0.43727   0.01267  Uiso   1.00
O40    O     0.12920   0.29800   0.18784   0.01267  Uiso   1.00
O41    O     0.87130   0.36510   0.02688   0.01267  Uiso   1.00
O42    O     0.89680   0.20660   0.03011   0.01267  Uiso   1.00
O43    O     0.35430   0.37710   0.15900   0.01267  Uiso   1.00
O44    O     0.69270   0.22290   0.02992   0.01267  Uiso   1.00
O45    O     0.67970   0.37650   0.00495   0.01267  Uiso   1.00
O46    O     0.22130   0.48270   0.27214   0.01267  Uiso   1.00
O47    O     0.22470   0.72070   0.43608   0.01267  Uiso   1.00
O48    O     0.38060   0.73620   0.41315   0.01267  Uiso   1.00
