data_image0
_cell_length_a       10.1
_cell_length_b       13.978
_cell_length_c       14.481
_cell_angle_alpha    63.119
_cell_angle_beta     71.811
_cell_angle_gamma    79.588

_symmetry_space_group_name_H-M    "P 1"
_symmetry_int_tables_number       1

loop_
  _symmetry_equiv_pos_as_xyz
  'x, y, z'

loop_
  _atom_site_label
  _atom_site_occupancy
  _atom_site_fract_x
  _atom_site_fract_y
  _atom_site_fract_z
  _atom_site_thermal_displace_type
  _atom_site_B_iso_or_equiv
  _atom_site_type_symbol
  Cd1      1.0000 0.19568  0.03405  0.39392  Biso   1.000  Cd
  Cd2      1.0000 0.76810  0.92863  0.02594  Biso   1.000  Cd
  O1       1.0000 0.43370  0.03580  0.34570  Biso   1.000  O
  O2       1.0000 0.38050  0.15610  0.19570  Biso   1.000  O
  O3       1.0000 0.88990  0.04330  0.42090  Biso   1.000  O
  O4       1.0000 0.06290  0.12330  0.27980  Biso   1.000  O
  O5       1.0000 0.11230  0.22270  0.00300  Biso   1.000  O
  O6       1.0000 0.01960  0.06630  0.11510  Biso   1.000  O
  O7       1.0000 0.65300  0.04190  0.09920  Biso   1.000  O
  O8       1.0000 0.81100  0.14870  0.96100  Biso   1.000  O
  N1       1.0000 0.19490  0.86640  0.39730  Biso   1.000  N
  N2       1.0000 0.19130  0.19070  0.41770  Biso   1.000  N
  N3       1.0000 0.60730  0.80750  0.17250  Biso   1.000  N
  C1       1.0000 0.19630  0.77280  0.48530  Biso   1.000  C
  H1       1.0000 0.21260  0.77340  0.54480  Biso   1.000  H
  C2       1.0000 0.17430  0.67810  0.48870  Biso   1.000  C
  H2       1.0000 0.17830  0.61600  0.55060  Biso   1.000  H
  C3       1.0000 0.14650  0.66850  0.40610  Biso   1.000  C
  C4       1.0000 0.15730  0.76030  0.31620  Biso   1.000  C
  H3       1.0000 0.15200  0.75770  0.25450  Biso   1.000  H
  C5       1.0000 0.17660  0.86150  0.31070  Biso   1.000  C
  H4       1.0000 0.17670  0.92370  0.24810  Biso   1.000  H
  C6       1.0000 0.09400  0.56680  0.41480  Biso   1.000  C
  H5       1.0000 0.04170  0.57570  0.36890  Biso   1.000  H
  C7       1.0000 0.12100  0.46350  0.48620  Biso   1.000  C
  H6       1.0000 0.11500  0.45140  0.55600  Biso   1.000  H
  C8       1.0000 0.15880  0.37070  0.45790  Biso   1.000  C
  C9       1.0000 0.17540  0.26960  0.54090  Biso   1.000  C
  H7       1.0000 0.17700  0.26060  0.60830  Biso   1.000  H
  C10      1.0000 0.18900  0.18540  0.51390  Biso   1.000  C
  H8       1.0000 0.19750  0.11700  0.56760  Biso   1.000  H
  C11      1.0000 0.18100  0.28730  0.34150  Biso   1.000  C
  H9       1.0000 0.18460  0.29400  0.27390  Biso   1.000  H
  C12      1.0000 0.16490  0.37870  0.35750  Biso   1.000  C
  H10      1.0000 0.15820  0.44570  0.30140  Biso   1.000  H
  C13      1.0000 0.58770  0.80220  0.26990  Biso   1.000  C
  H11      1.0000 0.60210  0.86260  0.27620  Biso   1.000  H
  C14      1.0000 0.54570  0.70790  0.36420  Biso   1.000  C
  H12      1.0000 0.53350  0.70680  0.43110  Biso   1.000  H
  C15      1.0000 0.52350  0.62020  0.35730  Biso   1.000  C
  C16      1.0000 0.53620  0.62630  0.25960  Biso   1.000  C
  H13      1.0000 0.51780  0.56700  0.25330  Biso   1.000  H
  C17      1.0000 0.57640  0.72020  0.16820  Biso   1.000  C
  H14      1.0000 0.58230  0.72280  0.10170  Biso   1.000  H
  C18      1.0000 0.49510  0.51130  0.45240  Biso   1.000  C
  H15      1.0000 0.46910  0.45740  0.44170  Biso   1.000  H
  C19      1.0000 0.46430  0.11340  0.25010  Biso   1.000  C
  C20      1.0000 0.60840  0.16240  0.21610  Biso   1.000  C
  H16      1.0000 0.58570  0.22390  0.23450  Biso   1.000  H
  C21      1.0000 0.71660  0.09520  0.27660  Biso   1.000  C
  H17      1.0000 0.67210  0.06310  0.35290  Biso   1.000  H
  H18      1.0000 0.75510  0.03760  0.25460  Biso   1.000  H
  C22      1.0000 0.83330  0.16320  0.25480  Biso   1.000  C
  H19      1.0000 0.78640  0.21800  0.28010  Biso   1.000  H
  C23      1.0000 0.90340  0.22750  0.13570  Biso   1.000  C
  H20      1.0000 0.94930  0.28550  0.13230  Biso   1.000  H
  C24      1.0000 0.79520  0.28370  0.06830  Biso   1.000  C
  H21      1.0000 0.75430  0.34690  0.08020  Biso   1.000  H
  H22      1.0000 0.84380  0.30760  0.99290  Biso   1.000  H
  C25      1.0000 0.67660  0.21250  0.09420  Biso   1.000  C
  H23      1.0000 0.60520  0.26010  0.06000  Biso   1.000  H
  C26      1.0000 0.93720  0.10350  0.32370  Biso   1.000  C
  C27      1.0000 0.01920  0.16570  0.08310  Biso   1.000  C
  C28      1.0000 0.71990  0.12790  0.04990  Biso   1.000  C
  Cd3      1.0000 0.80432  0.96595  0.60608  Biso   1.000  Cd
  Cd4      1.0000 0.23190  0.07137  0.97406  Biso   1.000  Cd
  O9       1.0000 0.56630  0.96420  0.65430  Biso   1.000  O
  O10      1.0000 0.61950  0.84390  0.80430  Biso   1.000  O
  O11      1.0000 0.11010  0.95670  0.57910  Biso   1.000  O
  O12      1.0000 0.93710  0.87670  0.72020  Biso   1.000  O
  O13      1.0000 0.88770  0.77730  0.99700  Biso   1.000  O
  O14      1.0000 0.98040  0.93370  0.88490  Biso   1.000  O
  O15      1.0000 0.34700  0.95810  0.90080  Biso   1.000  O
  O16      1.0000 0.18900  0.85130  0.03900  Biso   1.000  O
  N4       1.0000 0.80510  0.13360  0.60270  Biso   1.000  N
  N5       1.0000 0.80870  0.80930  0.58230  Biso   1.000  N
  N6       1.0000 0.39270  0.19250  0.82750  Biso   1.000  N
  C29      1.0000 0.80370  0.22720  0.51470  Biso   1.000  C
  H24      1.0000 0.78740  0.22660  0.45520  Biso   1.000  H
  C30      1.0000 0.82570  0.32190  0.51130  Biso   1.000  C
  H25      1.0000 0.82170  0.38400  0.44940  Biso   1.000  H
  C31      1.0000 0.85350  0.33150  0.59390  Biso   1.000  C
  C32      1.0000 0.84270  0.23970  0.68380  Biso   1.000  C
  H26      1.0000 0.84800  0.24230  0.74550  Biso   1.000  H
  C33      1.0000 0.82340  0.13850  0.68930  Biso   1.000  C
  H27      1.0000 0.82330  0.07630  0.75190  Biso   1.000  H
  C34      1.0000 0.90600  0.43320  0.58520  Biso   1.000  C
  H28      1.0000 0.95830  0.42430  0.63110  Biso   1.000  H
  C35      1.0000 0.87900  0.53650  0.51380  Biso   1.000  C
  H29      1.0000 0.88500  0.54860  0.44400  Biso   1.000  H
  C36      1.0000 0.84120  0.62930  0.54210  Biso   1.000  C
  C37      1.0000 0.82460  0.73040  0.45910  Biso   1.000  C
  H30      1.0000 0.82300  0.73940  0.39170  Biso   1.000  H
  C38      1.0000 0.81100  0.81460  0.48610  Biso   1.000  C
  H31      1.0000 0.80250  0.88300  0.43240  Biso   1.000  H
  C39      1.0000 0.81900  0.71270  0.65850  Biso   1.000  C
  H32      1.0000 0.81540  0.70600  0.72610  Biso   1.000  H
  C40      1.0000 0.83510  0.62130  0.64250  Biso   1.000  C
  H33      1.0000 0.84180  0.55430  0.69860  Biso   1.000  H
  C41      1.0000 0.41230  0.19780  0.73010  Biso   1.000  C
  H34      1.0000 0.39790  0.13740  0.72380  Biso   1.000  H
  C42      1.0000 0.45430  0.29210  0.63580  Biso   1.000  C
  H35      1.0000 0.46650  0.29320  0.56890  Biso   1.000  H
  C43      1.0000 0.47650  0.37980  0.64270  Biso   1.000  C
  C44      1.0000 0.46380  0.37370  0.74040  Biso   1.000  C
  H36      1.0000 0.48220  0.43300  0.74670  Biso   1.000  H
  C45      1.0000 0.42360  0.27980  0.83180  Biso   1.000  C
  H37      1.0000 0.41770  0.27720  0.89830  Biso   1.000  H
  C46      1.0000 0.50490  0.48870  0.54760  Biso   1.000  C
  H38      1.0000 0.53090  0.54260  0.55830  Biso   1.000  H
  C47      1.0000 0.53570  0.88660  0.74990  Biso   1.000  C
  C48      1.0000 0.39160  0.83760  0.78390  Biso   1.000  C
  H39      1.0000 0.41430  0.77610  0.76550  Biso   1.000  H
  C49      1.0000 0.28340  0.90480  0.72340  Biso   1.000  C
  H40      1.0000 0.32790  0.93690  0.64710  Biso   1.000  H
  H41      1.0000 0.24490  0.96240  0.74540  Biso   1.000  H
  C50      1.0000 0.16670  0.83680  0.74520  Biso   1.000  C
  H42      1.0000 0.21360  0.78200  0.71990  Biso   1.000  H
  C51      1.0000 0.09660  0.77250  0.86430  Biso   1.000  C
  H43      1.0000 0.05070  0.71450  0.86770  Biso   1.000  H
  C52      1.0000 0.20480  0.71630  0.93170  Biso   1.000  C
  H44      1.0000 0.24570  0.65310  0.91980  Biso   1.000  H
  H45      1.0000 0.15620  0.69240  0.00710  Biso   1.000  H
  C53      1.0000 0.32340  0.78750  0.90580  Biso   1.000  C
  H46      1.0000 0.39480  0.73990  0.94000  Biso   1.000  H
  C54      1.0000 0.06280  0.89650  0.67630  Biso   1.000  C
  C55      1.0000 0.98080  0.83430  0.91690  Biso   1.000  C
  C56      1.0000 0.28010  0.87210  0.95010  Biso   1.000  C
