data_image0
_cell_length_a       9.1428
_cell_length_b       16.0129
_cell_length_c       15.1324
_cell_angle_alpha    90
_cell_angle_beta     93.151
_cell_angle_gamma    90

_symmetry_space_group_name_H-M    "P 1"
_symmetry_int_tables_number       1

loop_
  _symmetry_equiv_pos_as_xyz
  'x, y, z'

loop_
  _atom_site_label
  _atom_site_occupancy
  _atom_site_fract_x
  _atom_site_fract_y
  _atom_site_fract_z
  _atom_site_thermal_displace_type
  _atom_site_B_iso_or_equiv
  _atom_site_type_symbol
  Co1      1.0000 0.39054  0.36526  0.66464  Biso   1.000  Co
  Co2      1.0000 0.46907  0.14219  0.70795  Biso   1.000  Co
  O1       1.0000 0.56425  0.19854  0.60208  Biso   1.000  O
  O2       1.0000 0.58925  0.33727  0.62083  Biso   1.000  O
  O3       1.0000 0.15350  0.36657  0.65418  Biso   1.000  O
  O4       1.0000 0.27910  0.32131  0.54710  Biso   1.000  O
  O5       1.0000 0.92740  0.12364  0.30286  Biso   1.000  O
  O6       1.0000 0.87369  0.24821  0.25251  Biso   1.000  O
  O7       1.0000 0.45660  0.97570  0.33358  Biso   1.000  O
  O8       1.0000 0.29960  0.03756  0.23626  Biso   1.000  O
  H1       1.0000 0.26720  0.99010  0.22970  Biso   1.000  H
  O9       1.0000 0.16097  0.32466  0.28306  Biso   1.000  O
  O10      1.0000 0.34110  0.41472  0.31521  Biso   1.000  O
  N1       1.0000 0.27950  0.11145  0.62480  Biso   1.000  N
  C1       1.0000 0.62570  0.26678  0.59051  Biso   1.000  C
  C2       1.0000 0.76210  0.26685  0.53825  Biso   1.000  C
  C3       1.0000 0.89120  0.29787  0.57963  Biso   1.000  C
  H2       1.0000 0.88920  0.32220  0.63540  Biso   1.000  H
  C4       1.0000 0.02270  0.29267  0.53815  Biso   1.000  C
  C5       1.0000 0.15900  0.32936  0.58220  Biso   1.000  C
  C6       1.0000 0.02590  0.25574  0.45502  Biso   1.000  C
  H3       1.0000 0.11490  0.24830  0.42900  Biso   1.000  H
  C7       1.0000 0.89610  0.22996  0.41067  Biso   1.000  C
  C8       1.0000 0.90070  0.19898  0.31698  Biso   1.000  C
  C9       1.0000 0.76170  0.23550  0.45136  Biso   1.000  C
  C10      1.0000 0.61900  0.21705  0.40192  Biso   1.000  C
  C11      1.0000 0.57870  0.13657  0.37476  Biso   1.000  C
  H4       1.0000 0.64150  0.09180  0.38690  Biso   1.000  H
  C12      1.0000 0.44380  0.12359  0.32935  Biso   1.000  C
  C13      1.0000 0.40050  0.03796  0.29895  Biso   1.000  C
  C14      1.0000 0.34850  0.18988  0.31020  Biso   1.000  C
  H5       1.0000 0.25820  0.18030  0.28060  Biso   1.000  H
  C15      1.0000 0.38930  0.27032  0.33563  Biso   1.000  C
  C16      1.0000 0.52400  0.28320  0.38188  Biso   1.000  C
  H6       1.0000 0.55070  0.33700  0.39960  Biso   1.000  H
  C17      1.0000 0.28860  0.34151  0.30940  Biso   1.000  C
  C18      1.0000 0.30080  0.08060  0.54455  Biso   1.000  C
  H7       1.0000 0.39190  0.08830  0.52130  Biso   1.000  H
  C19      1.0000 0.19460  0.03780  0.49407  Biso   1.000  C
  H8       1.0000 0.21590  0.01740  0.43870  Biso   1.000  H
  C20      1.0000 0.05720  0.02512  0.52526  Biso   1.000  C
  C21      1.0000 0.03230  0.06060  0.60690  Biso   1.000  C
  H9       1.0000 0.94050  0.05630  0.63010  Biso   1.000  H
  C22      1.0000 0.14460  0.10240  0.65360  Biso   1.000  C
  H10      1.0000 0.12500  0.12550  0.70810  Biso   1.000  H
  Co3      1.0000 0.10946  0.86526  0.83536  Biso   1.000  Co
  Co4      1.0000 0.03093  0.64219  0.79205  Biso   1.000  Co
  O11      1.0000 0.93575  0.69854  0.89792  Biso   1.000  O
  O12      1.0000 0.91075  0.83727  0.87917  Biso   1.000  O
  O13      1.0000 0.34650  0.86657  0.84582  Biso   1.000  O
  O14      1.0000 0.22090  0.82131  0.95290  Biso   1.000  O
  O15      1.0000 0.57260  0.62364  0.19714  Biso   1.000  O
  O16      1.0000 0.62631  0.74821  0.24749  Biso   1.000  O
  O17      1.0000 0.04340  0.47570  0.16642  Biso   1.000  O
  O18      1.0000 0.20040  0.53756  0.26374  Biso   1.000  O
  H11      1.0000 0.23280  0.49010  0.27030  Biso   1.000  H
  O19      1.0000 0.33903  0.82466  0.21694  Biso   1.000  O
  O20      1.0000 0.15890  0.91472  0.18479  Biso   1.000  O
  N2       1.0000 0.22050  0.61145  0.87520  Biso   1.000  N
  C23      1.0000 0.87430  0.76678  0.90949  Biso   1.000  C
  C24      1.0000 0.73790  0.76685  0.96175  Biso   1.000  C
  C25      1.0000 0.60880  0.79787  0.92037  Biso   1.000  C
  H12      1.0000 0.61080  0.82220  0.86460  Biso   1.000  H
  C26      1.0000 0.47730  0.79267  0.96185  Biso   1.000  C
  C27      1.0000 0.34100  0.82936  0.91780  Biso   1.000  C
  C28      1.0000 0.47410  0.75574  0.04498  Biso   1.000  C
  H13      1.0000 0.38510  0.74830  0.07100  Biso   1.000  H
  C29      1.0000 0.60390  0.72996  0.08933  Biso   1.000  C
  C30      1.0000 0.59930  0.69898  0.18302  Biso   1.000  C
  C31      1.0000 0.73830  0.73550  0.04864  Biso   1.000  C
  C32      1.0000 0.88100  0.71705  0.09808  Biso   1.000  C
  C33      1.0000 0.92130  0.63657  0.12524  Biso   1.000  C
  H14      1.0000 0.85850  0.59180  0.11310  Biso   1.000  H
  C34      1.0000 0.05620  0.62359  0.17065  Biso   1.000  C
  C35      1.0000 0.09950  0.53796  0.20105  Biso   1.000  C
  C36      1.0000 0.15150  0.68988  0.18980  Biso   1.000  C
  H15      1.0000 0.24180  0.68030  0.21940  Biso   1.000  H
  C37      1.0000 0.11070  0.77032  0.16437  Biso   1.000  C
  C38      1.0000 0.97600  0.78320  0.11812  Biso   1.000  C
  H16      1.0000 0.94930  0.83700  0.10040  Biso   1.000  H
  C39      1.0000 0.21140  0.84151  0.19060  Biso   1.000  C
  C40      1.0000 0.19920  0.58060  0.95545  Biso   1.000  C
  H17      1.0000 0.10810  0.58830  0.97870  Biso   1.000  H
  C41      1.0000 0.30540  0.53780  0.00593  Biso   1.000  C
  H18      1.0000 0.28410  0.51740  0.06130  Biso   1.000  H
  C42      1.0000 0.44280  0.52512  0.97474  Biso   1.000  C
  C43      1.0000 0.46770  0.56060  0.89310  Biso   1.000  C
  H19      1.0000 0.55950  0.55630  0.86990  Biso   1.000  H
  C44      1.0000 0.35540  0.60240  0.84640  Biso   1.000  C
  H20      1.0000 0.37500  0.62550  0.79190  Biso   1.000  H
  Co5      1.0000 0.60946  0.63474  0.33536  Biso   1.000  Co
  Co6      1.0000 0.53093  0.85781  0.29205  Biso   1.000  Co
  O21      1.0000 0.43575  0.80146  0.39792  Biso   1.000  O
  O22      1.0000 0.41075  0.66273  0.37917  Biso   1.000  O
  O23      1.0000 0.84650  0.63343  0.34582  Biso   1.000  O
  O24      1.0000 0.72090  0.67869  0.45290  Biso   1.000  O
  O25      1.0000 0.07260  0.87636  0.69714  Biso   1.000  O
  O26      1.0000 0.12631  0.75179  0.74749  Biso   1.000  O
  O27      1.0000 0.54340  0.02430  0.66642  Biso   1.000  O
  O28      1.0000 0.70040  0.96244  0.76374  Biso   1.000  O
  H21      1.0000 0.73280  0.00990  0.77030  Biso   1.000  H
  O29      1.0000 0.83903  0.67534  0.71694  Biso   1.000  O
  O30      1.0000 0.65890  0.58528  0.68479  Biso   1.000  O
  N3       1.0000 0.72050  0.88855  0.37520  Biso   1.000  N
  C45      1.0000 0.37430  0.73322  0.40949  Biso   1.000  C
  C46      1.0000 0.23790  0.73315  0.46175  Biso   1.000  C
  C47      1.0000 0.10880  0.70213  0.42037  Biso   1.000  C
  H22      1.0000 0.11080  0.67780  0.36460  Biso   1.000  H
  C48      1.0000 0.97730  0.70733  0.46185  Biso   1.000  C
  C49      1.0000 0.84100  0.67064  0.41780  Biso   1.000  C
  C50      1.0000 0.97410  0.74426  0.54498  Biso   1.000  C
  H23      1.0000 0.88510  0.75170  0.57100  Biso   1.000  H
  C51      1.0000 0.10390  0.77004  0.58933  Biso   1.000  C
  C52      1.0000 0.09930  0.80102  0.68302  Biso   1.000  C
  C53      1.0000 0.23830  0.76450  0.54864  Biso   1.000  C
  C54      1.0000 0.38100  0.78295  0.59808  Biso   1.000  C
  C55      1.0000 0.42130  0.86343  0.62524  Biso   1.000  C
  H24      1.0000 0.35850  0.90820  0.61310  Biso   1.000  H
  C56      1.0000 0.55620  0.87641  0.67065  Biso   1.000  C
  C57      1.0000 0.59950  0.96204  0.70105  Biso   1.000  C
  C58      1.0000 0.65150  0.81012  0.68980  Biso   1.000  C
  H25      1.0000 0.74180  0.81970  0.71940  Biso   1.000  H
  C59      1.0000 0.61070  0.72968  0.66437  Biso   1.000  C
  C60      1.0000 0.47600  0.71680  0.61812  Biso   1.000  C
  H26      1.0000 0.44930  0.66300  0.60040  Biso   1.000  H
  C61      1.0000 0.71140  0.65849  0.69060  Biso   1.000  C
  C62      1.0000 0.69920  0.91940  0.45545  Biso   1.000  C
  H27      1.0000 0.60810  0.91170  0.47870  Biso   1.000  H
  C63      1.0000 0.80540  0.96220  0.50593  Biso   1.000  C
  H28      1.0000 0.78410  0.98260  0.56130  Biso   1.000  H
  C64      1.0000 0.94280  0.97488  0.47474  Biso   1.000  C
  C65      1.0000 0.96770  0.93940  0.39310  Biso   1.000  C
  H29      1.0000 0.05950  0.94370  0.36990  Biso   1.000  H
  C66      1.0000 0.85540  0.89760  0.34640  Biso   1.000  C
  H30      1.0000 0.87500  0.87450  0.29190  Biso   1.000  H
  Co7      1.0000 0.89054  0.13474  0.16464  Biso   1.000  Co
  Co8      1.0000 0.96907  0.35781  0.20795  Biso   1.000  Co
  O31      1.0000 0.06425  0.30146  0.10208  Biso   1.000  O
  O32      1.0000 0.08925  0.16273  0.12083  Biso   1.000  O
  O33      1.0000 0.65350  0.13343  0.15418  Biso   1.000  O
  O34      1.0000 0.77910  0.17869  0.04710  Biso   1.000  O
  O35      1.0000 0.42740  0.37636  0.80286  Biso   1.000  O
  O36      1.0000 0.37369  0.25179  0.75251  Biso   1.000  O
  O37      1.0000 0.95660  0.52430  0.83358  Biso   1.000  O
  O38      1.0000 0.79960  0.46244  0.73626  Biso   1.000  O
  H31      1.0000 0.76720  0.50990  0.72970  Biso   1.000  H
  O39      1.0000 0.66097  0.17534  0.78306  Biso   1.000  O
  O40      1.0000 0.84110  0.08528  0.81521  Biso   1.000  O
  N4       1.0000 0.77950  0.38855  0.12480  Biso   1.000  N
  C67      1.0000 0.12570  0.23322  0.09051  Biso   1.000  C
  C68      1.0000 0.26210  0.23315  0.03825  Biso   1.000  C
  C69      1.0000 0.39120  0.20213  0.07963  Biso   1.000  C
  H32      1.0000 0.38920  0.17780  0.13540  Biso   1.000  H
  C70      1.0000 0.52270  0.20733  0.03815  Biso   1.000  C
  C71      1.0000 0.65900  0.17064  0.08220  Biso   1.000  C
  C72      1.0000 0.52590  0.24426  0.95502  Biso   1.000  C
  H33      1.0000 0.61490  0.25170  0.92900  Biso   1.000  H
  C73      1.0000 0.39610  0.27004  0.91067  Biso   1.000  C
  C74      1.0000 0.40070  0.30102  0.81698  Biso   1.000  C
  C75      1.0000 0.26170  0.26450  0.95136  Biso   1.000  C
  C76      1.0000 0.11900  0.28295  0.90192  Biso   1.000  C
  C77      1.0000 0.07870  0.36343  0.87476  Biso   1.000  C
  H34      1.0000 0.14150  0.40820  0.88690  Biso   1.000  H
  C78      1.0000 0.94380  0.37641  0.82935  Biso   1.000  C
  C79      1.0000 0.90050  0.46204  0.79895  Biso   1.000  C
  C80      1.0000 0.84850  0.31012  0.81020  Biso   1.000  C
  H35      1.0000 0.75820  0.31970  0.78060  Biso   1.000  H
  C81      1.0000 0.88930  0.22968  0.83563  Biso   1.000  C
  C82      1.0000 0.02400  0.21680  0.88188  Biso   1.000  C
  H36      1.0000 0.05070  0.16300  0.89960  Biso   1.000  H
  C83      1.0000 0.78860  0.15849  0.80940  Biso   1.000  C
  C84      1.0000 0.80080  0.41940  0.04455  Biso   1.000  C
  H37      1.0000 0.89190  0.41170  0.02130  Biso   1.000  H
  C85      1.0000 0.69460  0.46220  0.99407  Biso   1.000  C
  H38      1.0000 0.71590  0.48260  0.93870  Biso   1.000  H
  C86      1.0000 0.55720  0.47488  0.02526  Biso   1.000  C
  C87      1.0000 0.53230  0.43940  0.10690  Biso   1.000  C
  H39      1.0000 0.44050  0.44370  0.13010  Biso   1.000  H
  C88      1.0000 0.64460  0.39760  0.15360  Biso   1.000  C
  H40      1.0000 0.62500  0.37450  0.20810  Biso   1.000  H
