data_image0
_cell_length_a       10.8416
_cell_length_b       17.6498
_cell_length_c       18.5049
_cell_angle_alpha    90
_cell_angle_beta     92.707
_cell_angle_gamma    90

_symmetry_space_group_name_H-M    "P 1"
_symmetry_int_tables_number       1

loop_
  _symmetry_equiv_pos_as_xyz
  'x, y, z'

loop_
  _atom_site_label
  _atom_site_occupancy
  _atom_site_fract_x
  _atom_site_fract_y
  _atom_site_fract_z
  _atom_site_thermal_displace_type
  _atom_site_B_iso_or_equiv
  _atom_site_type_symbol
  Ba1      1.0000 0.19912  0.81875  0.24691  Biso   1.000  Ba
  Fe1      1.0000 0.75151  0.04535  0.25202  Biso   1.000  Fe
  Fe2      1.0000 0.69683  0.65608  0.25204  Biso   1.000  Fe
  O1       1.0000 0.66850  0.99322  0.33260  Biso   1.000  O
  O2       1.0000 0.70730  0.13736  0.31177  Biso   1.000  O
  O3       1.0000 0.57910  0.01531  0.43654  Biso   1.000  O
  O4       1.0000 0.64440  0.16576  0.42191  Biso   1.000  O
  O5       1.0000 0.78680  0.11603  0.17178  Biso   1.000  O
  O6       1.0000 0.59510  0.02781  0.18747  Biso   1.000  O
  O7       1.0000 0.71610  0.14981  0.06117  Biso   1.000  O
  O8       1.0000 0.52900  0.04349  0.07397  Biso   1.000  O
  O9       1.0000 0.92240  0.03479  0.29843  Biso   1.000  O
  O10      1.0000 0.81180  0.95180  0.20107  Biso   1.000  O
  O11      1.0000 0.08920  0.95734  0.30327  Biso   1.000  O
  O12      1.0000 0.98360  0.88600  0.18130  Biso   1.000  O
  O13      1.0000 0.62430  0.56916  0.19302  Biso   1.000  O
  O14      1.0000 0.74350  0.56980  0.31860  Biso   1.000  O
  O15      1.0000 0.63100  0.44254  0.18810  Biso   1.000  O
  O16      1.0000 0.72540  0.44450  0.32889  Biso   1.000  O
  O17      1.0000 0.55820  0.68239  0.31742  Biso   1.000  O
  O18      1.0000 0.60480  0.73088  0.18853  Biso   1.000  O
  O19      1.0000 0.39980  0.76163  0.32496  Biso   1.000  O
  O20      1.0000 0.44050  0.80656  0.18558  Biso   1.000  O
  O21      1.0000 0.80200  0.72780  0.31284  Biso   1.000  O
  O22      1.0000 0.84380  0.65999  0.19220  Biso   1.000  O
  O23      1.0000 0.98520  0.78310  0.31726  Biso   1.000  O
  O24      1.0000 0.03170  0.71208  0.18876  Biso   1.000  O
  C1       1.0000 0.63250  0.03630  0.38310  Biso   1.000  C
  C2       1.0000 0.66280  0.12080  0.37290  Biso   1.000  C
  C3       1.0000 0.71000  0.11280  0.11780  Biso   1.000  C
  C4       1.0000 0.59950  0.05700  0.12650  Biso   1.000  C
  C5       1.0000 0.98730  0.97820  0.27850  Biso   1.000  C
  C6       1.0000 0.92280  0.93380  0.21440  Biso   1.000  C
  C7       1.0000 0.65030  0.50310  0.21860  Biso   1.000  C
  C8       1.0000 0.71050  0.50440  0.29460  Biso   1.000  C
  C9       1.0000 0.48580  0.73280  0.29200  Biso   1.000  C
  C10      1.0000 0.50910  0.76040  0.21530  Biso   1.000  C
  C11      1.0000 0.90840  0.74120  0.28810  Biso   1.000  C
  C12      1.0000 0.93270  0.70160  0.21730  Biso   1.000  C
  Ba2      1.0000 0.44355  0.87865  0.44560  Biso   1.000  Ba
  Ba3      1.0000 0.58057  0.10490  0.93862  Biso   1.000  Ba
  O25      1.0000 0.21960  0.79881  0.09336  Biso   1.000  O
  O26      1.0000 0.53490  0.72240  0.47411  Biso   1.000  O
  Ba4      1.0000 0.80088  0.31875  0.25309  Biso   1.000  Ba
  Fe3      1.0000 0.24849  0.54535  0.24798  Biso   1.000  Fe
  Fe4      1.0000 0.30317  0.15608  0.24796  Biso   1.000  Fe
  O27      1.0000 0.33150  0.49322  0.16740  Biso   1.000  O
  O28      1.0000 0.29270  0.63736  0.18823  Biso   1.000  O
  O29      1.0000 0.42090  0.51531  0.06346  Biso   1.000  O
  O30      1.0000 0.35560  0.66576  0.07809  Biso   1.000  O
  O31      1.0000 0.21320  0.61603  0.32822  Biso   1.000  O
  O32      1.0000 0.40490  0.52781  0.31253  Biso   1.000  O
  O33      1.0000 0.28390  0.64981  0.43883  Biso   1.000  O
  O34      1.0000 0.47100  0.54349  0.42603  Biso   1.000  O
  O35      1.0000 0.07760  0.53479  0.20157  Biso   1.000  O
  O36      1.0000 0.18820  0.45180  0.29893  Biso   1.000  O
  O37      1.0000 0.91080  0.45734  0.19673  Biso   1.000  O
  O38      1.0000 0.01640  0.38600  0.31870  Biso   1.000  O
  O39      1.0000 0.37570  0.06916  0.30698  Biso   1.000  O
  O40      1.0000 0.25650  0.06980  0.18140  Biso   1.000  O
  O41      1.0000 0.36900  0.94254  0.31190  Biso   1.000  O
  O42      1.0000 0.27460  0.94450  0.17111  Biso   1.000  O
  O43      1.0000 0.44180  0.18239  0.18258  Biso   1.000  O
  O44      1.0000 0.39520  0.23088  0.31147  Biso   1.000  O
  O45      1.0000 0.60020  0.26163  0.17504  Biso   1.000  O
  O46      1.0000 0.55950  0.30656  0.31442  Biso   1.000  O
  O47      1.0000 0.19800  0.22780  0.18716  Biso   1.000  O
  O48      1.0000 0.15620  0.15999  0.30780  Biso   1.000  O
  O49      1.0000 0.01480  0.28310  0.18274  Biso   1.000  O
  O50      1.0000 0.96830  0.21208  0.31124  Biso   1.000  O
  C13      1.0000 0.36750  0.53630  0.11690  Biso   1.000  C
  C14      1.0000 0.33720  0.62080  0.12710  Biso   1.000  C
  C15      1.0000 0.29000  0.61280  0.38220  Biso   1.000  C
  C16      1.0000 0.40050  0.55700  0.37350  Biso   1.000  C
  C17      1.0000 0.01270  0.47820  0.22150  Biso   1.000  C
  C18      1.0000 0.07720  0.43380  0.28560  Biso   1.000  C
  C19      1.0000 0.34970  0.00310  0.28140  Biso   1.000  C
  C20      1.0000 0.28950  0.00440  0.20540  Biso   1.000  C
  C21      1.0000 0.51420  0.23280  0.20800  Biso   1.000  C
  C22      1.0000 0.49090  0.26040  0.28470  Biso   1.000  C
  C23      1.0000 0.09160  0.24120  0.21190  Biso   1.000  C
  C24      1.0000 0.06730  0.20160  0.28270  Biso   1.000  C
  Ba5      1.0000 0.55645  0.37865  0.05440  Biso   1.000  Ba
  Ba6      1.0000 0.41943  0.60490  0.56138  Biso   1.000  Ba
  O51      1.0000 0.78040  0.29881  0.40664  Biso   1.000  O
  O52      1.0000 0.46510  0.22240  0.02589  Biso   1.000  O
  Ba7      1.0000 0.80088  0.18125  0.75309  Biso   1.000  Ba
  Fe5      1.0000 0.24849  0.95465  0.74798  Biso   1.000  Fe
  Fe6      1.0000 0.30317  0.34392  0.74796  Biso   1.000  Fe
  O53      1.0000 0.33150  0.00678  0.66740  Biso   1.000  O
  O54      1.0000 0.29270  0.86264  0.68823  Biso   1.000  O
  O55      1.0000 0.42090  0.98469  0.56346  Biso   1.000  O
  O56      1.0000 0.35560  0.83424  0.57809  Biso   1.000  O
  O57      1.0000 0.21320  0.88397  0.82822  Biso   1.000  O
  O58      1.0000 0.40490  0.97219  0.81253  Biso   1.000  O
  O59      1.0000 0.28390  0.85019  0.93883  Biso   1.000  O
  O60      1.0000 0.47100  0.95651  0.92603  Biso   1.000  O
  O61      1.0000 0.07760  0.96521  0.70157  Biso   1.000  O
  O62      1.0000 0.18820  0.04820  0.79893  Biso   1.000  O
  O63      1.0000 0.91080  0.04266  0.69673  Biso   1.000  O
  O64      1.0000 0.01640  0.11400  0.81870  Biso   1.000  O
  O65      1.0000 0.37570  0.43084  0.80698  Biso   1.000  O
  O66      1.0000 0.25650  0.43020  0.68140  Biso   1.000  O
  O67      1.0000 0.36900  0.55746  0.81190  Biso   1.000  O
  O68      1.0000 0.27460  0.55550  0.67111  Biso   1.000  O
  O69      1.0000 0.44180  0.31761  0.68258  Biso   1.000  O
  O70      1.0000 0.39520  0.26912  0.81147  Biso   1.000  O
  O71      1.0000 0.60020  0.23837  0.67504  Biso   1.000  O
  O72      1.0000 0.55950  0.19344  0.81442  Biso   1.000  O
  O73      1.0000 0.19800  0.27220  0.68716  Biso   1.000  O
  O74      1.0000 0.15620  0.34001  0.80780  Biso   1.000  O
  O75      1.0000 0.01480  0.21690  0.68274  Biso   1.000  O
  O76      1.0000 0.96830  0.28792  0.81124  Biso   1.000  O
  C25      1.0000 0.36750  0.96370  0.61690  Biso   1.000  C
  C26      1.0000 0.33720  0.87920  0.62710  Biso   1.000  C
  C27      1.0000 0.29000  0.88720  0.88220  Biso   1.000  C
  C28      1.0000 0.40050  0.94300  0.87350  Biso   1.000  C
  C29      1.0000 0.01270  0.02180  0.72150  Biso   1.000  C
  C30      1.0000 0.07720  0.06620  0.78560  Biso   1.000  C
  C31      1.0000 0.34970  0.49690  0.78140  Biso   1.000  C
  C32      1.0000 0.28950  0.49560  0.70540  Biso   1.000  C
  C33      1.0000 0.51420  0.26720  0.70800  Biso   1.000  C
  C34      1.0000 0.49090  0.23960  0.78470  Biso   1.000  C
  C35      1.0000 0.09160  0.25880  0.71190  Biso   1.000  C
  C36      1.0000 0.06730  0.29840  0.78270  Biso   1.000  C
  Ba8      1.0000 0.55645  0.12135  0.55440  Biso   1.000  Ba
  Ba9      1.0000 0.41943  0.89510  0.06138  Biso   1.000  Ba
  O77      1.0000 0.78040  0.20119  0.90664  Biso   1.000  O
  O78      1.0000 0.46510  0.27760  0.52589  Biso   1.000  O
  Ba10     1.0000 0.19912  0.68125  0.74691  Biso   1.000  Ba
  Fe7      1.0000 0.75151  0.45465  0.75202  Biso   1.000  Fe
  Fe8      1.0000 0.69683  0.84392  0.75204  Biso   1.000  Fe
  O79      1.0000 0.66850  0.50678  0.83260  Biso   1.000  O
  O80      1.0000 0.70730  0.36264  0.81177  Biso   1.000  O
  O81      1.0000 0.57910  0.48469  0.93654  Biso   1.000  O
  O82      1.0000 0.64440  0.33424  0.92191  Biso   1.000  O
  O83      1.0000 0.78680  0.38397  0.67178  Biso   1.000  O
  O84      1.0000 0.59510  0.47219  0.68747  Biso   1.000  O
  O85      1.0000 0.71610  0.35019  0.56117  Biso   1.000  O
  O86      1.0000 0.52900  0.45651  0.57397  Biso   1.000  O
  O87      1.0000 0.92240  0.46521  0.79843  Biso   1.000  O
  O88      1.0000 0.81180  0.54820  0.70107  Biso   1.000  O
  O89      1.0000 0.08920  0.54266  0.80327  Biso   1.000  O
  O90      1.0000 0.98360  0.61400  0.68130  Biso   1.000  O
  O91      1.0000 0.62430  0.93084  0.69302  Biso   1.000  O
  O92      1.0000 0.74350  0.93020  0.81860  Biso   1.000  O
  O93      1.0000 0.63100  0.05746  0.68810  Biso   1.000  O
  O94      1.0000 0.72540  0.05550  0.82889  Biso   1.000  O
  O95      1.0000 0.55820  0.81761  0.81742  Biso   1.000  O
  O96      1.0000 0.60480  0.76912  0.68853  Biso   1.000  O
  O97      1.0000 0.39980  0.73837  0.82496  Biso   1.000  O
  O98      1.0000 0.44050  0.69344  0.68558  Biso   1.000  O
  O99      1.0000 0.80200  0.77220  0.81284  Biso   1.000  O
  O100     1.0000 0.84380  0.84001  0.69220  Biso   1.000  O
  O101     1.0000 0.98520  0.71690  0.81726  Biso   1.000  O
  O102     1.0000 0.03170  0.78792  0.68876  Biso   1.000  O
  C37      1.0000 0.63250  0.46370  0.88310  Biso   1.000  C
  C38      1.0000 0.66280  0.37920  0.87290  Biso   1.000  C
  C39      1.0000 0.71000  0.38720  0.61780  Biso   1.000  C
  C40      1.0000 0.59950  0.44300  0.62650  Biso   1.000  C
  C41      1.0000 0.98730  0.52180  0.77850  Biso   1.000  C
  C42      1.0000 0.92280  0.56620  0.71440  Biso   1.000  C
  C43      1.0000 0.65030  0.99690  0.71860  Biso   1.000  C
  C44      1.0000 0.71050  0.99560  0.79460  Biso   1.000  C
  C45      1.0000 0.48580  0.76720  0.79200  Biso   1.000  C
  C46      1.0000 0.50910  0.73960  0.71530  Biso   1.000  C
  C47      1.0000 0.90840  0.75880  0.78810  Biso   1.000  C
  C48      1.0000 0.93270  0.79840  0.71730  Biso   1.000  C
  Ba11     1.0000 0.44355  0.62135  0.94560  Biso   1.000  Ba
  Ba12     1.0000 0.58057  0.39510  0.43862  Biso   1.000  Ba
  O103     1.0000 0.21960  0.70119  0.59336  Biso   1.000  O
  O104     1.0000 0.53490  0.77760  0.97411  Biso   1.000  O
