data_image0
_cell_length_a       6.8431
_cell_length_b       8.9881
_cell_length_c       9.9755
_cell_angle_alpha    102.096
_cell_angle_beta     100.554
_cell_angle_gamma    110.17

_symmetry_space_group_name_H-M    "P 1"
_symmetry_int_tables_number       1

loop_
  _symmetry_equiv_pos_as_xyz
  'x, y, z'

loop_
  _atom_site_label
  _atom_site_occupancy
  _atom_site_fract_x
  _atom_site_fract_y
  _atom_site_fract_z
  _atom_site_thermal_displace_type
  _atom_site_B_iso_or_equiv
  _atom_site_type_symbol
  O1       1.0000 0.57877  0.85261  0.26684  Biso   1.000  O
  C1       1.0000 0.65591  0.92590  0.39436  Biso   1.000  C
  O2       1.0000 0.36966  0.47957  0.86504  Biso   1.000  O
  O3       1.0000 0.03347  0.40874  0.87783  Biso   1.000  O
  C2       1.0000 0.16814  0.41054  0.80693  Biso   1.000  C
  C3       1.0000 0.08447  0.32821  0.64917  Biso   1.000  C
  C4       1.0000 0.91053  0.17428  0.59723  Biso   1.000  C
  C5       1.0000 0.83334  0.09416  0.45087  Biso   1.000  C
  Ca1      1.0000 0.31483  0.58486  0.10992  Biso   1.000  Ca
  O4       1.0000 0.32522  0.55818  0.35310  Biso   1.000  O
  O5       1.0000 0.14025  0.32791  0.17662  Biso   1.000  O
  O6       1.0000 0.59329  0.86312  0.49468  Biso   1.000  O
  C6       1.0000 0.09664  0.32568  0.40844  Biso   1.000  C
  C7       1.0000 0.19407  0.40883  0.30724  Biso   1.000  C
  C8       1.0000 0.17772  0.40415  0.55519  Biso   1.000  C
  H1       1.0000 0.29390  0.50700  0.59020  Biso   1.000  H
  H2       1.0000 0.84600  0.12500  0.66000  Biso   1.000  H
  C9       1.0000 0.92582  0.17007  0.35647  Biso   1.000  C
  H3       1.0000 0.87340  0.11680  0.25880  Biso   1.000  H
  O7       1.0000 0.42123  0.14739  0.73316  Biso   1.000  O
  C10      1.0000 0.34409  0.07410  0.60564  Biso   1.000  C
  O8       1.0000 0.63034  0.52043  0.13496  Biso   1.000  O
  O9       1.0000 0.96653  0.59126  0.12217  Biso   1.000  O
  C11      1.0000 0.83186  0.58946  0.19307  Biso   1.000  C
  C12      1.0000 0.91553  0.67179  0.35083  Biso   1.000  C
  C13      1.0000 0.08947  0.82572  0.40277  Biso   1.000  C
  C14      1.0000 0.16666  0.90584  0.54913  Biso   1.000  C
  Ca2      1.0000 0.68517  0.41514  0.89008  Biso   1.000  Ca
  O10      1.0000 0.67478  0.44182  0.64690  Biso   1.000  O
  O11      1.0000 0.85975  0.67209  0.82338  Biso   1.000  O
  O12      1.0000 0.40671  0.13688  0.50532  Biso   1.000  O
  C15      1.0000 0.90336  0.67432  0.59156  Biso   1.000  C
  C16      1.0000 0.80593  0.59117  0.69276  Biso   1.000  C
  C17      1.0000 0.82228  0.59585  0.44481  Biso   1.000  C
  H4       1.0000 0.70610  0.49300  0.40980  Biso   1.000  H
  H5       1.0000 0.15400  0.87500  0.34000  Biso   1.000  H
  C18      1.0000 0.07418  0.82993  0.64353  Biso   1.000  C
  H6       1.0000 0.12660  0.88320  0.74120  Biso   1.000  H
