data_image0
_cell_length_a       22.9206
_cell_length_b       7.7047
_cell_length_c       19.3208
_cell_angle_alpha    90
_cell_angle_beta     114.596
_cell_angle_gamma    90

_symmetry_space_group_name_H-M    "P 1"
_symmetry_int_tables_number       1

loop_
  _symmetry_equiv_pos_as_xyz
  'x, y, z'

loop_
  _atom_site_label
  _atom_site_occupancy
  _atom_site_fract_x
  _atom_site_fract_y
  _atom_site_fract_z
  _atom_site_thermal_displace_type
  _atom_site_B_iso_or_equiv
  _atom_site_type_symbol
  Cd1      1.0000 0.24758  0.28420  0.27249  Biso   1.000  Cd
  O1       1.0000 0.24950  0.08010  0.17776  Biso   1.000  O
  O2       1.0000 0.25425  0.85920  0.11015  Biso   1.000  O
  C1       1.0000 0.25129  0.01800  0.11836  Biso   1.000  C
  C2       1.0000 0.25072  0.13790  0.05730  Biso   1.000  C
  C3       1.0000 0.24870  0.31750  0.06520  Biso   1.000  C
  H1       1.0000 0.24780  0.36380  0.10980  Biso   1.000  H
  C4       1.0000 0.25200  0.07160  0.99125  Biso   1.000  C
  H2       1.0000 0.25330  0.95090  0.98490  Biso   1.000  H
  N1       1.0000 0.32783  0.09100  0.34824  Biso   1.000  N
  N2       1.0000 0.33439  0.92090  0.33077  Biso   1.000  N
  C5       1.0000 0.37493  0.12460  0.41360  Biso   1.000  C
  H3       1.0000 0.38190  0.23170  0.43910  Biso   1.000  H
  C6       1.0000 0.38510  0.85880  0.38650  Biso   1.000  C
  H4       1.0000 0.40040  0.74460  0.38940  Biso   1.000  H
  N3       1.0000 0.41237  0.98270  0.43945  Biso   1.000  N
  C7       1.0000 0.47250  0.97020  0.50910  Biso   1.000  C
  H5       1.0000 0.47960  0.84990  0.52730  Biso   1.000  H
  H6       1.0000 0.46980  0.04320  0.54920  Biso   1.000  H
  N4       1.0000 0.16821  0.08520  0.26511  Biso   1.000  N
  N5       1.0000 0.16871  0.91150  0.24930  Biso   1.000  N
  C8       1.0000 0.11980  0.11160  0.28230  Biso   1.000  C
  H7       1.0000 0.10880  0.21940  0.29630  Biso   1.000  H
  C9       1.0000 0.12038  0.84160  0.25750  Biso   1.000  C
  H8       1.0000 0.10970  0.72310  0.25050  Biso   1.000  H
  N6       1.0000 0.08769  0.96210  0.27730  Biso   1.000  N
  C10      1.0000 0.02840  0.94050  0.28850  Biso   1.000  C
  H9       1.0000 0.02420  0.03560  0.31980  Biso   1.000  H
  H10      1.0000 0.02990  0.83090  0.31490  Biso   1.000  H
  Cd2      1.0000 0.74758  0.78420  0.27249  Biso   1.000  Cd
  O3       1.0000 0.74950  0.58010  0.17776  Biso   1.000  O
  O4       1.0000 0.75425  0.35920  0.11015  Biso   1.000  O
  C11      1.0000 0.75129  0.51800  0.11836  Biso   1.000  C
  C12      1.0000 0.75072  0.63790  0.05730  Biso   1.000  C
  C13      1.0000 0.74870  0.81750  0.06520  Biso   1.000  C
  H11      1.0000 0.74780  0.86380  0.10980  Biso   1.000  H
  C14      1.0000 0.75200  0.57160  0.99125  Biso   1.000  C
  H12      1.0000 0.75330  0.45090  0.98490  Biso   1.000  H
  N7       1.0000 0.82783  0.59100  0.34824  Biso   1.000  N
  N8       1.0000 0.83439  0.42090  0.33077  Biso   1.000  N
  C15      1.0000 0.87493  0.62460  0.41360  Biso   1.000  C
  H13      1.0000 0.88190  0.73170  0.43910  Biso   1.000  H
  C16      1.0000 0.88510  0.35880  0.38650  Biso   1.000  C
  H14      1.0000 0.90040  0.24460  0.38940  Biso   1.000  H
  N9       1.0000 0.91237  0.48270  0.43945  Biso   1.000  N
  C17      1.0000 0.97250  0.47020  0.50910  Biso   1.000  C
  H15      1.0000 0.97960  0.34990  0.52730  Biso   1.000  H
  H16      1.0000 0.96980  0.54320  0.54920  Biso   1.000  H
  N10      1.0000 0.66821  0.58520  0.26511  Biso   1.000  N
  N11      1.0000 0.66871  0.41150  0.24930  Biso   1.000  N
  C18      1.0000 0.61980  0.61160  0.28230  Biso   1.000  C
  H17      1.0000 0.60880  0.71940  0.29630  Biso   1.000  H
  C19      1.0000 0.62038  0.34160  0.25750  Biso   1.000  C
  H18      1.0000 0.60970  0.22310  0.25050  Biso   1.000  H
  N12      1.0000 0.58769  0.46210  0.27730  Biso   1.000  N
  C20      1.0000 0.52840  0.44050  0.28850  Biso   1.000  C
  H19      1.0000 0.52420  0.53560  0.31980  Biso   1.000  H
  H20      1.0000 0.52990  0.33090  0.31490  Biso   1.000  H
  Cd3      1.0000 0.75242  0.28420  0.22751  Biso   1.000  Cd
  O5       1.0000 0.75050  0.08010  0.32224  Biso   1.000  O
  O6       1.0000 0.74575  0.85920  0.38985  Biso   1.000  O
  C21      1.0000 0.74871  0.01800  0.38164  Biso   1.000  C
  C22      1.0000 0.74928  0.13790  0.44270  Biso   1.000  C
  C23      1.0000 0.75130  0.31750  0.43480  Biso   1.000  C
  H21      1.0000 0.75220  0.36380  0.39020  Biso   1.000  H
  C24      1.0000 0.74800  0.07160  0.50875  Biso   1.000  C
  H22      1.0000 0.74670  0.95090  0.51510  Biso   1.000  H
  N13      1.0000 0.67217  0.09100  0.15176  Biso   1.000  N
  N14      1.0000 0.66561  0.92090  0.16923  Biso   1.000  N
  C25      1.0000 0.62507  0.12460  0.08640  Biso   1.000  C
  H23      1.0000 0.61810  0.23170  0.06090  Biso   1.000  H
  C26      1.0000 0.61490  0.85880  0.11350  Biso   1.000  C
  H24      1.0000 0.59960  0.74460  0.11060  Biso   1.000  H
  N15      1.0000 0.58763  0.98270  0.06055  Biso   1.000  N
  C27      1.0000 0.52750  0.97020  0.99090  Biso   1.000  C
  H25      1.0000 0.52040  0.84990  0.97270  Biso   1.000  H
  H26      1.0000 0.53020  0.04320  0.95080  Biso   1.000  H
  N16      1.0000 0.83179  0.08520  0.23489  Biso   1.000  N
  N17      1.0000 0.83129  0.91150  0.25070  Biso   1.000  N
  C28      1.0000 0.88020  0.11160  0.21770  Biso   1.000  C
  H27      1.0000 0.89120  0.21940  0.20370  Biso   1.000  H
  C29      1.0000 0.87962  0.84160  0.24250  Biso   1.000  C
  H28      1.0000 0.89030  0.72310  0.24950  Biso   1.000  H
  N18      1.0000 0.91231  0.96210  0.22270  Biso   1.000  N
  C30      1.0000 0.97160  0.94050  0.21150  Biso   1.000  C
  H29      1.0000 0.97580  0.03560  0.18020  Biso   1.000  H
  H30      1.0000 0.97010  0.83090  0.18510  Biso   1.000  H
  Cd4      1.0000 0.25242  0.78420  0.22751  Biso   1.000  Cd
  O7       1.0000 0.25050  0.58010  0.32224  Biso   1.000  O
  O8       1.0000 0.24575  0.35920  0.38985  Biso   1.000  O
  C31      1.0000 0.24871  0.51800  0.38164  Biso   1.000  C
  C32      1.0000 0.24928  0.63790  0.44270  Biso   1.000  C
  C33      1.0000 0.25130  0.81750  0.43480  Biso   1.000  C
  H31      1.0000 0.25220  0.86380  0.39020  Biso   1.000  H
  C34      1.0000 0.24800  0.57160  0.50875  Biso   1.000  C
  H32      1.0000 0.24670  0.45090  0.51510  Biso   1.000  H
  N19      1.0000 0.17217  0.59100  0.15176  Biso   1.000  N
  N20      1.0000 0.16561  0.42090  0.16923  Biso   1.000  N
  C35      1.0000 0.12507  0.62460  0.08640  Biso   1.000  C
  H33      1.0000 0.11810  0.73170  0.06090  Biso   1.000  H
  C36      1.0000 0.11490  0.35880  0.11350  Biso   1.000  C
  H34      1.0000 0.09960  0.24460  0.11060  Biso   1.000  H
  N21      1.0000 0.08763  0.48270  0.06055  Biso   1.000  N
  C37      1.0000 0.02750  0.47020  0.99090  Biso   1.000  C
  H35      1.0000 0.02040  0.34990  0.97270  Biso   1.000  H
  H36      1.0000 0.03020  0.54320  0.95080  Biso   1.000  H
  N22      1.0000 0.33179  0.58520  0.23489  Biso   1.000  N
  N23      1.0000 0.33129  0.41150  0.25070  Biso   1.000  N
  C38      1.0000 0.38020  0.61160  0.21770  Biso   1.000  C
  H37      1.0000 0.39120  0.71940  0.20370  Biso   1.000  H
  C39      1.0000 0.37962  0.34160  0.24250  Biso   1.000  C
  H38      1.0000 0.39030  0.22310  0.24950  Biso   1.000  H
  N24      1.0000 0.41231  0.46210  0.22270  Biso   1.000  N
  C40      1.0000 0.47160  0.44050  0.21150  Biso   1.000  C
  H39      1.0000 0.47580  0.53560  0.18020  Biso   1.000  H
  H40      1.0000 0.47010  0.33090  0.18510  Biso   1.000  H
  Cd5      1.0000 0.75242  0.71580  0.72751  Biso   1.000  Cd
  O9       1.0000 0.75050  0.91990  0.82224  Biso   1.000  O
  O10      1.0000 0.74575  0.14080  0.88985  Biso   1.000  O
  C41      1.0000 0.74871  0.98200  0.88164  Biso   1.000  C
  C42      1.0000 0.74928  0.86210  0.94270  Biso   1.000  C
  C43      1.0000 0.75130  0.68250  0.93480  Biso   1.000  C
  H41      1.0000 0.75220  0.63620  0.89020  Biso   1.000  H
  C44      1.0000 0.74800  0.92840  0.00875  Biso   1.000  C
  H42      1.0000 0.74670  0.04910  0.01510  Biso   1.000  H
  N25      1.0000 0.67217  0.90900  0.65176  Biso   1.000  N
  N26      1.0000 0.66561  0.07910  0.66923  Biso   1.000  N
  C45      1.0000 0.62507  0.87540  0.58640  Biso   1.000  C
  H43      1.0000 0.61810  0.76830  0.56090  Biso   1.000  H
  C46      1.0000 0.61490  0.14120  0.61350  Biso   1.000  C
  H44      1.0000 0.59960  0.25540  0.61060  Biso   1.000  H
  N27      1.0000 0.58763  0.01730  0.56055  Biso   1.000  N
  C47      1.0000 0.52750  0.02980  0.49090  Biso   1.000  C
  H45      1.0000 0.52040  0.15010  0.47270  Biso   1.000  H
  H46      1.0000 0.53020  0.95680  0.45080  Biso   1.000  H
  N28      1.0000 0.83179  0.91480  0.73489  Biso   1.000  N
  N29      1.0000 0.83129  0.08850  0.75070  Biso   1.000  N
  C48      1.0000 0.88020  0.88840  0.71770  Biso   1.000  C
  H47      1.0000 0.89120  0.78060  0.70370  Biso   1.000  H
  C49      1.0000 0.87962  0.15840  0.74250  Biso   1.000  C
  H48      1.0000 0.89030  0.27690  0.74950  Biso   1.000  H
  N30      1.0000 0.91231  0.03790  0.72270  Biso   1.000  N
  C50      1.0000 0.97160  0.05950  0.71150  Biso   1.000  C
  H49      1.0000 0.97580  0.96440  0.68020  Biso   1.000  H
  H50      1.0000 0.97010  0.16910  0.68510  Biso   1.000  H
  Cd6      1.0000 0.25242  0.21580  0.72751  Biso   1.000  Cd
  O11      1.0000 0.25050  0.41990  0.82224  Biso   1.000  O
  O12      1.0000 0.24575  0.64080  0.88985  Biso   1.000  O
  C51      1.0000 0.24871  0.48200  0.88164  Biso   1.000  C
  C52      1.0000 0.24928  0.36210  0.94270  Biso   1.000  C
  C53      1.0000 0.25130  0.18250  0.93480  Biso   1.000  C
  H51      1.0000 0.25220  0.13620  0.89020  Biso   1.000  H
  C54      1.0000 0.24800  0.42840  0.00875  Biso   1.000  C
  H52      1.0000 0.24670  0.54910  0.01510  Biso   1.000  H
  N31      1.0000 0.17217  0.40900  0.65176  Biso   1.000  N
  N32      1.0000 0.16561  0.57910  0.66923  Biso   1.000  N
  C55      1.0000 0.12507  0.37540  0.58640  Biso   1.000  C
  H53      1.0000 0.11810  0.26830  0.56090  Biso   1.000  H
  C56      1.0000 0.11490  0.64120  0.61350  Biso   1.000  C
  H54      1.0000 0.09960  0.75540  0.61060  Biso   1.000  H
  N33      1.0000 0.08763  0.51730  0.56055  Biso   1.000  N
  C57      1.0000 0.02750  0.52980  0.49090  Biso   1.000  C
  H55      1.0000 0.02040  0.65010  0.47270  Biso   1.000  H
  H56      1.0000 0.03020  0.45680  0.45080  Biso   1.000  H
  N34      1.0000 0.33179  0.41480  0.73489  Biso   1.000  N
  N35      1.0000 0.33129  0.58850  0.75070  Biso   1.000  N
  C58      1.0000 0.38020  0.38840  0.71770  Biso   1.000  C
  H57      1.0000 0.39120  0.28060  0.70370  Biso   1.000  H
  C59      1.0000 0.37962  0.65840  0.74250  Biso   1.000  C
  H58      1.0000 0.39030  0.77690  0.74950  Biso   1.000  H
  N36      1.0000 0.41231  0.53790  0.72270  Biso   1.000  N
  C60      1.0000 0.47160  0.55950  0.71150  Biso   1.000  C
  H59      1.0000 0.47580  0.46440  0.68020  Biso   1.000  H
  H60      1.0000 0.47010  0.66910  0.68510  Biso   1.000  H
  Cd7      1.0000 0.24758  0.71580  0.77249  Biso   1.000  Cd
  O13      1.0000 0.24950  0.91990  0.67776  Biso   1.000  O
  O14      1.0000 0.25425  0.14080  0.61015  Biso   1.000  O
  C61      1.0000 0.25129  0.98200  0.61836  Biso   1.000  C
  C62      1.0000 0.25072  0.86210  0.55730  Biso   1.000  C
  C63      1.0000 0.24870  0.68250  0.56520  Biso   1.000  C
  H61      1.0000 0.24780  0.63620  0.60980  Biso   1.000  H
  C64      1.0000 0.25200  0.92840  0.49125  Biso   1.000  C
  H62      1.0000 0.25330  0.04910  0.48490  Biso   1.000  H
  N37      1.0000 0.32783  0.90900  0.84824  Biso   1.000  N
  N38      1.0000 0.33439  0.07910  0.83077  Biso   1.000  N
  C65      1.0000 0.37493  0.87540  0.91360  Biso   1.000  C
  H63      1.0000 0.38190  0.76830  0.93910  Biso   1.000  H
  C66      1.0000 0.38510  0.14120  0.88650  Biso   1.000  C
  H64      1.0000 0.40040  0.25540  0.88940  Biso   1.000  H
  N39      1.0000 0.41237  0.01730  0.93945  Biso   1.000  N
  C67      1.0000 0.47250  0.02980  0.00910  Biso   1.000  C
  H65      1.0000 0.47960  0.15010  0.02730  Biso   1.000  H
  H66      1.0000 0.46980  0.95680  0.04920  Biso   1.000  H
  N40      1.0000 0.16821  0.91480  0.76511  Biso   1.000  N
  N41      1.0000 0.16871  0.08850  0.74930  Biso   1.000  N
  C68      1.0000 0.11980  0.88840  0.78230  Biso   1.000  C
  H67      1.0000 0.10880  0.78060  0.79630  Biso   1.000  H
  C69      1.0000 0.12038  0.15840  0.75750  Biso   1.000  C
  H68      1.0000 0.10970  0.27690  0.75050  Biso   1.000  H
  N42      1.0000 0.08769  0.03790  0.77730  Biso   1.000  N
  C70      1.0000 0.02840  0.05950  0.78850  Biso   1.000  C
  H69      1.0000 0.02420  0.96440  0.81980  Biso   1.000  H
  H70      1.0000 0.02990  0.16910  0.81490  Biso   1.000  H
  Cd8      1.0000 0.74758  0.21580  0.77249  Biso   1.000  Cd
  O15      1.0000 0.74950  0.41990  0.67776  Biso   1.000  O
  O16      1.0000 0.75425  0.64080  0.61015  Biso   1.000  O
  C71      1.0000 0.75129  0.48200  0.61836  Biso   1.000  C
  C72      1.0000 0.75072  0.36210  0.55730  Biso   1.000  C
  C73      1.0000 0.74870  0.18250  0.56520  Biso   1.000  C
  H71      1.0000 0.74780  0.13620  0.60980  Biso   1.000  H
  C74      1.0000 0.75200  0.42840  0.49125  Biso   1.000  C
  H72      1.0000 0.75330  0.54910  0.48490  Biso   1.000  H
  N43      1.0000 0.82783  0.40900  0.84824  Biso   1.000  N
  N44      1.0000 0.83439  0.57910  0.83077  Biso   1.000  N
  C75      1.0000 0.87493  0.37540  0.91360  Biso   1.000  C
  H73      1.0000 0.88190  0.26830  0.93910  Biso   1.000  H
  C76      1.0000 0.88510  0.64120  0.88650  Biso   1.000  C
  H74      1.0000 0.90040  0.75540  0.88940  Biso   1.000  H
  N45      1.0000 0.91237  0.51730  0.93945  Biso   1.000  N
  C77      1.0000 0.97250  0.52980  0.00910  Biso   1.000  C
  H75      1.0000 0.97960  0.65010  0.02730  Biso   1.000  H
  H76      1.0000 0.96980  0.45680  0.04920  Biso   1.000  H
  N46      1.0000 0.66821  0.41480  0.76511  Biso   1.000  N
  N47      1.0000 0.66871  0.58850  0.74930  Biso   1.000  N
  C78      1.0000 0.61980  0.38840  0.78230  Biso   1.000  C
  H77      1.0000 0.60880  0.28060  0.79630  Biso   1.000  H
  C79      1.0000 0.62038  0.65840  0.75750  Biso   1.000  C
  H78      1.0000 0.60970  0.77690  0.75050  Biso   1.000  H
  N48      1.0000 0.58769  0.53790  0.77730  Biso   1.000  N
  C80      1.0000 0.52840  0.55950  0.78850  Biso   1.000  C
  H79      1.0000 0.52420  0.46440  0.81980  Biso   1.000  H
  H80      1.0000 0.52990  0.66910  0.81490  Biso   1.000  H
