data_image0
_cell_length_a       15.637
_cell_length_b       15.691
_cell_length_c       16.291
_cell_angle_alpha    90.097
_cell_angle_beta     90.067
_cell_angle_gamma    90.015

_symmetry_space_group_name_H-M    "P 1"
_symmetry_int_tables_number       1

loop_
  _symmetry_equiv_pos_as_xyz
  'x, y, z'

loop_
  _atom_site_label
  _atom_site_occupancy
  _atom_site_fract_x
  _atom_site_fract_y
  _atom_site_fract_z
  _atom_site_thermal_displace_type
  _atom_site_B_iso_or_equiv
  _atom_site_type_symbol
  Zn1      1.0000 0.12529  0.00007  0.46407  Biso   1.000  Zn
  Zn2      1.0000 0.37470  0.99988  0.96416  Biso   1.000  Zn
  O1       1.0000 0.37360  0.99890  0.08886  Biso   1.000  O
  O2       1.0000 0.12640  0.00040  0.58781  Biso   1.000  O
  O3       1.0000 0.24000  0.99930  0.95880  Biso   1.000  O
  O4       1.0000 0.26040  0.99960  0.45930  Biso   1.000  O
  O5       1.0000 0.19750  0.00080  0.33946  Biso   1.000  O
  O6       1.0000 0.30254  0.00050  0.83900  Biso   1.000  O
  C1       1.0000 0.06710  0.99970  0.72000  Biso   1.000  C
  C2       1.0000 0.43410  0.99850  0.21980  Biso   1.000  C
  O7       1.0000 0.98710  0.99950  0.59675  Biso   1.000  O
  O8       1.0000 0.51210  0.00070  0.09745  Biso   1.000  O
  C3       1.0000 0.35500  0.00030  0.25690  Biso   1.000  C
  H1       1.0000 0.30550  0.00190  0.22520  Biso   1.000  H
  C4       1.0000 0.44170  0.00120  0.12830  Biso   1.000  C
  C5       1.0000 0.14510  0.99840  0.75860  Biso   1.000  C
  H2       1.0000 0.19470  0.99580  0.72730  Biso   1.000  H
  C6       1.0000 0.07750  0.99940  0.89000  Biso   1.000  C
  H3       1.0000 0.08150  0.99780  0.94690  Biso   1.000  H
  C7       1.0000 0.42190  0.00080  0.38950  Biso   1.000  C
  H4       1.0000 0.41820  0.00170  0.44650  Biso   1.000  H
  O9       1.0000 0.92870  0.00420  0.90230  Biso   1.000  O
  C8       1.0000 0.05910  0.99910  0.62840  Biso   1.000  C
  O10      1.0000 0.57090  0.00020  0.40270  Biso   1.000  O
  C9       1.0000 0.26280  0.00000  0.38400  Biso   1.000  C
  C10      1.0000 0.23680  0.99910  0.88440  Biso   1.000  C
  C11      1.0000 0.99040  0.00080  0.76650  Biso   1.000  C
  H5       1.0000 0.93720  0.00170  0.74090  Biso   1.000  H
  C12      1.0000 0.15120  0.00070  0.84170  Biso   1.000  C
  C13      1.0000 0.34970  0.99980  0.34290  Biso   1.000  C
  C14      1.0000 0.50910  0.99900  0.26510  Biso   1.000  C
  H6       1.0000 0.56220  0.99840  0.23940  Biso   1.000  H
  C15      1.0000 0.50260  0.00030  0.35070  Biso   1.000  C
  C16      1.0000 0.99760  0.00060  0.85150  Biso   1.000  C
  N1       1.0000 0.38080  0.13180  0.96140  Biso   1.000  N
  N2       1.0000 0.11910  0.87050  0.46080  Biso   1.000  N
  N3       1.0000 0.37920  0.86630  0.96060  Biso   1.000  N
  N4       1.0000 0.11990  0.13120  0.46190  Biso   1.000  N
  C17      1.0000 0.11770  0.68210  0.45970  Biso   1.000  C
  C18      1.0000 0.38350  0.68440  0.95980  Biso   1.000  C
  C19      1.0000 0.11720  0.58980  0.45940  Biso   1.000  C
  C20      1.0000 0.38210  0.59370  0.95970  Biso   1.000  C
  C21      1.0000 0.35250  0.81280  0.02480  Biso   1.000  C
  H7       1.0000 0.33260  0.83970  0.07200  Biso   1.000  H
  C22      1.0000 0.35230  0.18380  0.02510  Biso   1.000  C
  H8       1.0000 0.33170  0.15640  0.07170  Biso   1.000  H
  C23      1.0000 0.35270  0.72750  0.02570  Biso   1.000  C
  H9       1.0000 0.33190  0.69810  0.07100  Biso   1.000  H
  C24      1.0000 0.14990  0.81260  0.52290  Biso   1.000  C
  H10      1.0000 0.17590  0.83780  0.56810  Biso   1.000  H
  C25      1.0000 0.14600  0.72720  0.52390  Biso   1.000  C
  H11      1.0000 0.16360  0.69840  0.57090  Biso   1.000  H
  C26      1.0000 0.14830  0.18290  0.52360  Biso   1.000  C
  H12      1.0000 0.16990  0.15590  0.57000  Biso   1.000  H
  C27      1.0000 0.14830  0.27110  0.52490  Biso   1.000  C
  H13      1.0000 0.16950  0.30000  0.57050  Biso   1.000  H
  C28      1.0000 0.08600  0.17960  0.39930  Biso   1.000  C
  H14      1.0000 0.06190  0.15050  0.35520  Biso   1.000  H
  C29      1.0000 0.41450  0.81890  0.89780  Biso   1.000  C
  H15      1.0000 0.43910  0.84760  0.85380  Biso   1.000  H
  C30      1.0000 0.08760  0.73810  0.39590  Biso   1.000  C
  H16      1.0000 0.06410  0.71260  0.34950  Biso   1.000  H
  C31      1.0000 0.09020  0.82720  0.39690  Biso   1.000  C
  H17      1.0000 0.07100  0.85690  0.35120  Biso   1.000  H
  C32      1.0000 0.41530  0.73100  0.89690  Biso   1.000  C
  H18      1.0000 0.43820  0.70290  0.85170  Biso   1.000  H
  C33      1.0000 0.41160  0.18430  0.89840  Biso   1.000  C
  H19      1.0000 0.42820  0.15630  0.85070  Biso   1.000  H
  C34      1.0000 0.11780  0.31540  0.46040  Biso   1.000  C
  C35      1.0000 0.38280  0.31860  0.95930  Biso   1.000  C
  C36      1.0000 0.38240  0.40990  0.95870  Biso   1.000  C
  C37      1.0000 0.11840  0.40840  0.45940  Biso   1.000  C
  C38      1.0000 0.35130  0.26900  0.02630  Biso   1.000  C
  H20      1.0000 0.32950  0.29680  0.07220  Biso   1.000  H
  C39      1.0000 0.42000  0.26630  0.89740  Biso   1.000  C
  H21      1.0000 0.45110  0.29160  0.85530  Biso   1.000  H
  C40      1.0000 0.08460  0.26750  0.39630  Biso   1.000  C
  H22      1.0000 0.06120  0.29480  0.35090  Biso   1.000  H
  C41      1.0000 0.36970  0.45500  0.02620  Biso   1.000  C
  H23      1.0000 0.36220  0.42570  0.07520  Biso   1.000  H
  C42      1.0000 0.40140  0.46360  0.89250  Biso   1.000  C
  H24      1.0000 0.40810  0.43850  0.84120  Biso   1.000  H
  C43      1.0000 0.09810  0.54100  0.39340  Biso   1.000  C
  H25      1.0000 0.08170  0.56870  0.34550  Biso   1.000  H
  C44      1.0000 0.10100  0.45620  0.39170  Biso   1.000  C
  H26      1.0000 0.09070  0.42850  0.34220  Biso   1.000  H
  C45      1.0000 0.41030  0.54600  0.89750  Biso   1.000  C
  H27      1.0000 0.43820  0.57360  0.85470  Biso   1.000  H
  C46      1.0000 0.13120  0.45780  0.52580  Biso   1.000  C
  H28      1.0000 0.13750  0.43090  0.57620  Biso   1.000  H
  C47      1.0000 0.36670  0.54310  0.02860  Biso   1.000  C
  H29      1.0000 0.35400  0.56980  0.07810  Biso   1.000  H
  C48      1.0000 0.13540  0.53820  0.52450  Biso   1.000  C
  C49      1.0000 0.65090  0.05940  0.37050  Biso   1.000  C
  H30      1.0000 0.69670  0.04810  0.40930  Biso   1.000  H
  H31      1.0000 0.66860  0.03280  0.31950  Biso   1.000  H
  C50      1.0000 0.73060  0.18420  0.30880  Biso   1.000  C
  H32      1.0000 0.76950  0.14250  0.29290  Biso   1.000  H
  C51      1.0000 0.65780  0.16150  0.35260  Biso   1.000  C
  C52      1.0000 0.59960  0.22370  0.37640  Biso   1.000  C
  H33      1.0000 0.55090  0.20860  0.40570  Biso   1.000  H
  C53      1.0000 0.61420  0.30860  0.35660  Biso   1.000  C
  H34      1.0000 0.57530  0.35020  0.37250  Biso   1.000  H
  C54      1.0000 0.68700  0.33130  0.31280  Biso   1.000  C
  H35      1.0000 0.69680  0.38800  0.29950  Biso   1.000  H
  C55      1.0000 0.74520  0.26900  0.28900  Biso   1.000  C
  H36      1.0000 0.79390  0.28420  0.25970  Biso   1.000  H
  Zn3      1.0000 0.87471  0.99993  0.53593  Biso   1.000  Zn
  Zn4      1.0000 0.62530  0.00012  0.03584  Biso   1.000  Zn
  O11      1.0000 0.62640  0.00110  0.91114  Biso   1.000  O
  O12      1.0000 0.87360  0.99960  0.41219  Biso   1.000  O
  O13      1.0000 0.76000  0.00070  0.04120  Biso   1.000  O
  O14      1.0000 0.73960  0.00040  0.54070  Biso   1.000  O
  O15      1.0000 0.80250  0.99920  0.66054  Biso   1.000  O
  O16      1.0000 0.69746  0.99950  0.16100  Biso   1.000  O
  C56      1.0000 0.93290  0.00030  0.28000  Biso   1.000  C
  C57      1.0000 0.56590  0.00150  0.78020  Biso   1.000  C
  O17      1.0000 0.01290  0.00050  0.40325  Biso   1.000  O
  O18      1.0000 0.48790  0.99930  0.90255  Biso   1.000  O
  C58      1.0000 0.64500  0.99970  0.74310  Biso   1.000  C
  H37      1.0000 0.69450  0.99810  0.77480  Biso   1.000  H
  C59      1.0000 0.55830  0.99880  0.87170  Biso   1.000  C
  C60      1.0000 0.85490  0.00160  0.24140  Biso   1.000  C
  H38      1.0000 0.80530  0.00420  0.27270  Biso   1.000  H
  C61      1.0000 0.92250  0.00060  0.11000  Biso   1.000  C
  H39      1.0000 0.91850  0.00220  0.05310  Biso   1.000  H
  C62      1.0000 0.57810  0.99920  0.61050  Biso   1.000  C
  H40      1.0000 0.58180  0.99830  0.55350  Biso   1.000  H
  O19      1.0000 0.07130  0.99580  0.09770  Biso   1.000  O
  C63      1.0000 0.94090  0.00090  0.37160  Biso   1.000  C
  O20      1.0000 0.42910  0.99980  0.59730  Biso   1.000  O
  C64      1.0000 0.73720  0.00000  0.61600  Biso   1.000  C
  C65      1.0000 0.76320  0.00090  0.11560  Biso   1.000  C
  C66      1.0000 0.00960  0.99920  0.23350  Biso   1.000  C
  H41      1.0000 0.06280  0.99830  0.25910  Biso   1.000  H
  C67      1.0000 0.84880  0.99930  0.15830  Biso   1.000  C
  C68      1.0000 0.65030  0.00020  0.65710  Biso   1.000  C
  C69      1.0000 0.49090  0.00100  0.73490  Biso   1.000  C
  H42      1.0000 0.43780  0.00160  0.76060  Biso   1.000  H
  C70      1.0000 0.49740  0.99970  0.64930  Biso   1.000  C
  C71      1.0000 0.00240  0.99940  0.14850  Biso   1.000  C
  N5       1.0000 0.61920  0.86820  0.03860  Biso   1.000  N
  N6       1.0000 0.88090  0.12950  0.53920  Biso   1.000  N
  N7       1.0000 0.62080  0.13370  0.03940  Biso   1.000  N
  N8       1.0000 0.88010  0.86880  0.53810  Biso   1.000  N
  C72      1.0000 0.88230  0.31790  0.54030  Biso   1.000  C
  C73      1.0000 0.61650  0.31560  0.04020  Biso   1.000  C
  C74      1.0000 0.88280  0.41020  0.54060  Biso   1.000  C
  C75      1.0000 0.61790  0.40630  0.04030  Biso   1.000  C
  C76      1.0000 0.64750  0.18720  0.97520  Biso   1.000  C
  H43      1.0000 0.66740  0.16030  0.92800  Biso   1.000  H
  C77      1.0000 0.64770  0.81620  0.97490  Biso   1.000  C
  H44      1.0000 0.66830  0.84360  0.92830  Biso   1.000  H
  C78      1.0000 0.64730  0.27250  0.97430  Biso   1.000  C
  H45      1.0000 0.66810  0.30190  0.92900  Biso   1.000  H
  C79      1.0000 0.85010  0.18740  0.47710  Biso   1.000  C
  H46      1.0000 0.82410  0.16220  0.43190  Biso   1.000  H
  C80      1.0000 0.85400  0.27280  0.47610  Biso   1.000  C
  H47      1.0000 0.83640  0.30160  0.42910  Biso   1.000  H
  C81      1.0000 0.85170  0.81710  0.47640  Biso   1.000  C
  H48      1.0000 0.83010  0.84410  0.43000  Biso   1.000  H
  C82      1.0000 0.85170  0.72890  0.47510  Biso   1.000  C
  H49      1.0000 0.83050  0.70000  0.42950  Biso   1.000  H
  C83      1.0000 0.91400  0.82040  0.60070  Biso   1.000  C
  H50      1.0000 0.93810  0.84950  0.64480  Biso   1.000  H
  C84      1.0000 0.58550  0.18110  0.10220  Biso   1.000  C
  H51      1.0000 0.56090  0.15240  0.14620  Biso   1.000  H
  C85      1.0000 0.91240  0.26190  0.60410  Biso   1.000  C
  H52      1.0000 0.93590  0.28740  0.65050  Biso   1.000  H
  C86      1.0000 0.90980  0.17280  0.60310  Biso   1.000  C
  H53      1.0000 0.92900  0.14310  0.64880  Biso   1.000  H
  C87      1.0000 0.58470  0.26900  0.10310  Biso   1.000  C
  H54      1.0000 0.56180  0.29710  0.14830  Biso   1.000  H
  C88      1.0000 0.58840  0.81570  0.10160  Biso   1.000  C
  H55      1.0000 0.57180  0.84370  0.14930  Biso   1.000  H
  C89      1.0000 0.88220  0.68460  0.53960  Biso   1.000  C
  C90      1.0000 0.61720  0.68140  0.04070  Biso   1.000  C
  C91      1.0000 0.61760  0.59010  0.04130  Biso   1.000  C
  C92      1.0000 0.88160  0.59160  0.54060  Biso   1.000  C
  C93      1.0000 0.64870  0.73100  0.97370  Biso   1.000  C
  H56      1.0000 0.67050  0.70320  0.92780  Biso   1.000  H
  C94      1.0000 0.58000  0.73370  0.10260  Biso   1.000  C
  H57      1.0000 0.54890  0.70840  0.14470  Biso   1.000  H
  C95      1.0000 0.91540  0.73250  0.60370  Biso   1.000  C
  H58      1.0000 0.93880  0.70520  0.64910  Biso   1.000  H
  C96      1.0000 0.63030  0.54500  0.97380  Biso   1.000  C
  H59      1.0000 0.63780  0.57430  0.92480  Biso   1.000  H
  C97      1.0000 0.59860  0.53640  0.10750  Biso   1.000  C
  H60      1.0000 0.59190  0.56150  0.15880  Biso   1.000  H
  C98      1.0000 0.90190  0.45900  0.60660  Biso   1.000  C
  H61      1.0000 0.91830  0.43130  0.65450  Biso   1.000  H
  C99      1.0000 0.89900  0.54380  0.60830  Biso   1.000  C
  H62      1.0000 0.90930  0.57150  0.65780  Biso   1.000  H
  C100     1.0000 0.58970  0.45400  0.10250  Biso   1.000  C
  H63      1.0000 0.56180  0.42640  0.14530  Biso   1.000  H
  C101     1.0000 0.86880  0.54220  0.47420  Biso   1.000  C
  H64      1.0000 0.86250  0.56910  0.42380  Biso   1.000  H
  C102     1.0000 0.63330  0.45690  0.97140  Biso   1.000  C
  H65      1.0000 0.64600  0.43020  0.92190  Biso   1.000  H
  C103     1.0000 0.86460  0.46180  0.47550  Biso   1.000  C
  C104     1.0000 0.34910  0.94060  0.62950  Biso   1.000  C
  H66      1.0000 0.30330  0.95190  0.59070  Biso   1.000  H
  H67      1.0000 0.33140  0.96720  0.68050  Biso   1.000  H
  C105     1.0000 0.26940  0.81580  0.69120  Biso   1.000  C
  H68      1.0000 0.23050  0.85750  0.70710  Biso   1.000  H
  C106     1.0000 0.34220  0.83850  0.64740  Biso   1.000  C
  C107     1.0000 0.40040  0.77630  0.62360  Biso   1.000  C
  H69      1.0000 0.44910  0.79140  0.59430  Biso   1.000  H
  C108     1.0000 0.38580  0.69140  0.64340  Biso   1.000  C
  H70      1.0000 0.42470  0.64980  0.62750  Biso   1.000  H
  C109     1.0000 0.31300  0.66870  0.68720  Biso   1.000  C
  H71      1.0000 0.30320  0.61200  0.70050  Biso   1.000  H
  C110     1.0000 0.25480  0.73100  0.71100  Biso   1.000  C
  H72      1.0000 0.20610  0.71580  0.74030  Biso   1.000  H
