data_image0
_cell_length_a       25.645
_cell_length_b       11.555
_cell_length_c       7.012
_cell_angle_alpha    90
_cell_angle_beta     99.982
_cell_angle_gamma    90

_symmetry_space_group_name_H-M    "P 1"
_symmetry_int_tables_number       1

loop_
  _symmetry_equiv_pos_as_xyz
  'x, y, z'

loop_
  _atom_site_label
  _atom_site_occupancy
  _atom_site_fract_x
  _atom_site_fract_y
  _atom_site_fract_z
  _atom_site_thermal_displace_type
  _atom_site_B_iso_or_equiv
  _atom_site_type_symbol
  O1       1.0000 0.56868  0.97568  0.72490  Biso   1.000  O
  C1       1.0000 0.56941  0.07630  0.65580  Biso   1.000  C
  C2       1.0000 0.65686  0.11700  0.84900  Biso   1.000  C
  C3       1.0000 0.62042  0.14090  0.70020  Biso   1.000  C
  C4       1.0000 0.72300  0.27340  0.81570  Biso   1.000  C
  H1       1.0000 0.70540  0.28940  0.69110  Biso   1.000  H
  C5       1.0000 0.70525  0.18390  0.92160  Biso   1.000  C
  C6       1.0000 0.73324  0.16140  0.10480  Biso   1.000  C
  H2       1.0000 0.72240  0.10100  0.17650  Biso   1.000  H
  O2       1.0000 0.53095  0.12764  0.55690  Biso   1.000  O
  H3       1.0000 0.65660  0.06300  0.90700  Biso   1.000  H
  H4       1.0000 0.62500  0.20000  0.63500  Biso   1.000  H
  O3       1.0000 0.06868  0.47568  0.72490  Biso   1.000  O
  C7       1.0000 0.06941  0.57630  0.65580  Biso   1.000  C
  C8       1.0000 0.15686  0.61700  0.84900  Biso   1.000  C
  C9       1.0000 0.12042  0.64090  0.70020  Biso   1.000  C
  C10      1.0000 0.22300  0.77340  0.81570  Biso   1.000  C
  H5       1.0000 0.20540  0.78940  0.69110  Biso   1.000  H
  C11      1.0000 0.20525  0.68390  0.92160  Biso   1.000  C
  C12      1.0000 0.23324  0.66140  0.10480  Biso   1.000  C
  H6       1.0000 0.22240  0.60100  0.17650  Biso   1.000  H
  O4       1.0000 0.03095  0.62764  0.55690  Biso   1.000  O
  H7       1.0000 0.15660  0.56300  0.90700  Biso   1.000  H
  H8       1.0000 0.12500  0.70000  0.63500  Biso   1.000  H
  O5       1.0000 0.43132  0.97568  0.77510  Biso   1.000  O
  C13      1.0000 0.43059  0.07630  0.84420  Biso   1.000  C
  C14      1.0000 0.34314  0.11700  0.65100  Biso   1.000  C
  C15      1.0000 0.37958  0.14090  0.79980  Biso   1.000  C
  C16      1.0000 0.27700  0.27340  0.68430  Biso   1.000  C
  H9       1.0000 0.29460  0.28940  0.80890  Biso   1.000  H
  C17      1.0000 0.29475  0.18390  0.57840  Biso   1.000  C
  C18      1.0000 0.26676  0.16140  0.39520  Biso   1.000  C
  H10      1.0000 0.27760  0.10100  0.32350  Biso   1.000  H
  O6       1.0000 0.46905  0.12764  0.94310  Biso   1.000  O
  H11      1.0000 0.34340  0.06300  0.59300  Biso   1.000  H
  H12      1.0000 0.37500  0.20000  0.86500  Biso   1.000  H
  O7       1.0000 0.93132  0.47568  0.77510  Biso   1.000  O
  C19      1.0000 0.93059  0.57630  0.84420  Biso   1.000  C
  C20      1.0000 0.84314  0.61700  0.65100  Biso   1.000  C
  C21      1.0000 0.87958  0.64090  0.79980  Biso   1.000  C
  C22      1.0000 0.77700  0.77340  0.68430  Biso   1.000  C
  H13      1.0000 0.79460  0.78940  0.80890  Biso   1.000  H
  C23      1.0000 0.79475  0.68390  0.57840  Biso   1.000  C
  C24      1.0000 0.76676  0.66140  0.39520  Biso   1.000  C
  H14      1.0000 0.77760  0.60100  0.32350  Biso   1.000  H
  O8       1.0000 0.96905  0.62764  0.94310  Biso   1.000  O
  H15      1.0000 0.84340  0.56300  0.59300  Biso   1.000  H
  H16      1.0000 0.87500  0.70000  0.86500  Biso   1.000  H
  O9       1.0000 0.43132  0.02432  0.27510  Biso   1.000  O
  C25      1.0000 0.43059  0.92370  0.34420  Biso   1.000  C
  C26      1.0000 0.34314  0.88300  0.15100  Biso   1.000  C
  C27      1.0000 0.37958  0.85910  0.29980  Biso   1.000  C
  C28      1.0000 0.27700  0.72660  0.18430  Biso   1.000  C
  H17      1.0000 0.29460  0.71060  0.30890  Biso   1.000  H
  C29      1.0000 0.29475  0.81610  0.07840  Biso   1.000  C
  C30      1.0000 0.26676  0.83860  0.89520  Biso   1.000  C
  H18      1.0000 0.27760  0.89900  0.82350  Biso   1.000  H
  O10      1.0000 0.46905  0.87236  0.44310  Biso   1.000  O
  H19      1.0000 0.34340  0.93700  0.09300  Biso   1.000  H
  H20      1.0000 0.37500  0.80000  0.36500  Biso   1.000  H
  O11      1.0000 0.93132  0.52432  0.27510  Biso   1.000  O
  C31      1.0000 0.93059  0.42370  0.34420  Biso   1.000  C
  C32      1.0000 0.84314  0.38300  0.15100  Biso   1.000  C
  C33      1.0000 0.87958  0.35910  0.29980  Biso   1.000  C
  C34      1.0000 0.77700  0.22660  0.18430  Biso   1.000  C
  H21      1.0000 0.79460  0.21060  0.30890  Biso   1.000  H
  C35      1.0000 0.79475  0.31610  0.07840  Biso   1.000  C
  C36      1.0000 0.76676  0.33860  0.89520  Biso   1.000  C
  H22      1.0000 0.77760  0.39900  0.82350  Biso   1.000  H
  O12      1.0000 0.96905  0.37236  0.44310  Biso   1.000  O
  H23      1.0000 0.84340  0.43700  0.09300  Biso   1.000  H
  H24      1.0000 0.87500  0.30000  0.36500  Biso   1.000  H
  O13      1.0000 0.56868  0.02432  0.22490  Biso   1.000  O
  C37      1.0000 0.56941  0.92370  0.15580  Biso   1.000  C
  C38      1.0000 0.65686  0.88300  0.34900  Biso   1.000  C
  C39      1.0000 0.62042  0.85910  0.20020  Biso   1.000  C
  C40      1.0000 0.72300  0.72660  0.31570  Biso   1.000  C
  H25      1.0000 0.70540  0.71060  0.19110  Biso   1.000  H
  C41      1.0000 0.70525  0.81610  0.42160  Biso   1.000  C
  C42      1.0000 0.73324  0.83860  0.60480  Biso   1.000  C
  H26      1.0000 0.72240  0.89900  0.67650  Biso   1.000  H
  O14      1.0000 0.53095  0.87236  0.05690  Biso   1.000  O
  H27      1.0000 0.65660  0.93700  0.40700  Biso   1.000  H
  H28      1.0000 0.62500  0.80000  0.13500  Biso   1.000  H
  O15      1.0000 0.06868  0.52432  0.22490  Biso   1.000  O
  C43      1.0000 0.06941  0.42370  0.15580  Biso   1.000  C
  C44      1.0000 0.15686  0.38300  0.34900  Biso   1.000  C
  C45      1.0000 0.12042  0.35910  0.20020  Biso   1.000  C
  C46      1.0000 0.22300  0.22660  0.31570  Biso   1.000  C
  H29      1.0000 0.20540  0.21060  0.19110  Biso   1.000  H
  C47      1.0000 0.20525  0.31610  0.42160  Biso   1.000  C
  C48      1.0000 0.23324  0.33860  0.60480  Biso   1.000  C
  H30      1.0000 0.22240  0.39900  0.67650  Biso   1.000  H
  O16      1.0000 0.03095  0.37236  0.05690  Biso   1.000  O
  H31      1.0000 0.15660  0.43700  0.40700  Biso   1.000  H
  H32      1.0000 0.12500  0.30000  0.13500  Biso   1.000  H
  Co1      1.0000 0.50000  0.87966  0.75000  Biso   1.000  Co
  Co2      1.0000 0.00000  0.37966  0.75000  Biso   1.000  Co
  Co3      1.0000 0.50000  0.12034  0.25000  Biso   1.000  Co
  Co4      1.0000 0.00000  0.62034  0.25000  Biso   1.000  Co
