data_YORZAH_clean
_audit_creation_date              2014-07-02
_audit_creation_method            'Materials Studio'
_symmetry_space_group_name_H-M    'P1'
_symmetry_Int_Tables_number       1
_symmetry_cell_setting            triclinic
loop_
_symmetry_equiv_pos_as_xyz
  x,y,z
_cell_length_a                    6.8200
_cell_length_b                    16.4930
_cell_length_c                    22.2200
_cell_angle_alpha                 90.0000
_cell_angle_beta                  90.0000
_cell_angle_gamma                 90.0000
loop_
_atom_site_label
_atom_site_type_symbol
_atom_site_fract_x
_atom_site_fract_y
_atom_site_fract_z
_atom_site_U_iso_or_equiv
_atom_site_adp_type
_atom_site_occupancy
Sr1    Sr    0.04403   0.05797   0.91306   0.01267  Uiso   1.00
Sr2    Sr    0.45597   0.44203   0.41306   0.01267  Uiso   1.00
Sr3    Sr    0.04403   0.94203   0.58694   0.01267  Uiso   1.00
Sr4    Sr    0.45597   0.55797   0.08694   0.01267  Uiso   1.00
Sr5    Sr    0.95597   0.94203   0.08694   0.01267  Uiso   1.00
Sr6    Sr    0.54403   0.55797   0.58694   0.01267  Uiso   1.00
Sr7    Sr    0.95597   0.05797   0.41306   0.01267  Uiso   1.00
Sr8    Sr    0.54403   0.44203   0.91306   0.01267  Uiso   1.00
Sr9    Sr    0.24167   0.00000   0.75000   0.01267  Uiso   1.00
Sr10   Sr    0.25833   0.50000   0.25000   0.01267  Uiso   1.00
Sr11   Sr    0.75833   0.00000   0.25000   0.01267  Uiso   1.00
Sr12   Sr    0.74167   0.50000   0.75000   0.01267  Uiso   1.00
H1     H     0.46660   0.75290   0.90940   0.01267  Uiso   1.00
H2     H     0.29950   0.66230   0.74970   0.01267  Uiso   1.00
H3     H     0.29500   0.03100   0.02600   0.01267  Uiso   1.00
H4     H     0.30500   0.96700   0.99240   0.01267  Uiso   1.00
H5     H     0.03340   0.74710   0.40940   0.01267  Uiso   1.00
H6     H     0.20050   0.83770   0.24970   0.01267  Uiso   1.00
H7     H     0.20500   0.46900   0.52600   0.01267  Uiso   1.00
H8     H     0.19500   0.53300   0.49240   0.01267  Uiso   1.00
H9     H     0.46660   0.24710   0.59060   0.01267  Uiso   1.00
H10    H     0.29950   0.33770   0.75030   0.01267  Uiso   1.00
H11    H     0.29500   0.96900   0.47400   0.01267  Uiso   1.00
H12    H     0.30500   0.03300   0.50760   0.01267  Uiso   1.00
H13    H     0.03340   0.25290   0.09060   0.01267  Uiso   1.00
H14    H     0.20050   0.16230   0.25030   0.01267  Uiso   1.00
H15    H     0.20500   0.53100   0.97400   0.01267  Uiso   1.00
H16    H     0.19500   0.46700   0.00760   0.01267  Uiso   1.00
H17    H     0.53340   0.24710   0.09060   0.01267  Uiso   1.00
H18    H     0.70050   0.33770   0.25030   0.01267  Uiso   1.00
H19    H     0.70500   0.96900   0.97400   0.01267  Uiso   1.00
H20    H     0.69500   0.03300   0.00760   0.01267  Uiso   1.00
H21    H     0.96660   0.25290   0.59060   0.01267  Uiso   1.00
H22    H     0.79950   0.16230   0.75030   0.01267  Uiso   1.00
H23    H     0.79500   0.53100   0.47400   0.01267  Uiso   1.00
H24    H     0.80500   0.46700   0.50760   0.01267  Uiso   1.00
H25    H     0.53340   0.75290   0.40940   0.01267  Uiso   1.00
H26    H     0.70050   0.66230   0.24970   0.01267  Uiso   1.00
H27    H     0.70500   0.03100   0.52600   0.01267  Uiso   1.00
H28    H     0.69500   0.96700   0.49240   0.01267  Uiso   1.00
H29    H     0.96660   0.74710   0.90940   0.01267  Uiso   1.00
H30    H     0.79950   0.83770   0.74970   0.01267  Uiso   1.00
H31    H     0.79500   0.46900   0.02600   0.01267  Uiso   1.00
H32    H     0.80500   0.53300   0.99240   0.01267  Uiso   1.00
C1     C     0.38780   0.83640   0.84760   0.01267  Uiso   1.00
C2     C     0.42330   0.75960   0.87010   0.01267  Uiso   1.00
C3     C     0.29080   0.78470   0.75590   0.01267  Uiso   1.00
C4     C     0.20810   0.80370   0.69400   0.01267  Uiso   1.00
C5     C     0.39370   0.69290   0.83350   0.01267  Uiso   1.00
C6     C     0.44140   0.60840   0.85520   0.01267  Uiso   1.00
C7     C     0.41620   0.91090   0.88720   0.01267  Uiso   1.00
C8     C     0.32370   0.70590   0.77520   0.01267  Uiso   1.00
C9     C     0.11220   0.66360   0.34760   0.01267  Uiso   1.00
C10    C     0.07670   0.74040   0.37010   0.01267  Uiso   1.00
C11    C     0.20920   0.71530   0.25590   0.01267  Uiso   1.00
C12    C     0.29190   0.69630   0.19400   0.01267  Uiso   1.00
C13    C     0.10630   0.80710   0.33350   0.01267  Uiso   1.00
C14    C     0.05860   0.89160   0.35520   0.01267  Uiso   1.00
C15    C     0.08380   0.58910   0.38720   0.01267  Uiso   1.00
C16    C     0.17630   0.79410   0.27520   0.01267  Uiso   1.00
C17    C     0.38780   0.16360   0.65240   0.01267  Uiso   1.00
C18    C     0.42330   0.24040   0.62990   0.01267  Uiso   1.00
C19    C     0.29080   0.21530   0.74410   0.01267  Uiso   1.00
C20    C     0.20810   0.19630   0.80600   0.01267  Uiso   1.00
C21    C     0.39370   0.30710   0.66650   0.01267  Uiso   1.00
C22    C     0.44140   0.39160   0.64480   0.01267  Uiso   1.00
C23    C     0.41620   0.08910   0.61280   0.01267  Uiso   1.00
C24    C     0.32370   0.29410   0.72480   0.01267  Uiso   1.00
C25    C     0.11220   0.33640   0.15240   0.01267  Uiso   1.00
C26    C     0.07670   0.25960   0.12990   0.01267  Uiso   1.00
C27    C     0.20920   0.28470   0.24410   0.01267  Uiso   1.00
C28    C     0.29190   0.30370   0.30600   0.01267  Uiso   1.00
C29    C     0.10630   0.19290   0.16650   0.01267  Uiso   1.00
C30    C     0.05860   0.10840   0.14480   0.01267  Uiso   1.00
C31    C     0.08380   0.41090   0.11280   0.01267  Uiso   1.00
C32    C     0.17630   0.20590   0.22480   0.01267  Uiso   1.00
C33    C     0.61220   0.16360   0.15240   0.01267  Uiso   1.00
C34    C     0.57670   0.24040   0.12990   0.01267  Uiso   1.00
C35    C     0.70920   0.21530   0.24410   0.01267  Uiso   1.00
C36    C     0.79190   0.19630   0.30600   0.01267  Uiso   1.00
C37    C     0.60630   0.30710   0.16650   0.01267  Uiso   1.00
C38    C     0.55860   0.39160   0.14480   0.01267  Uiso   1.00
C39    C     0.58380   0.08910   0.11280   0.01267  Uiso   1.00
C40    C     0.67630   0.29410   0.22480   0.01267  Uiso   1.00
C41    C     0.88780   0.33640   0.65240   0.01267  Uiso   1.00
C42    C     0.92330   0.25960   0.62990   0.01267  Uiso   1.00
C43    C     0.79080   0.28470   0.74410   0.01267  Uiso   1.00
C44    C     0.70810   0.30370   0.80600   0.01267  Uiso   1.00
C45    C     0.89370   0.19290   0.66650   0.01267  Uiso   1.00
C46    C     0.94140   0.10840   0.64480   0.01267  Uiso   1.00
C47    C     0.91620   0.41090   0.61280   0.01267  Uiso   1.00
C48    C     0.82370   0.20590   0.72480   0.01267  Uiso   1.00
C49    C     0.61220   0.83640   0.34760   0.01267  Uiso   1.00
C50    C     0.57670   0.75960   0.37010   0.01267  Uiso   1.00
C51    C     0.70920   0.78470   0.25590   0.01267  Uiso   1.00
C52    C     0.79190   0.80370   0.19400   0.01267  Uiso   1.00
C53    C     0.60630   0.69290   0.33350   0.01267  Uiso   1.00
C54    C     0.55860   0.60840   0.35520   0.01267  Uiso   1.00
C55    C     0.58380   0.91090   0.38720   0.01267  Uiso   1.00
C56    C     0.67630   0.70590   0.27520   0.01267  Uiso   1.00
C57    C     0.88780   0.66360   0.84760   0.01267  Uiso   1.00
C58    C     0.92330   0.74040   0.87010   0.01267  Uiso   1.00
C59    C     0.79080   0.71530   0.75590   0.01267  Uiso   1.00
C60    C     0.70810   0.69630   0.69400   0.01267  Uiso   1.00
C61    C     0.89370   0.80710   0.83350   0.01267  Uiso   1.00
C62    C     0.94140   0.89160   0.85520   0.01267  Uiso   1.00
C63    C     0.91620   0.58910   0.88720   0.01267  Uiso   1.00
C64    C     0.82370   0.79410   0.77520   0.01267  Uiso   1.00
N1     N     0.32380   0.84930   0.79123   0.01267  Uiso   1.00
N2     N     0.17620   0.65070   0.29123   0.01267  Uiso   1.00
N3     N     0.32380   0.15070   0.70877   0.01267  Uiso   1.00
N4     N     0.17620   0.34930   0.20877   0.01267  Uiso   1.00
N5     N     0.67620   0.15070   0.20877   0.01267  Uiso   1.00
N6     N     0.82380   0.34930   0.70877   0.01267  Uiso   1.00
N7     N     0.67620   0.84930   0.29123   0.01267  Uiso   1.00
N8     N     0.82380   0.65070   0.79123   0.01267  Uiso   1.00
O1     O     0.36350   0.97840   0.86512   0.01267  Uiso   1.00
O2     O     0.16790   0.87710   0.68346   0.01267  Uiso   1.00
O3     O     0.48150   0.60000   0.91023   0.01267  Uiso   1.00
O4     O     0.22870   0.99870   0.00723   0.01267  Uiso   1.00
O5     O     0.44420   0.55080   0.81828   0.01267  Uiso   1.00
O6     O     0.48260   0.90040   0.93846   0.01267  Uiso   1.00
O7     O     0.18230   0.74790   0.65833   0.01267  Uiso   1.00
O8     O     0.13650   0.52160   0.36512   0.01267  Uiso   1.00
O9     O     0.33210   0.62290   0.18346   0.01267  Uiso   1.00
O10    O     0.01850   0.90000   0.41023   0.01267  Uiso   1.00
O11    O     0.27130   0.50130   0.50723   0.01267  Uiso   1.00
O12    O     0.05580   0.94920   0.31828   0.01267  Uiso   1.00
O13    O     0.01740   0.59960   0.43846   0.01267  Uiso   1.00
O14    O     0.31770   0.75210   0.15833   0.01267  Uiso   1.00
O15    O     0.36350   0.02160   0.63488   0.01267  Uiso   1.00
O16    O     0.16790   0.12290   0.81654   0.01267  Uiso   1.00
O17    O     0.48150   0.40000   0.58977   0.01267  Uiso   1.00
O18    O     0.22870   0.00130   0.49277   0.01267  Uiso   1.00
O19    O     0.44420   0.44920   0.68172   0.01267  Uiso   1.00
O20    O     0.48260   0.09960   0.56154   0.01267  Uiso   1.00
O21    O     0.18230   0.25210   0.84167   0.01267  Uiso   1.00
O22    O     0.13650   0.47840   0.13488   0.01267  Uiso   1.00
O23    O     0.33210   0.37710   0.31654   0.01267  Uiso   1.00
O24    O     0.01850   0.10000   0.08977   0.01267  Uiso   1.00
O25    O     0.27130   0.49870   0.99277   0.01267  Uiso   1.00
O26    O     0.05580   0.05080   0.18172   0.01267  Uiso   1.00
O27    O     0.01740   0.40040   0.06154   0.01267  Uiso   1.00
O28    O     0.31770   0.24790   0.34167   0.01267  Uiso   1.00
O29    O     0.63650   0.02160   0.13488   0.01267  Uiso   1.00
O30    O     0.83210   0.12290   0.31654   0.01267  Uiso   1.00
O31    O     0.51850   0.40000   0.08977   0.01267  Uiso   1.00
O32    O     0.77130   0.00130   0.99277   0.01267  Uiso   1.00
O33    O     0.55580   0.44920   0.18172   0.01267  Uiso   1.00
O34    O     0.51740   0.09960   0.06154   0.01267  Uiso   1.00
O35    O     0.81770   0.25210   0.34167   0.01267  Uiso   1.00
O36    O     0.86350   0.47840   0.63488   0.01267  Uiso   1.00
O37    O     0.66790   0.37710   0.81654   0.01267  Uiso   1.00
O38    O     0.98150   0.10000   0.58977   0.01267  Uiso   1.00
O39    O     0.72870   0.49870   0.49277   0.01267  Uiso   1.00
O40    O     0.94420   0.05080   0.68172   0.01267  Uiso   1.00
O41    O     0.98260   0.40040   0.56154   0.01267  Uiso   1.00
O42    O     0.68230   0.24790   0.84167   0.01267  Uiso   1.00
O43    O     0.63650   0.97840   0.36512   0.01267  Uiso   1.00
O44    O     0.83210   0.87710   0.18346   0.01267  Uiso   1.00
O45    O     0.51850   0.60000   0.41023   0.01267  Uiso   1.00
O46    O     0.77130   0.99870   0.50723   0.01267  Uiso   1.00
O47    O     0.55580   0.55080   0.31828   0.01267  Uiso   1.00
O48    O     0.51740   0.90040   0.43846   0.01267  Uiso   1.00
O49    O     0.81770   0.74790   0.15833   0.01267  Uiso   1.00
O50    O     0.86350   0.52160   0.86512   0.01267  Uiso   1.00
O51    O     0.66790   0.62290   0.68346   0.01267  Uiso   1.00
O52    O     0.98150   0.90000   0.91023   0.01267  Uiso   1.00
O53    O     0.72870   0.50130   0.00723   0.01267  Uiso   1.00
O54    O     0.94420   0.94920   0.81828   0.01267  Uiso   1.00
O55    O     0.98260   0.59960   0.93846   0.01267  Uiso   1.00
O56    O     0.68230   0.75210   0.65833   0.01267  Uiso   1.00
