data_image0
_cell_length_a       10.725
_cell_length_b       15.204
_cell_length_c       17.3541
_cell_angle_alpha    90
_cell_angle_beta     99.413
_cell_angle_gamma    90

_symmetry_space_group_name_H-M    "P 1"
_symmetry_int_tables_number       1

loop_
  _symmetry_equiv_pos_as_xyz
  'x, y, z'

loop_
  _atom_site_label
  _atom_site_occupancy
  _atom_site_fract_x
  _atom_site_fract_y
  _atom_site_fract_z
  _atom_site_thermal_displace_type
  _atom_site_B_iso_or_equiv
  _atom_site_type_symbol
  Ba1      1.0000 0.17907  0.02779  0.44326  Biso   1.000  Ba
  V1       1.0000 0.19038  0.40854  0.34275  Biso   1.000  V
  O1       1.0000 0.00860  0.37620  0.34110  Biso   1.000  O
  O2       1.0000 0.84040  0.40060  0.39950  Biso   1.000  O
  O3       1.0000 0.12390  0.51250  0.41290  Biso   1.000  O
  O4       1.0000 0.93840  0.56710  0.43510  Biso   1.000  O
  O5       1.0000 0.02650  0.07410  0.16420  Biso   1.000  O
  O6       1.0000 0.14550  0.96850  0.12540  Biso   1.000  O
  O7       1.0000 0.21770  0.10650  0.28840  Biso   1.000  O
  O8       1.0000 0.33180  0.00440  0.23910  Biso   1.000  O
  O9       1.0000 0.23260  0.34730  0.44640  Biso   1.000  O
  O10      1.0000 0.15650  0.21210  0.41410  Biso   1.000  O
  O11      1.0000 0.21920  0.32880  0.28620  Biso   1.000  O
  O12      1.0000 0.04980  0.88700  0.49940  Biso   1.000  O
  H1       1.0000 0.02500  0.85500  0.46300  Biso   1.000  H
  H2       1.0000 0.09000  0.86100  0.53100  Biso   1.000  H
  C1       1.0000 0.94320  0.42150  0.38240  Biso   1.000  C
  C2       1.0000 0.00510  0.51000  0.41270  Biso   1.000  C
  C3       1.0000 0.12490  0.03130  0.17130  Biso   1.000  C
  C4       1.0000 0.23340  0.05020  0.23990  Biso   1.000  C
  C5       1.0000 0.21610  0.26560  0.45920  Biso   1.000  C
  Ba2      1.0000 0.67907  0.52779  0.44326  Biso   1.000  Ba
  V2       1.0000 0.69038  0.90854  0.34275  Biso   1.000  V
  O13      1.0000 0.50860  0.87620  0.34110  Biso   1.000  O
  O14      1.0000 0.34040  0.90060  0.39950  Biso   1.000  O
  O15      1.0000 0.62390  0.01250  0.41290  Biso   1.000  O
  O16      1.0000 0.43840  0.06710  0.43510  Biso   1.000  O
  O17      1.0000 0.52650  0.57410  0.16420  Biso   1.000  O
  O18      1.0000 0.64550  0.46850  0.12540  Biso   1.000  O
  O19      1.0000 0.71770  0.60650  0.28840  Biso   1.000  O
  O20      1.0000 0.83180  0.50440  0.23910  Biso   1.000  O
  O21      1.0000 0.73260  0.84730  0.44640  Biso   1.000  O
  O22      1.0000 0.65650  0.71210  0.41410  Biso   1.000  O
  O23      1.0000 0.71920  0.82880  0.28620  Biso   1.000  O
  O24      1.0000 0.54980  0.38700  0.49940  Biso   1.000  O
  H3       1.0000 0.52500  0.35500  0.46300  Biso   1.000  H
  H4       1.0000 0.59000  0.36100  0.53100  Biso   1.000  H
  C6       1.0000 0.44320  0.92150  0.38240  Biso   1.000  C
  C7       1.0000 0.50510  0.01000  0.41270  Biso   1.000  C
  C8       1.0000 0.62490  0.53130  0.17130  Biso   1.000  C
  C9       1.0000 0.73340  0.55020  0.23990  Biso   1.000  C
  C10      1.0000 0.71610  0.76560  0.45920  Biso   1.000  C
  Ba3      1.0000 0.82093  0.02779  0.05674  Biso   1.000  Ba
  V3       1.0000 0.80962  0.40854  0.15725  Biso   1.000  V
  O25      1.0000 0.99140  0.37620  0.15890  Biso   1.000  O
  O26      1.0000 0.15960  0.40060  0.10050  Biso   1.000  O
  O27      1.0000 0.87610  0.51250  0.08710  Biso   1.000  O
  O28      1.0000 0.06160  0.56710  0.06490  Biso   1.000  O
  O29      1.0000 0.97350  0.07410  0.33580  Biso   1.000  O
  O30      1.0000 0.85450  0.96850  0.37460  Biso   1.000  O
  O31      1.0000 0.78230  0.10650  0.21160  Biso   1.000  O
  O32      1.0000 0.66820  0.00440  0.26090  Biso   1.000  O
  O33      1.0000 0.76740  0.34730  0.05360  Biso   1.000  O
  O34      1.0000 0.84350  0.21210  0.08590  Biso   1.000  O
  O35      1.0000 0.78080  0.32880  0.21380  Biso   1.000  O
  O36      1.0000 0.95020  0.88700  0.00060  Biso   1.000  O
  H5       1.0000 0.97500  0.85500  0.03700  Biso   1.000  H
  H6       1.0000 0.91000  0.86100  0.96900  Biso   1.000  H
  C11      1.0000 0.05680  0.42150  0.11760  Biso   1.000  C
  C12      1.0000 0.99490  0.51000  0.08730  Biso   1.000  C
  C13      1.0000 0.87510  0.03130  0.32870  Biso   1.000  C
  C14      1.0000 0.76660  0.05020  0.26010  Biso   1.000  C
  C15      1.0000 0.78390  0.26560  0.04080  Biso   1.000  C
  Ba4      1.0000 0.32093  0.52779  0.05674  Biso   1.000  Ba
  V4       1.0000 0.30962  0.90854  0.15725  Biso   1.000  V
  O37      1.0000 0.49140  0.87620  0.15890  Biso   1.000  O
  O38      1.0000 0.65960  0.90060  0.10050  Biso   1.000  O
  O39      1.0000 0.37610  0.01250  0.08710  Biso   1.000  O
  O40      1.0000 0.56160  0.06710  0.06490  Biso   1.000  O
  O41      1.0000 0.47350  0.57410  0.33580  Biso   1.000  O
  O42      1.0000 0.35450  0.46850  0.37460  Biso   1.000  O
  O43      1.0000 0.28230  0.60650  0.21160  Biso   1.000  O
  O44      1.0000 0.16820  0.50440  0.26090  Biso   1.000  O
  O45      1.0000 0.26740  0.84730  0.05360  Biso   1.000  O
  O46      1.0000 0.34350  0.71210  0.08590  Biso   1.000  O
  O47      1.0000 0.28080  0.82880  0.21380  Biso   1.000  O
  O48      1.0000 0.45020  0.38700  0.00060  Biso   1.000  O
  H7       1.0000 0.47500  0.35500  0.03700  Biso   1.000  H
  H8       1.0000 0.41000  0.36100  0.96900  Biso   1.000  H
  C16      1.0000 0.55680  0.92150  0.11760  Biso   1.000  C
  C17      1.0000 0.49490  0.01000  0.08730  Biso   1.000  C
  C18      1.0000 0.37510  0.53130  0.32870  Biso   1.000  C
  C19      1.0000 0.26660  0.55020  0.26010  Biso   1.000  C
  C20      1.0000 0.28390  0.76560  0.04080  Biso   1.000  C
  Ba5      1.0000 0.82093  0.97221  0.55674  Biso   1.000  Ba
  V5       1.0000 0.80962  0.59146  0.65725  Biso   1.000  V
  O49      1.0000 0.99140  0.62380  0.65890  Biso   1.000  O
  O50      1.0000 0.15960  0.59940  0.60050  Biso   1.000  O
  O51      1.0000 0.87610  0.48750  0.58710  Biso   1.000  O
  O52      1.0000 0.06160  0.43290  0.56490  Biso   1.000  O
  O53      1.0000 0.97350  0.92590  0.83580  Biso   1.000  O
  O54      1.0000 0.85450  0.03150  0.87460  Biso   1.000  O
  O55      1.0000 0.78230  0.89350  0.71160  Biso   1.000  O
  O56      1.0000 0.66820  0.99560  0.76090  Biso   1.000  O
  O57      1.0000 0.76740  0.65270  0.55360  Biso   1.000  O
  O58      1.0000 0.84350  0.78790  0.58590  Biso   1.000  O
  O59      1.0000 0.78080  0.67120  0.71380  Biso   1.000  O
  O60      1.0000 0.95020  0.11300  0.50060  Biso   1.000  O
  H9       1.0000 0.97500  0.14500  0.53700  Biso   1.000  H
  H10      1.0000 0.91000  0.13900  0.46900  Biso   1.000  H
  C21      1.0000 0.05680  0.57850  0.61760  Biso   1.000  C
  C22      1.0000 0.99490  0.49000  0.58730  Biso   1.000  C
  C23      1.0000 0.87510  0.96870  0.82870  Biso   1.000  C
  C24      1.0000 0.76660  0.94980  0.76010  Biso   1.000  C
  C25      1.0000 0.78390  0.73440  0.54080  Biso   1.000  C
  Ba6      1.0000 0.32093  0.47221  0.55674  Biso   1.000  Ba
  V6       1.0000 0.30962  0.09146  0.65725  Biso   1.000  V
  O61      1.0000 0.49140  0.12380  0.65890  Biso   1.000  O
  O62      1.0000 0.65960  0.09940  0.60050  Biso   1.000  O
  O63      1.0000 0.37610  0.98750  0.58710  Biso   1.000  O
  O64      1.0000 0.56160  0.93290  0.56490  Biso   1.000  O
  O65      1.0000 0.47350  0.42590  0.83580  Biso   1.000  O
  O66      1.0000 0.35450  0.53150  0.87460  Biso   1.000  O
  O67      1.0000 0.28230  0.39350  0.71160  Biso   1.000  O
  O68      1.0000 0.16820  0.49560  0.76090  Biso   1.000  O
  O69      1.0000 0.26740  0.15270  0.55360  Biso   1.000  O
  O70      1.0000 0.34350  0.28790  0.58590  Biso   1.000  O
  O71      1.0000 0.28080  0.17120  0.71380  Biso   1.000  O
  O72      1.0000 0.45020  0.61300  0.50060  Biso   1.000  O
  H11      1.0000 0.47500  0.64500  0.53700  Biso   1.000  H
  H12      1.0000 0.41000  0.63900  0.46900  Biso   1.000  H
  C26      1.0000 0.55680  0.07850  0.61760  Biso   1.000  C
  C27      1.0000 0.49490  0.99000  0.58730  Biso   1.000  C
  C28      1.0000 0.37510  0.46870  0.82870  Biso   1.000  C
  C29      1.0000 0.26660  0.44980  0.76010  Biso   1.000  C
  C30      1.0000 0.28390  0.23440  0.54080  Biso   1.000  C
  Ba7      1.0000 0.17907  0.97221  0.94326  Biso   1.000  Ba
  V7       1.0000 0.19038  0.59146  0.84275  Biso   1.000  V
  O73      1.0000 0.00860  0.62380  0.84110  Biso   1.000  O
  O74      1.0000 0.84040  0.59940  0.89950  Biso   1.000  O
  O75      1.0000 0.12390  0.48750  0.91290  Biso   1.000  O
  O76      1.0000 0.93840  0.43290  0.93510  Biso   1.000  O
  O77      1.0000 0.02650  0.92590  0.66420  Biso   1.000  O
  O78      1.0000 0.14550  0.03150  0.62540  Biso   1.000  O
  O79      1.0000 0.21770  0.89350  0.78840  Biso   1.000  O
  O80      1.0000 0.33180  0.99560  0.73910  Biso   1.000  O
  O81      1.0000 0.23260  0.65270  0.94640  Biso   1.000  O
  O82      1.0000 0.15650  0.78790  0.91410  Biso   1.000  O
  O83      1.0000 0.21920  0.67120  0.78620  Biso   1.000  O
  O84      1.0000 0.04980  0.11300  0.99940  Biso   1.000  O
  H13      1.0000 0.02500  0.14500  0.96300  Biso   1.000  H
  H14      1.0000 0.09000  0.13900  0.03100  Biso   1.000  H
  C31      1.0000 0.94320  0.57850  0.88240  Biso   1.000  C
  C32      1.0000 0.00510  0.49000  0.91270  Biso   1.000  C
  C33      1.0000 0.12490  0.96870  0.67130  Biso   1.000  C
  C34      1.0000 0.23340  0.94980  0.73990  Biso   1.000  C
  C35      1.0000 0.21610  0.73440  0.95920  Biso   1.000  C
  Ba8      1.0000 0.67907  0.47221  0.94326  Biso   1.000  Ba
  V8       1.0000 0.69038  0.09146  0.84275  Biso   1.000  V
  O85      1.0000 0.50860  0.12380  0.84110  Biso   1.000  O
  O86      1.0000 0.34040  0.09940  0.89950  Biso   1.000  O
  O87      1.0000 0.62390  0.98750  0.91290  Biso   1.000  O
  O88      1.0000 0.43840  0.93290  0.93510  Biso   1.000  O
  O89      1.0000 0.52650  0.42590  0.66420  Biso   1.000  O
  O90      1.0000 0.64550  0.53150  0.62540  Biso   1.000  O
  O91      1.0000 0.71770  0.39350  0.78840  Biso   1.000  O
  O92      1.0000 0.83180  0.49560  0.73910  Biso   1.000  O
  O93      1.0000 0.73260  0.15270  0.94640  Biso   1.000  O
  O94      1.0000 0.65650  0.28790  0.91410  Biso   1.000  O
  O95      1.0000 0.71920  0.17120  0.78620  Biso   1.000  O
  O96      1.0000 0.54980  0.61300  0.99940  Biso   1.000  O
  H15      1.0000 0.52500  0.64500  0.96300  Biso   1.000  H
  H16      1.0000 0.59000  0.63900  0.03100  Biso   1.000  H
  C36      1.0000 0.44320  0.07850  0.88240  Biso   1.000  C
  C37      1.0000 0.50510  0.99000  0.91270  Biso   1.000  C
  C38      1.0000 0.62490  0.46870  0.67130  Biso   1.000  C
  C39      1.0000 0.73340  0.44980  0.73990  Biso   1.000  C
  C40      1.0000 0.71610  0.23440  0.95920  Biso   1.000  C
  Ba9      1.0000 0.00000  0.22059  0.25000  Biso   1.000  Ba
  Ba10     1.0000 0.50000  0.72059  0.25000  Biso   1.000  Ba
  Ba11     1.0000 0.00000  0.77941  0.75000  Biso   1.000  Ba
  Ba12     1.0000 0.50000  0.27941  0.75000  Biso   1.000  Ba
