data_image0
_cell_length_a       10.2354
_cell_length_b       15.455
_cell_length_c       17.536
_cell_angle_alpha    90
_cell_angle_beta     98.718
_cell_angle_gamma    90

_symmetry_space_group_name_H-M    "P 1"
_symmetry_int_tables_number       1

loop_
  _symmetry_equiv_pos_as_xyz
  'x, y, z'

loop_
  _atom_site_label
  _atom_site_occupancy
  _atom_site_fract_x
  _atom_site_fract_y
  _atom_site_fract_z
  _atom_site_thermal_displace_type
  _atom_site_B_iso_or_equiv
  _atom_site_type_symbol
  Ba1      1.0000 0.18060  0.03334  0.45055  Biso   1.000  Ba
  V1       1.0000 0.19515  0.40097  0.34085  Biso   1.000  V
  O1       1.0000 0.00362  0.37283  0.34102  Biso   1.000  O
  O2       1.0000 0.82274  0.40520  0.39242  Biso   1.000  O
  O3       1.0000 0.12968  0.50502  0.41216  Biso   1.000  O
  O4       1.0000 0.93914  0.56433  0.43419  Biso   1.000  O
  O5       1.0000 0.02063  0.07367  0.16461  Biso   1.000  O
  O6       1.0000 0.13332  0.96225  0.12949  Biso   1.000  O
  O7       1.0000 0.22350  0.10350  0.28506  Biso   1.000  O
  O8       1.0000 0.33304  0.99440  0.23928  Biso   1.000  O
  O9       1.0000 0.23701  0.34349  0.44436  Biso   1.000  O
  O10      1.0000 0.15897  0.21016  0.41460  Biso   1.000  O
  O11      1.0000 0.22843  0.32087  0.28877  Biso   1.000  O
  O12      1.0000 0.06110  0.88167  0.49920  Biso   1.000  O
  H1       1.0000 0.04500  0.84500  0.46800  Biso   1.000  H
  H2       1.0000 0.10500  0.84800  0.53100  Biso   1.000  H
  C1       1.0000 0.93480  0.42175  0.37877  Biso   1.000  C
  C2       1.0000 0.00600  0.50589  0.41108  Biso   1.000  C
  C3       1.0000 0.11910  0.02742  0.17277  Biso   1.000  C
  C4       1.0000 0.23500  0.04527  0.23893  Biso   1.000  C
  C5       1.0000 0.21890  0.26379  0.45881  Biso   1.000  C
  Ba2      1.0000 0.68060  0.53334  0.45055  Biso   1.000  Ba
  V2       1.0000 0.69515  0.90097  0.34085  Biso   1.000  V
  O13      1.0000 0.50362  0.87283  0.34102  Biso   1.000  O
  O14      1.0000 0.32274  0.90520  0.39242  Biso   1.000  O
  O15      1.0000 0.62968  0.00502  0.41216  Biso   1.000  O
  O16      1.0000 0.43914  0.06433  0.43419  Biso   1.000  O
  O17      1.0000 0.52063  0.57367  0.16461  Biso   1.000  O
  O18      1.0000 0.63332  0.46225  0.12949  Biso   1.000  O
  O19      1.0000 0.72350  0.60350  0.28506  Biso   1.000  O
  O20      1.0000 0.83304  0.49440  0.23928  Biso   1.000  O
  O21      1.0000 0.73701  0.84349  0.44436  Biso   1.000  O
  O22      1.0000 0.65897  0.71016  0.41460  Biso   1.000  O
  O23      1.0000 0.72843  0.82087  0.28877  Biso   1.000  O
  O24      1.0000 0.56110  0.38167  0.49920  Biso   1.000  O
  H3       1.0000 0.54500  0.34500  0.46800  Biso   1.000  H
  H4       1.0000 0.60500  0.34800  0.53100  Biso   1.000  H
  C6       1.0000 0.43480  0.92175  0.37877  Biso   1.000  C
  C7       1.0000 0.50600  0.00589  0.41108  Biso   1.000  C
  C8       1.0000 0.61910  0.52742  0.17277  Biso   1.000  C
  C9       1.0000 0.73500  0.54527  0.23893  Biso   1.000  C
  C10      1.0000 0.71890  0.76379  0.45881  Biso   1.000  C
  Ba3      1.0000 0.81940  0.03334  0.04945  Biso   1.000  Ba
  V3       1.0000 0.80485  0.40097  0.15915  Biso   1.000  V
  O25      1.0000 0.99638  0.37283  0.15898  Biso   1.000  O
  O26      1.0000 0.17726  0.40520  0.10758  Biso   1.000  O
  O27      1.0000 0.87032  0.50502  0.08784  Biso   1.000  O
  O28      1.0000 0.06086  0.56433  0.06581  Biso   1.000  O
  O29      1.0000 0.97937  0.07367  0.33539  Biso   1.000  O
  O30      1.0000 0.86668  0.96225  0.37051  Biso   1.000  O
  O31      1.0000 0.77650  0.10350  0.21494  Biso   1.000  O
  O32      1.0000 0.66696  0.99440  0.26072  Biso   1.000  O
  O33      1.0000 0.76299  0.34349  0.05564  Biso   1.000  O
  O34      1.0000 0.84103  0.21016  0.08540  Biso   1.000  O
  O35      1.0000 0.77157  0.32087  0.21123  Biso   1.000  O
  O36      1.0000 0.93890  0.88167  0.00080  Biso   1.000  O
  H5       1.0000 0.95500  0.84500  0.03200  Biso   1.000  H
  H6       1.0000 0.89500  0.84800  0.96900  Biso   1.000  H
  C11      1.0000 0.06520  0.42175  0.12123  Biso   1.000  C
  C12      1.0000 0.99400  0.50589  0.08892  Biso   1.000  C
  C13      1.0000 0.88090  0.02742  0.32723  Biso   1.000  C
  C14      1.0000 0.76500  0.04527  0.26107  Biso   1.000  C
  C15      1.0000 0.78110  0.26379  0.04119  Biso   1.000  C
  Ba4      1.0000 0.31940  0.53334  0.04945  Biso   1.000  Ba
  V4       1.0000 0.30485  0.90097  0.15915  Biso   1.000  V
  O37      1.0000 0.49638  0.87283  0.15898  Biso   1.000  O
  O38      1.0000 0.67726  0.90520  0.10758  Biso   1.000  O
  O39      1.0000 0.37032  0.00502  0.08784  Biso   1.000  O
  O40      1.0000 0.56086  0.06433  0.06581  Biso   1.000  O
  O41      1.0000 0.47937  0.57367  0.33539  Biso   1.000  O
  O42      1.0000 0.36668  0.46225  0.37051  Biso   1.000  O
  O43      1.0000 0.27650  0.60350  0.21494  Biso   1.000  O
  O44      1.0000 0.16696  0.49440  0.26072  Biso   1.000  O
  O45      1.0000 0.26299  0.84349  0.05564  Biso   1.000  O
  O46      1.0000 0.34103  0.71016  0.08540  Biso   1.000  O
  O47      1.0000 0.27157  0.82087  0.21123  Biso   1.000  O
  O48      1.0000 0.43890  0.38167  0.00080  Biso   1.000  O
  H7       1.0000 0.45500  0.34500  0.03200  Biso   1.000  H
  H8       1.0000 0.39500  0.34800  0.96900  Biso   1.000  H
  C16      1.0000 0.56520  0.92175  0.12123  Biso   1.000  C
  C17      1.0000 0.49400  0.00589  0.08892  Biso   1.000  C
  C18      1.0000 0.38090  0.52742  0.32723  Biso   1.000  C
  C19      1.0000 0.26500  0.54527  0.26107  Biso   1.000  C
  C20      1.0000 0.28110  0.76379  0.04119  Biso   1.000  C
  Ba5      1.0000 0.81940  0.96666  0.54945  Biso   1.000  Ba
  V5       1.0000 0.80485  0.59903  0.65915  Biso   1.000  V
  O49      1.0000 0.99638  0.62717  0.65898  Biso   1.000  O
  O50      1.0000 0.17726  0.59480  0.60758  Biso   1.000  O
  O51      1.0000 0.87032  0.49498  0.58784  Biso   1.000  O
  O52      1.0000 0.06086  0.43567  0.56581  Biso   1.000  O
  O53      1.0000 0.97937  0.92633  0.83539  Biso   1.000  O
  O54      1.0000 0.86668  0.03775  0.87051  Biso   1.000  O
  O55      1.0000 0.77650  0.89650  0.71494  Biso   1.000  O
  O56      1.0000 0.66696  0.00560  0.76072  Biso   1.000  O
  O57      1.0000 0.76299  0.65651  0.55564  Biso   1.000  O
  O58      1.0000 0.84103  0.78984  0.58540  Biso   1.000  O
  O59      1.0000 0.77157  0.67913  0.71123  Biso   1.000  O
  O60      1.0000 0.93890  0.11833  0.50080  Biso   1.000  O
  H9       1.0000 0.95500  0.15500  0.53200  Biso   1.000  H
  H10      1.0000 0.89500  0.15200  0.46900  Biso   1.000  H
  C21      1.0000 0.06520  0.57825  0.62123  Biso   1.000  C
  C22      1.0000 0.99400  0.49411  0.58892  Biso   1.000  C
  C23      1.0000 0.88090  0.97258  0.82723  Biso   1.000  C
  C24      1.0000 0.76500  0.95473  0.76107  Biso   1.000  C
  C25      1.0000 0.78110  0.73621  0.54119  Biso   1.000  C
  Ba6      1.0000 0.31940  0.46666  0.54945  Biso   1.000  Ba
  V6       1.0000 0.30485  0.09903  0.65915  Biso   1.000  V
  O61      1.0000 0.49638  0.12717  0.65898  Biso   1.000  O
  O62      1.0000 0.67726  0.09480  0.60758  Biso   1.000  O
  O63      1.0000 0.37032  0.99498  0.58784  Biso   1.000  O
  O64      1.0000 0.56086  0.93567  0.56581  Biso   1.000  O
  O65      1.0000 0.47937  0.42633  0.83539  Biso   1.000  O
  O66      1.0000 0.36668  0.53775  0.87051  Biso   1.000  O
  O67      1.0000 0.27650  0.39650  0.71494  Biso   1.000  O
  O68      1.0000 0.16696  0.50560  0.76072  Biso   1.000  O
  O69      1.0000 0.26299  0.15651  0.55564  Biso   1.000  O
  O70      1.0000 0.34103  0.28984  0.58540  Biso   1.000  O
  O71      1.0000 0.27157  0.17913  0.71123  Biso   1.000  O
  O72      1.0000 0.43890  0.61833  0.50080  Biso   1.000  O
  H11      1.0000 0.45500  0.65500  0.53200  Biso   1.000  H
  H12      1.0000 0.39500  0.65200  0.46900  Biso   1.000  H
  C26      1.0000 0.56520  0.07825  0.62123  Biso   1.000  C
  C27      1.0000 0.49400  0.99411  0.58892  Biso   1.000  C
  C28      1.0000 0.38090  0.47258  0.82723  Biso   1.000  C
  C29      1.0000 0.26500  0.45473  0.76107  Biso   1.000  C
  C30      1.0000 0.28110  0.23621  0.54119  Biso   1.000  C
  Ba7      1.0000 0.18060  0.96666  0.95055  Biso   1.000  Ba
  V7       1.0000 0.19515  0.59903  0.84085  Biso   1.000  V
  O73      1.0000 0.00362  0.62717  0.84102  Biso   1.000  O
  O74      1.0000 0.82274  0.59480  0.89242  Biso   1.000  O
  O75      1.0000 0.12968  0.49498  0.91216  Biso   1.000  O
  O76      1.0000 0.93914  0.43567  0.93419  Biso   1.000  O
  O77      1.0000 0.02063  0.92633  0.66461  Biso   1.000  O
  O78      1.0000 0.13332  0.03775  0.62949  Biso   1.000  O
  O79      1.0000 0.22350  0.89650  0.78506  Biso   1.000  O
  O80      1.0000 0.33304  0.00560  0.73928  Biso   1.000  O
  O81      1.0000 0.23701  0.65651  0.94436  Biso   1.000  O
  O82      1.0000 0.15897  0.78984  0.91460  Biso   1.000  O
  O83      1.0000 0.22843  0.67913  0.78877  Biso   1.000  O
  O84      1.0000 0.06110  0.11833  0.99920  Biso   1.000  O
  H13      1.0000 0.04500  0.15500  0.96800  Biso   1.000  H
  H14      1.0000 0.10500  0.15200  0.03100  Biso   1.000  H
  C31      1.0000 0.93480  0.57825  0.87877  Biso   1.000  C
  C32      1.0000 0.00600  0.49411  0.91108  Biso   1.000  C
  C33      1.0000 0.11910  0.97258  0.67277  Biso   1.000  C
  C34      1.0000 0.23500  0.95473  0.73893  Biso   1.000  C
  C35      1.0000 0.21890  0.73621  0.95881  Biso   1.000  C
  Ba8      1.0000 0.68060  0.46666  0.95055  Biso   1.000  Ba
  V8       1.0000 0.69515  0.09903  0.84085  Biso   1.000  V
  O85      1.0000 0.50362  0.12717  0.84102  Biso   1.000  O
  O86      1.0000 0.32274  0.09480  0.89242  Biso   1.000  O
  O87      1.0000 0.62968  0.99498  0.91216  Biso   1.000  O
  O88      1.0000 0.43914  0.93567  0.93419  Biso   1.000  O
  O89      1.0000 0.52063  0.42633  0.66461  Biso   1.000  O
  O90      1.0000 0.63332  0.53775  0.62949  Biso   1.000  O
  O91      1.0000 0.72350  0.39650  0.78506  Biso   1.000  O
  O92      1.0000 0.83304  0.50560  0.73928  Biso   1.000  O
  O93      1.0000 0.73701  0.15651  0.94436  Biso   1.000  O
  O94      1.0000 0.65897  0.28984  0.91460  Biso   1.000  O
  O95      1.0000 0.72843  0.17913  0.78877  Biso   1.000  O
  O96      1.0000 0.56110  0.61833  0.99920  Biso   1.000  O
  H15      1.0000 0.54500  0.65500  0.96800  Biso   1.000  H
  H16      1.0000 0.60500  0.65200  0.03100  Biso   1.000  H
  C36      1.0000 0.43480  0.07825  0.87877  Biso   1.000  C
  C37      1.0000 0.50600  0.99411  0.91108  Biso   1.000  C
  C38      1.0000 0.61910  0.47258  0.67277  Biso   1.000  C
  C39      1.0000 0.73500  0.45473  0.73893  Biso   1.000  C
  C40      1.0000 0.71890  0.23621  0.95881  Biso   1.000  C
  Ba9      1.0000 0.00000  0.21819  0.25000  Biso   1.000  Ba
  Ba10     1.0000 0.50000  0.71819  0.25000  Biso   1.000  Ba
  Ba11     1.0000 0.00000  0.78181  0.75000  Biso   1.000  Ba
  Ba12     1.0000 0.50000  0.28181  0.75000  Biso   1.000  Ba
