data_image0
_cell_length_a       37.133
_cell_length_b       11.5278
_cell_length_c       6.5155
_cell_angle_alpha    90
_cell_angle_beta     109.266
_cell_angle_gamma    90

_symmetry_space_group_name_H-M    "P 1"
_symmetry_int_tables_number       1

loop_
  _symmetry_equiv_pos_as_xyz
  'x, y, z'

loop_
  _atom_site_label
  _atom_site_occupancy
  _atom_site_fract_x
  _atom_site_fract_y
  _atom_site_fract_z
  _atom_site_thermal_displace_type
  _atom_site_B_iso_or_equiv
  _atom_site_type_symbol
  Al1      1.0000 0.22090  0.28370  0.57100  Biso   1.000  Al
  O1       1.0000 0.19410  0.39480  0.35400  Biso   1.000  O
  O2       1.0000 0.13590  0.45080  0.09100  Biso   1.000  O
  O3       1.0000 0.22680  0.16980  0.81000  Biso   1.000  O
  O4       1.0000 0.19590  0.02700  0.91900  Biso   1.000  O
  O5       1.0000 0.03480  0.12470  0.12800  Biso   1.000  O
  O6       1.0000 0.04230  0.09390  0.49500  Biso   1.000  O
  O7       1.0000 0.22950  0.17840  0.38200  Biso   1.000  O
  N1       1.0000 0.16660  0.24800  0.50200  Biso   1.000  N
  C1       1.0000 0.15850  0.40100  0.25200  Biso   1.000  C
  C2       1.0000 0.14170  0.29600  0.32600  Biso   1.000  C
  C3       1.0000 0.10280  0.25600  0.26500  Biso   1.000  C
  C4       1.0000 0.09280  0.18500  0.41000  Biso   1.000  C
  C5       1.0000 0.12100  0.12800  0.58100  Biso   1.000  C
  C6       1.0000 0.15940  0.15800  0.62100  Biso   1.000  C
  C7       1.0000 0.19500  0.11300  0.79800  Biso   1.000  C
  C8       1.0000 0.05270  0.13100  0.33600  Biso   1.000  C
  Al2      1.0000 0.72090  0.78370  0.57100  Biso   1.000  Al
  O8       1.0000 0.69410  0.89480  0.35400  Biso   1.000  O
  O9       1.0000 0.63590  0.95080  0.09100  Biso   1.000  O
  O10      1.0000 0.72680  0.66980  0.81000  Biso   1.000  O
  O11      1.0000 0.69590  0.52700  0.91900  Biso   1.000  O
  O12      1.0000 0.53480  0.62470  0.12800  Biso   1.000  O
  O13      1.0000 0.54230  0.59390  0.49500  Biso   1.000  O
  O14      1.0000 0.72950  0.67840  0.38200  Biso   1.000  O
  N2       1.0000 0.66660  0.74800  0.50200  Biso   1.000  N
  C9       1.0000 0.65850  0.90100  0.25200  Biso   1.000  C
  C10      1.0000 0.64170  0.79600  0.32600  Biso   1.000  C
  C11      1.0000 0.60280  0.75600  0.26500  Biso   1.000  C
  C12      1.0000 0.59280  0.68500  0.41000  Biso   1.000  C
  C13      1.0000 0.62100  0.62800  0.58100  Biso   1.000  C
  C14      1.0000 0.65940  0.65800  0.62100  Biso   1.000  C
  C15      1.0000 0.69500  0.61300  0.79800  Biso   1.000  C
  C16      1.0000 0.55270  0.63100  0.33600  Biso   1.000  C
  Al3      1.0000 0.77910  0.28370  0.92900  Biso   1.000  Al
  O15      1.0000 0.80590  0.39480  0.14600  Biso   1.000  O
  O16      1.0000 0.86410  0.45080  0.40900  Biso   1.000  O
  O17      1.0000 0.77320  0.16980  0.69000  Biso   1.000  O
  O18      1.0000 0.80410  0.02700  0.58100  Biso   1.000  O
  O19      1.0000 0.96520  0.12470  0.37200  Biso   1.000  O
  O20      1.0000 0.95770  0.09390  0.00500  Biso   1.000  O
  O21      1.0000 0.77050  0.17840  0.11800  Biso   1.000  O
  N3       1.0000 0.83340  0.24800  0.99800  Biso   1.000  N
  C17      1.0000 0.84150  0.40100  0.24800  Biso   1.000  C
  C18      1.0000 0.85830  0.29600  0.17400  Biso   1.000  C
  C19      1.0000 0.89720  0.25600  0.23500  Biso   1.000  C
  C20      1.0000 0.90720  0.18500  0.09000  Biso   1.000  C
  C21      1.0000 0.87900  0.12800  0.91900  Biso   1.000  C
  C22      1.0000 0.84060  0.15800  0.87900  Biso   1.000  C
  C23      1.0000 0.80500  0.11300  0.70200  Biso   1.000  C
  C24      1.0000 0.94730  0.13100  0.16400  Biso   1.000  C
  Al4      1.0000 0.27910  0.78370  0.92900  Biso   1.000  Al
  O22      1.0000 0.30590  0.89480  0.14600  Biso   1.000  O
  O23      1.0000 0.36410  0.95080  0.40900  Biso   1.000  O
  O24      1.0000 0.27320  0.66980  0.69000  Biso   1.000  O
  O25      1.0000 0.30410  0.52700  0.58100  Biso   1.000  O
  O26      1.0000 0.46520  0.62470  0.37200  Biso   1.000  O
  O27      1.0000 0.45770  0.59390  0.00500  Biso   1.000  O
  O28      1.0000 0.27050  0.67840  0.11800  Biso   1.000  O
  N4       1.0000 0.33340  0.74800  0.99800  Biso   1.000  N
  C25      1.0000 0.34150  0.90100  0.24800  Biso   1.000  C
  C26      1.0000 0.35830  0.79600  0.17400  Biso   1.000  C
  C27      1.0000 0.39720  0.75600  0.23500  Biso   1.000  C
  C28      1.0000 0.40720  0.68500  0.09000  Biso   1.000  C
  C29      1.0000 0.37900  0.62800  0.91900  Biso   1.000  C
  C30      1.0000 0.34060  0.65800  0.87900  Biso   1.000  C
  C31      1.0000 0.30500  0.61300  0.70200  Biso   1.000  C
  C32      1.0000 0.44730  0.63100  0.16400  Biso   1.000  C
  Al5      1.0000 0.77910  0.71630  0.42900  Biso   1.000  Al
  O29      1.0000 0.80590  0.60520  0.64600  Biso   1.000  O
  O30      1.0000 0.86410  0.54920  0.90900  Biso   1.000  O
  O31      1.0000 0.77320  0.83020  0.19000  Biso   1.000  O
  O32      1.0000 0.80410  0.97300  0.08100  Biso   1.000  O
  O33      1.0000 0.96520  0.87530  0.87200  Biso   1.000  O
  O34      1.0000 0.95770  0.90610  0.50500  Biso   1.000  O
  O35      1.0000 0.77050  0.82160  0.61800  Biso   1.000  O
  N5       1.0000 0.83340  0.75200  0.49800  Biso   1.000  N
  C33      1.0000 0.84150  0.59900  0.74800  Biso   1.000  C
  C34      1.0000 0.85830  0.70400  0.67400  Biso   1.000  C
  C35      1.0000 0.89720  0.74400  0.73500  Biso   1.000  C
  C36      1.0000 0.90720  0.81500  0.59000  Biso   1.000  C
  C37      1.0000 0.87900  0.87200  0.41900  Biso   1.000  C
  C38      1.0000 0.84060  0.84200  0.37900  Biso   1.000  C
  C39      1.0000 0.80500  0.88700  0.20200  Biso   1.000  C
  C40      1.0000 0.94730  0.86900  0.66400  Biso   1.000  C
  Al6      1.0000 0.27910  0.21630  0.42900  Biso   1.000  Al
  O36      1.0000 0.30590  0.10520  0.64600  Biso   1.000  O
  O37      1.0000 0.36410  0.04920  0.90900  Biso   1.000  O
  O38      1.0000 0.27320  0.33020  0.19000  Biso   1.000  O
  O39      1.0000 0.30410  0.47300  0.08100  Biso   1.000  O
  O40      1.0000 0.46520  0.37530  0.87200  Biso   1.000  O
  O41      1.0000 0.45770  0.40610  0.50500  Biso   1.000  O
  O42      1.0000 0.27050  0.32160  0.61800  Biso   1.000  O
  N6       1.0000 0.33340  0.25200  0.49800  Biso   1.000  N
  C41      1.0000 0.34150  0.09900  0.74800  Biso   1.000  C
  C42      1.0000 0.35830  0.20400  0.67400  Biso   1.000  C
  C43      1.0000 0.39720  0.24400  0.73500  Biso   1.000  C
  C44      1.0000 0.40720  0.31500  0.59000  Biso   1.000  C
  C45      1.0000 0.37900  0.37200  0.41900  Biso   1.000  C
  C46      1.0000 0.34060  0.34200  0.37900  Biso   1.000  C
  C47      1.0000 0.30500  0.38700  0.20200  Biso   1.000  C
  C48      1.0000 0.44730  0.36900  0.66400  Biso   1.000  C
  Al7      1.0000 0.22090  0.71630  0.07100  Biso   1.000  Al
  O43      1.0000 0.19410  0.60520  0.85400  Biso   1.000  O
  O44      1.0000 0.13590  0.54920  0.59100  Biso   1.000  O
  O45      1.0000 0.22680  0.83020  0.31000  Biso   1.000  O
  O46      1.0000 0.19590  0.97300  0.41900  Biso   1.000  O
  O47      1.0000 0.03480  0.87530  0.62800  Biso   1.000  O
  O48      1.0000 0.04230  0.90610  0.99500  Biso   1.000  O
  O49      1.0000 0.22950  0.82160  0.88200  Biso   1.000  O
  N7       1.0000 0.16660  0.75200  0.00200  Biso   1.000  N
  C49      1.0000 0.15850  0.59900  0.75200  Biso   1.000  C
  C50      1.0000 0.14170  0.70400  0.82600  Biso   1.000  C
  C51      1.0000 0.10280  0.74400  0.76500  Biso   1.000  C
  C52      1.0000 0.09280  0.81500  0.91000  Biso   1.000  C
  C53      1.0000 0.12100  0.87200  0.08100  Biso   1.000  C
  C54      1.0000 0.15940  0.84200  0.12100  Biso   1.000  C
  C55      1.0000 0.19500  0.88700  0.29800  Biso   1.000  C
  C56      1.0000 0.05270  0.86900  0.83600  Biso   1.000  C
  Al8      1.0000 0.72090  0.21630  0.07100  Biso   1.000  Al
  O50      1.0000 0.69410  0.10520  0.85400  Biso   1.000  O
  O51      1.0000 0.63590  0.04920  0.59100  Biso   1.000  O
  O52      1.0000 0.72680  0.33020  0.31000  Biso   1.000  O
  O53      1.0000 0.69590  0.47300  0.41900  Biso   1.000  O
  O54      1.0000 0.53480  0.37530  0.62800  Biso   1.000  O
  O55      1.0000 0.54230  0.40610  0.99500  Biso   1.000  O
  O56      1.0000 0.72950  0.32160  0.88200  Biso   1.000  O
  N8       1.0000 0.66660  0.25200  0.00200  Biso   1.000  N
  C57      1.0000 0.65850  0.09900  0.75200  Biso   1.000  C
  C58      1.0000 0.64170  0.20400  0.82600  Biso   1.000  C
  C59      1.0000 0.60280  0.24400  0.76500  Biso   1.000  C
  C60      1.0000 0.59280  0.31500  0.91000  Biso   1.000  C
  C61      1.0000 0.62100  0.37200  0.08100  Biso   1.000  C
  C62      1.0000 0.65940  0.34200  0.12100  Biso   1.000  C
  C63      1.0000 0.69500  0.38700  0.29800  Biso   1.000  C
  C64      1.0000 0.55270  0.36900  0.83600  Biso   1.000  C
  Al9      1.0000 0.00000  0.00000  0.00000  Biso   1.000  Al
  Al10     1.0000 0.50000  0.50000  0.00000  Biso   1.000  Al
  Al11     1.0000 0.00000  0.00000  0.50000  Biso   1.000  Al
  Al12     1.0000 0.50000  0.50000  0.50000  Biso   1.000  Al
  O57      1.0000 0.00000  0.92400  0.25000  Biso   1.000  O
  O58      1.0000 0.50000  0.42400  0.25000  Biso   1.000  O
  O59      1.0000 0.00000  0.07600  0.75000  Biso   1.000  O
  O60      1.0000 0.50000  0.57600  0.75000  Biso   1.000  O
