data_image0
_cell_length_a       14.867
_cell_length_b       32.323
_cell_length_c       9.1792
_cell_angle_alpha    90
_cell_angle_beta     104.26
_cell_angle_gamma    90

_symmetry_space_group_name_H-M    "P 1"
_symmetry_int_tables_number       1

loop_
  _symmetry_equiv_pos_as_xyz
  'x, y, z'

loop_
  _atom_site_label
  _atom_site_occupancy
  _atom_site_fract_x
  _atom_site_fract_y
  _atom_site_fract_z
  _atom_site_thermal_displace_type
  _atom_site_B_iso_or_equiv
  _atom_site_type_symbol
  Co1      1.0000 0.19346  0.12484  0.38181  Biso   1.000  Co
  C1       1.0000 0.32410  0.16750  0.20900  Biso   1.000  C
  H1       1.0000 0.36880  0.17340  0.29690  Biso   1.000  H
  C2       1.0000 0.19730  0.14890  0.05480  Biso   1.000  C
  H2       1.0000 0.13710  0.13920  0.01730  Biso   1.000  H
  C3       1.0000 0.25580  0.16140  0.96980  Biso   1.000  C
  H3       1.0000 0.24360  0.16180  0.86550  Biso   1.000  H
  C4       1.0000 0.41520  0.19240  0.03430  Biso   1.000  C
  C5       1.0000 0.40310  0.22110  0.92100  Biso   1.000  C
  H4       1.0000 0.34420  0.22670  0.86090  Biso   1.000  H
  C6       1.0000 0.47970  0.24150  0.89790  Biso   1.000  C
  H5       1.0000 0.47140  0.26070  0.82020  Biso   1.000  H
  C7       1.0000 0.56880  0.23470  0.98560  Biso   1.000  C
  C8       1.0000 0.57860  0.20410  0.09380  Biso   1.000  C
  H6       1.0000 0.63760  0.19810  0.15260  Biso   1.000  H
  C9       1.0000 0.50350  0.18210  0.11770  Biso   1.000  C
  H7       1.0000 0.51210  0.16090  0.18810  Biso   1.000  H
  C10      1.0000 0.64880  0.26090  0.96760  Biso   1.000  C
  C11      1.0000 0.64350  0.30250  0.00600  Biso   1.000  C
  H8       1.0000 0.59330  0.31180  0.04080  Biso   1.000  H
  C12      1.0000 0.71280  0.33030  0.99270  Biso   1.000  C
  C13      1.0000 0.78510  0.31470  0.93560  Biso   1.000  C
  H9       1.0000 0.83160  0.33280  0.92500  Biso   1.000  H
  C14      1.0000 0.79140  0.27320  0.89340  Biso   1.000  C
  C15      1.0000 0.72100  0.24660  0.91290  Biso   1.000  C
  H10      1.0000 0.72310  0.21880  0.88830  Biso   1.000  H
  C16      1.0000 0.86630  0.25830  0.82490  Biso   1.000  C
  C17      1.0000 0.89200  0.21650  0.82760  Biso   1.000  C
  H11      1.0000 0.85990  0.19730  0.87120  Biso   1.000  H
  C18      1.0000 0.96380  0.20250  0.76750  Biso   1.000  C
  H12      1.0000 0.98150  0.17490  0.77600  Biso   1.000  H
  C19      1.0000 0.00800  0.23020  0.69530  Biso   1.000  C
  C20      1.0000 0.98530  0.27190  0.69190  Biso   1.000  C
  H13      1.0000 0.01710  0.29080  0.64650  Biso   1.000  H
  C21      1.0000 0.91560  0.28550  0.75590  Biso   1.000  C
  H14      1.0000 0.90120  0.31350  0.75280  Biso   1.000  H
  C22      1.0000 0.07850  0.18020  0.55120  Biso   1.000  C
  H15      1.0000 0.03230  0.16030  0.54130  Biso   1.000  H
  C23      1.0000 0.19900  0.21250  0.53120  Biso   1.000  C
  H16      1.0000 0.25410  0.21890  0.50570  Biso   1.000  H
  C24      1.0000 0.15550  0.23780  0.60990  Biso   1.000  C
  H17      1.0000 0.17380  0.26410  0.64580  Biso   1.000  H
  C25      1.0000 0.71210  0.37390  0.03670  Biso   1.000  C
  C26      1.0000 0.79550  0.39390  0.10910  Biso   1.000  C
  H18      1.0000 0.85130  0.37940  0.13160  Biso   1.000  H
  C27      1.0000 0.79360  0.43550  0.14640  Biso   1.000  C
  H19      1.0000 0.84880  0.44870  0.19310  Biso   1.000  H
  C28      1.0000 0.71110  0.45790  0.11550  Biso   1.000  C
  C29      1.0000 0.62910  0.43740  0.05100  Biso   1.000  C
  H20      1.0000 0.57290  0.45150  0.03370  Biso   1.000  H
  C30      1.0000 0.63040  0.39610  0.01220  Biso   1.000  C
  H21      1.0000 0.57470  0.38290  0.96840  Biso   1.000  H
  C31      1.0000 0.77350  0.52900  0.13870  Biso   1.000  C
  H22      1.0000 0.82460  0.52320  0.10080  Biso   1.000  H
  C32      1.0000 0.67290  0.55970  0.22770  Biso   1.000  C
  H23      1.0000 0.64110  0.58030  0.26520  Biso   1.000  H
  C33      1.0000 0.64620  0.52000  0.21030  Biso   1.000  C
  H24      1.0000 0.59380  0.50830  0.23190  Biso   1.000  H
  C34      1.0000 0.02530  0.10030  0.28830  Biso   1.000  C
  C35      1.0000 0.92530  0.08910  0.22410  Biso   1.000  C
  C36      1.0000 0.88300  0.09360  0.07300  Biso   1.000  C
  H25      1.0000 0.91650  0.10400  0.00790  Biso   1.000  H
  C37      1.0000 0.79020  0.08260  0.01820  Biso   1.000  C
  H26      1.0000 0.76330  0.08560  0.91600  Biso   1.000  H
  C38      1.0000 0.73730  0.06760  0.10720  Biso   1.000  C
  C39      1.0000 0.77750  0.06390  0.25850  Biso   1.000  C
  H27      1.0000 0.74160  0.05580  0.32330  Biso   1.000  H
  C40      1.0000 0.87340  0.07240  0.31670  Biso   1.000  C
  H28      1.0000 0.90150  0.06670  0.41690  Biso   1.000  H
  C41      1.0000 0.58640  0.07500  0.94900  Biso   1.000  C
  C42      1.0000 0.59500  0.11480  0.90930  Biso   1.000  C
  H29      1.0000 0.64700  0.12990  0.95740  Biso   1.000  H
  C43      1.0000 0.52650  0.13340  0.79670  Biso   1.000  C
  H30      1.0000 0.53300  0.16090  0.77130  Biso   1.000  H
  C44      1.0000 0.44780  0.11110  0.72150  Biso   1.000  C
  C45      1.0000 0.44030  0.07010  0.76300  Biso   1.000  C
  H31      1.0000 0.38880  0.05450  0.71580  Biso   1.000  H
  C46      1.0000 0.51140  0.05190  0.87770  Biso   1.000  C
  H32      1.0000 0.50690  0.02430  0.90410  Biso   1.000  H
  C47      1.0000 0.37510  0.13210  0.59500  Biso   1.000  C
  N1       1.0000 0.24140  0.15270  0.20540  Biso   1.000  N
  N2       1.0000 0.33600  0.17330  0.06960  Biso   1.000  N
  N3       1.0000 0.15180  0.17680  0.49480  Biso   1.000  N
  N4       1.0000 0.07930  0.21650  0.62550  Biso   1.000  N
  N5       1.0000 0.75440  0.56600  0.18210  Biso   1.000  N
  N6       1.0000 0.71090  0.50040  0.15510  Biso   1.000  N
  O1       1.0000 0.06880  0.08710  0.41710  Biso   1.000  O
  O2       1.0000 0.06130  0.12370  0.21340  Biso   1.000  O
  O3       1.0000 0.64850  0.05460  0.06180  Biso   1.000  O
  O4       1.0000 0.40090  0.16270  0.53420  Biso   1.000  O
  O5       1.0000 0.29640  0.11470  0.56880  Biso   1.000  O
  Co2      1.0000 0.80654  0.62484  0.11819  Biso   1.000  Co
  C48      1.0000 0.67590  0.66750  0.29100  Biso   1.000  C
  H33      1.0000 0.63120  0.67340  0.20310  Biso   1.000  H
  C49      1.0000 0.80270  0.64890  0.44520  Biso   1.000  C
  H34      1.0000 0.86290  0.63920  0.48270  Biso   1.000  H
  C50      1.0000 0.74420  0.66140  0.53020  Biso   1.000  C
  H35      1.0000 0.75640  0.66180  0.63450  Biso   1.000  H
  C51      1.0000 0.58480  0.69240  0.46570  Biso   1.000  C
  C52      1.0000 0.59690  0.72110  0.57900  Biso   1.000  C
  H36      1.0000 0.65580  0.72670  0.63910  Biso   1.000  H
  C53      1.0000 0.52030  0.74150  0.60210  Biso   1.000  C
  H37      1.0000 0.52860  0.76070  0.67980  Biso   1.000  H
  C54      1.0000 0.43120  0.73470  0.51440  Biso   1.000  C
  C55      1.0000 0.42140  0.70410  0.40620  Biso   1.000  C
  H38      1.0000 0.36240  0.69810  0.34740  Biso   1.000  H
  C56      1.0000 0.49650  0.68210  0.38230  Biso   1.000  C
  H39      1.0000 0.48790  0.66090  0.31190  Biso   1.000  H
  C57      1.0000 0.35120  0.76090  0.53240  Biso   1.000  C
  C58      1.0000 0.35650  0.80250  0.49400  Biso   1.000  C
  H40      1.0000 0.40670  0.81180  0.45920  Biso   1.000  H
  C59      1.0000 0.28720  0.83030  0.50730  Biso   1.000  C
  C60      1.0000 0.21490  0.81470  0.56440  Biso   1.000  C
  H41      1.0000 0.16840  0.83280  0.57500  Biso   1.000  H
  C61      1.0000 0.20860  0.77320  0.60660  Biso   1.000  C
  C62      1.0000 0.27900  0.74660  0.58710  Biso   1.000  C
  H42      1.0000 0.27690  0.71880  0.61170  Biso   1.000  H
  C63      1.0000 0.13370  0.75830  0.67510  Biso   1.000  C
  C64      1.0000 0.10800  0.71650  0.67240  Biso   1.000  C
  H43      1.0000 0.14010  0.69730  0.62880  Biso   1.000  H
  C65      1.0000 0.03620  0.70250  0.73250  Biso   1.000  C
  H44      1.0000 0.01850  0.67490  0.72400  Biso   1.000  H
  C66      1.0000 0.99200  0.73020  0.80470  Biso   1.000  C
  C67      1.0000 0.01470  0.77190  0.80810  Biso   1.000  C
  H45      1.0000 0.98290  0.79080  0.85350  Biso   1.000  H
  C68      1.0000 0.08440  0.78550  0.74410  Biso   1.000  C
  H46      1.0000 0.09880  0.81350  0.74720  Biso   1.000  H
  C69      1.0000 0.92150  0.68020  0.94880  Biso   1.000  C
  H47      1.0000 0.96770  0.66030  0.95870  Biso   1.000  H
  C70      1.0000 0.80100  0.71250  0.96880  Biso   1.000  C
  H48      1.0000 0.74590  0.71890  0.99430  Biso   1.000  H
  C71      1.0000 0.84450  0.73780  0.89010  Biso   1.000  C
  H49      1.0000 0.82620  0.76410  0.85420  Biso   1.000  H
  C72      1.0000 0.28790  0.87390  0.46330  Biso   1.000  C
  C73      1.0000 0.20450  0.89390  0.39090  Biso   1.000  C
  H50      1.0000 0.14870  0.87940  0.36840  Biso   1.000  H
  C74      1.0000 0.20640  0.93550  0.35360  Biso   1.000  C
  H51      1.0000 0.15120  0.94870  0.30690  Biso   1.000  H
  C75      1.0000 0.28890  0.95790  0.38450  Biso   1.000  C
  C76      1.0000 0.37090  0.93740  0.44900  Biso   1.000  C
  H52      1.0000 0.42710  0.95150  0.46630  Biso   1.000  H
  C77      1.0000 0.36960  0.89610  0.48780  Biso   1.000  C
  H53      1.0000 0.42530  0.88290  0.53160  Biso   1.000  H
  C78      1.0000 0.22650  0.02900  0.36130  Biso   1.000  C
  H54      1.0000 0.17540  0.02320  0.39920  Biso   1.000  H
  C79      1.0000 0.32710  0.05970  0.27230  Biso   1.000  C
  H55      1.0000 0.35890  0.08030  0.23480  Biso   1.000  H
  C80      1.0000 0.35380  0.02000  0.28970  Biso   1.000  C
  H56      1.0000 0.40620  0.00830  0.26810  Biso   1.000  H
  C81      1.0000 0.97470  0.60030  0.21170  Biso   1.000  C
  C82      1.0000 0.07470  0.58910  0.27590  Biso   1.000  C
  C83      1.0000 0.11700  0.59360  0.42700  Biso   1.000  C
  H57      1.0000 0.08350  0.60400  0.49210  Biso   1.000  H
  C84      1.0000 0.20980  0.58260  0.48180  Biso   1.000  C
  H58      1.0000 0.23670  0.58560  0.58400  Biso   1.000  H
  C85      1.0000 0.26270  0.56760  0.39280  Biso   1.000  C
  C86      1.0000 0.22250  0.56390  0.24150  Biso   1.000  C
  H59      1.0000 0.25840  0.55580  0.17670  Biso   1.000  H
  C87      1.0000 0.12660  0.57240  0.18330  Biso   1.000  C
  H60      1.0000 0.09850  0.56670  0.08310  Biso   1.000  H
  C88      1.0000 0.41360  0.57500  0.55100  Biso   1.000  C
  C89      1.0000 0.40500  0.61480  0.59070  Biso   1.000  C
  H61      1.0000 0.35300  0.62990  0.54260  Biso   1.000  H
  C90      1.0000 0.47350  0.63340  0.70330  Biso   1.000  C
  H62      1.0000 0.46700  0.66090  0.72870  Biso   1.000  H
  C91      1.0000 0.55220  0.61110  0.77850  Biso   1.000  C
  C92      1.0000 0.55970  0.57010  0.73700  Biso   1.000  C
  H63      1.0000 0.61120  0.55450  0.78420  Biso   1.000  H
  C93      1.0000 0.48860  0.55190  0.62230  Biso   1.000  C
  H64      1.0000 0.49310  0.52430  0.59590  Biso   1.000  H
  C94      1.0000 0.62490  0.63210  0.90500  Biso   1.000  C
  N7       1.0000 0.75860  0.65270  0.29460  Biso   1.000  N
  N8       1.0000 0.66400  0.67330  0.43040  Biso   1.000  N
  N9       1.0000 0.84820  0.67680  0.00520  Biso   1.000  N
  N10      1.0000 0.92070  0.71650  0.87450  Biso   1.000  N
  N11      1.0000 0.24560  0.06600  0.31790  Biso   1.000  N
  N12      1.0000 0.28910  0.00040  0.34490  Biso   1.000  N
  O6       1.0000 0.93120  0.58710  0.08290  Biso   1.000  O
  O7       1.0000 0.93870  0.62370  0.28660  Biso   1.000  O
  O8       1.0000 0.35150  0.55460  0.43820  Biso   1.000  O
  O9       1.0000 0.59910  0.66270  0.96580  Biso   1.000  O
  O10      1.0000 0.70360  0.61470  0.93120  Biso   1.000  O
  Co3      1.0000 0.80654  0.87516  0.61819  Biso   1.000  Co
  C95      1.0000 0.67590  0.83250  0.79100  Biso   1.000  C
  H65      1.0000 0.63120  0.82660  0.70310  Biso   1.000  H
  C96      1.0000 0.80270  0.85110  0.94520  Biso   1.000  C
  H66      1.0000 0.86290  0.86080  0.98270  Biso   1.000  H
  C97      1.0000 0.74420  0.83860  0.03020  Biso   1.000  C
  H67      1.0000 0.75640  0.83820  0.13450  Biso   1.000  H
  C98      1.0000 0.58480  0.80760  0.96570  Biso   1.000  C
  C99      1.0000 0.59690  0.77890  0.07900  Biso   1.000  C
  H68      1.0000 0.65580  0.77330  0.13910  Biso   1.000  H
  C100     1.0000 0.52030  0.75850  0.10210  Biso   1.000  C
  H69      1.0000 0.52860  0.73930  0.17980  Biso   1.000  H
  C101     1.0000 0.43120  0.76530  0.01440  Biso   1.000  C
  C102     1.0000 0.42140  0.79590  0.90620  Biso   1.000  C
  H70      1.0000 0.36240  0.80190  0.84740  Biso   1.000  H
  C103     1.0000 0.49650  0.81790  0.88230  Biso   1.000  C
  H71      1.0000 0.48790  0.83910  0.81190  Biso   1.000  H
  C104     1.0000 0.35120  0.73910  0.03240  Biso   1.000  C
  C105     1.0000 0.35650  0.69750  0.99400  Biso   1.000  C
  H72      1.0000 0.40670  0.68820  0.95920  Biso   1.000  H
  C106     1.0000 0.28720  0.66970  0.00730  Biso   1.000  C
  C107     1.0000 0.21490  0.68530  0.06440  Biso   1.000  C
  H73      1.0000 0.16840  0.66720  0.07500  Biso   1.000  H
  C108     1.0000 0.20860  0.72680  0.10660  Biso   1.000  C
  C109     1.0000 0.27900  0.75340  0.08710  Biso   1.000  C
  H74      1.0000 0.27690  0.78120  0.11170  Biso   1.000  H
  C110     1.0000 0.13370  0.74170  0.17510  Biso   1.000  C
  C111     1.0000 0.10800  0.78350  0.17240  Biso   1.000  C
  H75      1.0000 0.14010  0.80270  0.12880  Biso   1.000  H
  C112     1.0000 0.03620  0.79750  0.23250  Biso   1.000  C
  H76      1.0000 0.01850  0.82510  0.22400  Biso   1.000  H
  C113     1.0000 0.99200  0.76980  0.30470  Biso   1.000  C
  C114     1.0000 0.01470  0.72810  0.30810  Biso   1.000  C
  H77      1.0000 0.98290  0.70920  0.35350  Biso   1.000  H
  C115     1.0000 0.08440  0.71450  0.24410  Biso   1.000  C
  H78      1.0000 0.09880  0.68650  0.24720  Biso   1.000  H
  C116     1.0000 0.92150  0.81980  0.44880  Biso   1.000  C
  H79      1.0000 0.96770  0.83970  0.45870  Biso   1.000  H
  C117     1.0000 0.80100  0.78750  0.46880  Biso   1.000  C
  H80      1.0000 0.74590  0.78110  0.49430  Biso   1.000  H
  C118     1.0000 0.84450  0.76220  0.39010  Biso   1.000  C
  H81      1.0000 0.82620  0.73590  0.35420  Biso   1.000  H
  C119     1.0000 0.28790  0.62610  0.96330  Biso   1.000  C
  C120     1.0000 0.20450  0.60610  0.89090  Biso   1.000  C
  H82      1.0000 0.14870  0.62060  0.86840  Biso   1.000  H
  C121     1.0000 0.20640  0.56450  0.85360  Biso   1.000  C
  H83      1.0000 0.15120  0.55130  0.80690  Biso   1.000  H
  C122     1.0000 0.28890  0.54210  0.88450  Biso   1.000  C
  C123     1.0000 0.37090  0.56260  0.94900  Biso   1.000  C
  H84      1.0000 0.42710  0.54850  0.96630  Biso   1.000  H
  C124     1.0000 0.36960  0.60390  0.98780  Biso   1.000  C
  H85      1.0000 0.42530  0.61710  0.03160  Biso   1.000  H
  C125     1.0000 0.22650  0.47100  0.86130  Biso   1.000  C
  H86      1.0000 0.17540  0.47680  0.89920  Biso   1.000  H
  C126     1.0000 0.32710  0.44030  0.77230  Biso   1.000  C
  H87      1.0000 0.35890  0.41970  0.73480  Biso   1.000  H
  C127     1.0000 0.35380  0.48000  0.78970  Biso   1.000  C
  H88      1.0000 0.40620  0.49170  0.76810  Biso   1.000  H
  C128     1.0000 0.97470  0.89970  0.71170  Biso   1.000  C
  C129     1.0000 0.07470  0.91090  0.77590  Biso   1.000  C
  C130     1.0000 0.11700  0.90640  0.92700  Biso   1.000  C
  H89      1.0000 0.08350  0.89600  0.99210  Biso   1.000  H
  C131     1.0000 0.20980  0.91740  0.98180  Biso   1.000  C
  H90      1.0000 0.23670  0.91440  0.08400  Biso   1.000  H
  C132     1.0000 0.26270  0.93240  0.89280  Biso   1.000  C
  C133     1.0000 0.22250  0.93610  0.74150  Biso   1.000  C
  H91      1.0000 0.25840  0.94420  0.67670  Biso   1.000  H
  C134     1.0000 0.12660  0.92760  0.68330  Biso   1.000  C
  H92      1.0000 0.09850  0.93330  0.58310  Biso   1.000  H
  C135     1.0000 0.41360  0.92500  0.05100  Biso   1.000  C
  C136     1.0000 0.40500  0.88520  0.09070  Biso   1.000  C
  H93      1.0000 0.35300  0.87010  0.04260  Biso   1.000  H
  C137     1.0000 0.47350  0.86660  0.20330  Biso   1.000  C
  H94      1.0000 0.46700  0.83910  0.22870  Biso   1.000  H
  C138     1.0000 0.55220  0.88890  0.27850  Biso   1.000  C
  C139     1.0000 0.55970  0.92990  0.23700  Biso   1.000  C
  H95      1.0000 0.61120  0.94550  0.28420  Biso   1.000  H
  C140     1.0000 0.48860  0.94810  0.12230  Biso   1.000  C
  H96      1.0000 0.49310  0.97570  0.09590  Biso   1.000  H
  C141     1.0000 0.62490  0.86790  0.40500  Biso   1.000  C
  N13      1.0000 0.75860  0.84730  0.79460  Biso   1.000  N
  N14      1.0000 0.66400  0.82670  0.93040  Biso   1.000  N
  N15      1.0000 0.84820  0.82320  0.50520  Biso   1.000  N
  N16      1.0000 0.92070  0.78350  0.37450  Biso   1.000  N
  N17      1.0000 0.24560  0.43400  0.81790  Biso   1.000  N
  N18      1.0000 0.28910  0.49960  0.84490  Biso   1.000  N
  O11      1.0000 0.93120  0.91290  0.58290  Biso   1.000  O
  O12      1.0000 0.93870  0.87630  0.78660  Biso   1.000  O
  O13      1.0000 0.35150  0.94540  0.93820  Biso   1.000  O
  O14      1.0000 0.59910  0.83730  0.46580  Biso   1.000  O
  O15      1.0000 0.70360  0.88530  0.43120  Biso   1.000  O
  Co4      1.0000 0.19346  0.37516  0.88181  Biso   1.000  Co
  C142     1.0000 0.32410  0.33250  0.70900  Biso   1.000  C
  H97      1.0000 0.36880  0.32660  0.79690  Biso   1.000  H
  C143     1.0000 0.19730  0.35110  0.55480  Biso   1.000  C
  H98      1.0000 0.13710  0.36080  0.51730  Biso   1.000  H
  C144     1.0000 0.25580  0.33860  0.46980  Biso   1.000  C
  H99      1.0000 0.24360  0.33820  0.36550  Biso   1.000  H
  C145     1.0000 0.41520  0.30760  0.53430  Biso   1.000  C
  C146     1.0000 0.40310  0.27890  0.42100  Biso   1.000  C
  H100     1.0000 0.34420  0.27330  0.36090  Biso   1.000  H
  C147     1.0000 0.47970  0.25850  0.39790  Biso   1.000  C
  H101     1.0000 0.47140  0.23930  0.32020  Biso   1.000  H
  C148     1.0000 0.56880  0.26530  0.48560  Biso   1.000  C
  C149     1.0000 0.57860  0.29590  0.59380  Biso   1.000  C
  H102     1.0000 0.63760  0.30190  0.65260  Biso   1.000  H
  C150     1.0000 0.50350  0.31790  0.61770  Biso   1.000  C
  H103     1.0000 0.51210  0.33910  0.68810  Biso   1.000  H
  C151     1.0000 0.64880  0.23910  0.46760  Biso   1.000  C
  C152     1.0000 0.64350  0.19750  0.50600  Biso   1.000  C
  H104     1.0000 0.59330  0.18820  0.54080  Biso   1.000  H
  C153     1.0000 0.71280  0.16970  0.49270  Biso   1.000  C
  C154     1.0000 0.78510  0.18530  0.43560  Biso   1.000  C
  H105     1.0000 0.83160  0.16720  0.42500  Biso   1.000  H
  C155     1.0000 0.79140  0.22680  0.39340  Biso   1.000  C
  C156     1.0000 0.72100  0.25340  0.41290  Biso   1.000  C
  H106     1.0000 0.72310  0.28120  0.38830  Biso   1.000  H
  C157     1.0000 0.86630  0.24170  0.32490  Biso   1.000  C
  C158     1.0000 0.89200  0.28350  0.32760  Biso   1.000  C
  H107     1.0000 0.85990  0.30270  0.37120  Biso   1.000  H
  C159     1.0000 0.96380  0.29750  0.26750  Biso   1.000  C
  H108     1.0000 0.98150  0.32510  0.27600  Biso   1.000  H
  C160     1.0000 0.00800  0.26980  0.19530  Biso   1.000  C
  C161     1.0000 0.98530  0.22810  0.19190  Biso   1.000  C
  H109     1.0000 0.01710  0.20920  0.14650  Biso   1.000  H
  C162     1.0000 0.91560  0.21450  0.25590  Biso   1.000  C
  H110     1.0000 0.90120  0.18650  0.25280  Biso   1.000  H
  C163     1.0000 0.07850  0.31980  0.05120  Biso   1.000  C
  H111     1.0000 0.03230  0.33970  0.04130  Biso   1.000  H
  C164     1.0000 0.19900  0.28750  0.03120  Biso   1.000  C
  H112     1.0000 0.25410  0.28110  0.00570  Biso   1.000  H
  C165     1.0000 0.15550  0.26220  0.10990  Biso   1.000  C
  H113     1.0000 0.17380  0.23590  0.14580  Biso   1.000  H
  C166     1.0000 0.71210  0.12610  0.53670  Biso   1.000  C
  C167     1.0000 0.79550  0.10610  0.60910  Biso   1.000  C
  H114     1.0000 0.85130  0.12060  0.63160  Biso   1.000  H
  C168     1.0000 0.79360  0.06450  0.64640  Biso   1.000  C
  H115     1.0000 0.84880  0.05130  0.69310  Biso   1.000  H
  C169     1.0000 0.71110  0.04210  0.61550  Biso   1.000  C
  C170     1.0000 0.62910  0.06260  0.55100  Biso   1.000  C
  H116     1.0000 0.57290  0.04850  0.53370  Biso   1.000  H
  C171     1.0000 0.63040  0.10390  0.51220  Biso   1.000  C
  H117     1.0000 0.57470  0.11710  0.46840  Biso   1.000  H
  C172     1.0000 0.77350  0.97100  0.63870  Biso   1.000  C
  H118     1.0000 0.82460  0.97680  0.60080  Biso   1.000  H
  C173     1.0000 0.67290  0.94030  0.72770  Biso   1.000  C
  H119     1.0000 0.64110  0.91970  0.76520  Biso   1.000  H
  C174     1.0000 0.64620  0.98000  0.71030  Biso   1.000  C
  H120     1.0000 0.59380  0.99170  0.73190  Biso   1.000  H
  C175     1.0000 0.02530  0.39970  0.78830  Biso   1.000  C
  C176     1.0000 0.92530  0.41090  0.72410  Biso   1.000  C
  C177     1.0000 0.88300  0.40640  0.57300  Biso   1.000  C
  H121     1.0000 0.91650  0.39600  0.50790  Biso   1.000  H
  C178     1.0000 0.79020  0.41740  0.51820  Biso   1.000  C
  H122     1.0000 0.76330  0.41440  0.41600  Biso   1.000  H
  C179     1.0000 0.73730  0.43240  0.60720  Biso   1.000  C
  C180     1.0000 0.77750  0.43610  0.75850  Biso   1.000  C
  H123     1.0000 0.74160  0.44420  0.82330  Biso   1.000  H
  C181     1.0000 0.87340  0.42760  0.81670  Biso   1.000  C
  H124     1.0000 0.90150  0.43330  0.91690  Biso   1.000  H
  C182     1.0000 0.58640  0.42500  0.44900  Biso   1.000  C
  C183     1.0000 0.59500  0.38520  0.40930  Biso   1.000  C
  H125     1.0000 0.64700  0.37010  0.45740  Biso   1.000  H
  C184     1.0000 0.52650  0.36660  0.29670  Biso   1.000  C
  H126     1.0000 0.53300  0.33910  0.27130  Biso   1.000  H
  C185     1.0000 0.44780  0.38890  0.22150  Biso   1.000  C
  C186     1.0000 0.44030  0.42990  0.26300  Biso   1.000  C
  H127     1.0000 0.38880  0.44550  0.21580  Biso   1.000  H
  C187     1.0000 0.51140  0.44810  0.37770  Biso   1.000  C
  H128     1.0000 0.50690  0.47570  0.40410  Biso   1.000  H
  C188     1.0000 0.37510  0.36790  0.09500  Biso   1.000  C
  N19      1.0000 0.24140  0.34730  0.70540  Biso   1.000  N
  N20      1.0000 0.33600  0.32670  0.56960  Biso   1.000  N
  N21      1.0000 0.15180  0.32320  0.99480  Biso   1.000  N
  N22      1.0000 0.07930  0.28350  0.12550  Biso   1.000  N
  N23      1.0000 0.75440  0.93400  0.68210  Biso   1.000  N
  N24      1.0000 0.71090  0.99960  0.65510  Biso   1.000  N
  O16      1.0000 0.06880  0.41290  0.91710  Biso   1.000  O
  O17      1.0000 0.06130  0.37630  0.71340  Biso   1.000  O
  O18      1.0000 0.64850  0.44540  0.56180  Biso   1.000  O
  O19      1.0000 0.40090  0.33730  0.03420  Biso   1.000  O
  O20      1.0000 0.29640  0.38530  0.06880  Biso   1.000  O
