data_image0
_cell_length_a       23.862
_cell_length_b       8.593
_cell_length_c       19.0584
_cell_angle_alpha    90
_cell_angle_beta     90
_cell_angle_gamma    90

_symmetry_space_group_name_H-M    "P 1"
_symmetry_int_tables_number       1

loop_
  _symmetry_equiv_pos_as_xyz
  'x, y, z'

loop_
  _atom_site_label
  _atom_site_occupancy
  _atom_site_fract_x
  _atom_site_fract_y
  _atom_site_fract_z
  _atom_site_thermal_displace_type
  _atom_site_B_iso_or_equiv
  _atom_site_type_symbol
  Co1      1.0000 0.34376  0.69733  0.48375  Biso   1.000  Co
  P1       1.0000 0.59872  0.47340  0.13466  Biso   1.000  P
  N1       1.0000 0.40300  0.88020  0.48230  Biso   1.000  N
  N2       1.0000 0.58470  0.15680  0.47240  Biso   1.000  N
  N3       1.0000 0.77970  0.97360  0.48220  Biso   1.000  N
  C1       1.0000 0.39080  0.02770  0.46470  Biso   1.000  C
  H1       1.0000 0.35300  0.05370  0.45450  Biso   1.000  H
  C2       1.0000 0.43140  0.14420  0.46060  Biso   1.000  C
  H2       1.0000 0.42080  0.24840  0.45050  Biso   1.000  H
  C3       1.0000 0.48640  0.10710  0.47150  Biso   1.000  C
  C4       1.0000 0.49920  0.95380  0.49070  Biso   1.000  C
  H3       1.0000 0.53670  0.92480  0.50150  Biso   1.000  H
  C5       1.0000 0.45710  0.84710  0.49370  Biso   1.000  C
  H4       1.0000 0.46660  0.74250  0.50440  Biso   1.000  H
  C6       1.0000 0.53440  0.21840  0.46120  Biso   1.000  C
  C7       1.0000 0.52780  0.37030  0.43710  Biso   1.000  C
  H5       1.0000 0.49140  0.41210  0.43050  Biso   1.000  H
  C8       1.0000 0.57430  0.45980  0.42290  Biso   1.000  C
  C9       1.0000 0.62640  0.39340  0.43130  Biso   1.000  C
  H6       1.0000 0.65930  0.44960  0.41920  Biso   1.000  H
  C10      1.0000 0.63020  0.24190  0.45800  Biso   1.000  C
  C11      1.0000 0.68440  0.16120  0.46860  Biso   1.000  C
  C12      1.0000 0.73050  0.18190  0.42690  Biso   1.000  C
  H7       1.0000 0.73040  0.26200  0.39250  Biso   1.000  H
  C13      1.0000 0.77650  0.08950  0.43390  Biso   1.000  C
  H8       1.0000 0.80770  0.10690  0.40390  Biso   1.000  H
  C14      1.0000 0.73620  0.96000  0.52510  Biso   1.000  C
  H9       1.0000 0.73840  0.88600  0.56210  Biso   1.000  H
  C15      1.0000 0.68830  0.04630  0.51930  Biso   1.000  C
  H10      1.0000 0.65770  0.02750  0.55010  Biso   1.000  H
  C16      1.0000 0.57150  0.62170  0.39340  Biso   1.000  C
  C17      1.0000 0.52510  0.67150  0.35650  Biso   1.000  C
  H11      1.0000 0.49270  0.60740  0.35380  Biso   1.000  H
  C18      1.0000 0.52570  0.81790  0.32270  Biso   1.000  C
  H12      1.0000 0.49360  0.85230  0.29780  Biso   1.000  H
  C19      1.0000 0.57210  0.91000  0.32560  Biso   1.000  C
  C20      1.0000 0.61740  0.86350  0.36470  Biso   1.000  C
  H13      1.0000 0.64970  0.92800  0.36700  Biso   1.000  H
  C21      1.0000 0.61650  0.72240  0.40100  Biso   1.000  C
  H14      1.0000 0.64680  0.69530  0.43100  Biso   1.000  H
  C22      1.0000 0.57650  0.05450  0.28170  Biso   1.000  C
  C23      1.0000 0.53550  0.16530  0.27980  Biso   1.000  C
  H15      1.0000 0.50290  0.15270  0.30790  Biso   1.000  H
  C24      1.0000 0.54070  0.29740  0.23720  Biso   1.000  C
  H16      1.0000 0.51250  0.37530  0.23770  Biso   1.000  H
  C25      1.0000 0.58830  0.31430  0.19310  Biso   1.000  C
  C26      1.0000 0.62790  0.19650  0.19550  Biso   1.000  C
  H17      1.0000 0.65950  0.20330  0.16530  Biso   1.000  H
  C27      1.0000 0.62380  0.07090  0.23930  Biso   1.000  C
  H18      1.0000 0.65290  0.99540  0.24080  Biso   1.000  H
  C28      1.0000 0.53480  0.58700  0.13290  Biso   1.000  C
  C29      1.0000 0.48470  0.51620  0.11640  Biso   1.000  C
  H19      1.0000 0.48460  0.40990  0.10260  Biso   1.000  H
  C30      1.0000 0.43490  0.59610  0.11930  Biso   1.000  C
  H20      1.0000 0.40050  0.54470  0.10950  Biso   1.000  H
  C31      1.0000 0.43550  0.75430  0.13690  Biso   1.000  C
  H21      1.0000 0.40140  0.81120  0.13870  Biso   1.000  H
  C32      1.0000 0.48510  0.82700  0.15140  Biso   1.000  C
  H22      1.0000 0.48520  0.93480  0.16240  Biso   1.000  H
  C33      1.0000 0.53470  0.74690  0.15010  Biso   1.000  C
  H23      1.0000 0.56880  0.79860  0.16080  Biso   1.000  H
  C34      1.0000 0.65540  0.58960  0.17050  Biso   1.000  C
  C35      1.0000 0.68140  0.69560  0.12800  Biso   1.000  C
  H24      1.0000 0.66800  0.71340  0.08180  Biso   1.000  H
  C36      1.0000 0.72820  0.77810  0.15310  Biso   1.000  C
  H25      1.0000 0.74790  0.84800  0.12340  Biso   1.000  H
  C37      1.0000 0.74540  0.75520  0.22310  Biso   1.000  C
  H26      1.0000 0.77620  0.81280  0.24120  Biso   1.000  H
  C38      1.0000 0.71840  0.65150  0.26490  Biso   1.000  C
  H27      1.0000 0.73130  0.63480  0.31140  Biso   1.000  H
  C39      1.0000 0.67190  0.56890  0.24030  Biso   1.000  C
  H28      1.0000 0.65200  0.50010  0.27030  Biso   1.000  H
  O1       1.0000 0.61360  0.41940  0.06330  Biso   1.000  O
  Co2      1.0000 0.65624  0.30267  0.98375  Biso   1.000  Co
  P2       1.0000 0.40128  0.52660  0.63466  Biso   1.000  P
  N4       1.0000 0.59700  0.11980  0.98230  Biso   1.000  N
  N5       1.0000 0.41530  0.84320  0.97240  Biso   1.000  N
  N6       1.0000 0.22030  0.02640  0.98220  Biso   1.000  N
  C40      1.0000 0.60920  0.97230  0.96470  Biso   1.000  C
  H29      1.0000 0.64700  0.94630  0.95450  Biso   1.000  H
  C41      1.0000 0.56860  0.85580  0.96060  Biso   1.000  C
  H30      1.0000 0.57920  0.75160  0.95050  Biso   1.000  H
  C42      1.0000 0.51360  0.89290  0.97150  Biso   1.000  C
  C43      1.0000 0.50080  0.04620  0.99070  Biso   1.000  C
  H31      1.0000 0.46330  0.07520  0.00150  Biso   1.000  H
  C44      1.0000 0.54290  0.15290  0.99370  Biso   1.000  C
  H32      1.0000 0.53340  0.25750  0.00440  Biso   1.000  H
  C45      1.0000 0.46560  0.78160  0.96120  Biso   1.000  C
  C46      1.0000 0.47220  0.62970  0.93710  Biso   1.000  C
  H33      1.0000 0.50860  0.58790  0.93050  Biso   1.000  H
  C47      1.0000 0.42570  0.54020  0.92290  Biso   1.000  C
  C48      1.0000 0.37360  0.60660  0.93130  Biso   1.000  C
  H34      1.0000 0.34070  0.55040  0.91920  Biso   1.000  H
  C49      1.0000 0.36980  0.75810  0.95800  Biso   1.000  C
  C50      1.0000 0.31560  0.83880  0.96860  Biso   1.000  C
  C51      1.0000 0.26950  0.81810  0.92690  Biso   1.000  C
  H35      1.0000 0.26960  0.73800  0.89250  Biso   1.000  H
  C52      1.0000 0.22350  0.91050  0.93390  Biso   1.000  C
  H36      1.0000 0.19230  0.89310  0.90390  Biso   1.000  H
  C53      1.0000 0.26380  0.04000  0.02510  Biso   1.000  C
  H37      1.0000 0.26160  0.11400  0.06210  Biso   1.000  H
  C54      1.0000 0.31170  0.95370  0.01930  Biso   1.000  C
  H38      1.0000 0.34230  0.97250  0.05010  Biso   1.000  H
  C55      1.0000 0.42850  0.37830  0.89340  Biso   1.000  C
  C56      1.0000 0.47490  0.32850  0.85650  Biso   1.000  C
  H39      1.0000 0.50730  0.39260  0.85380  Biso   1.000  H
  C57      1.0000 0.47430  0.18210  0.82270  Biso   1.000  C
  H40      1.0000 0.50640  0.14770  0.79780  Biso   1.000  H
  C58      1.0000 0.42790  0.09000  0.82560  Biso   1.000  C
  C59      1.0000 0.38260  0.13650  0.86470  Biso   1.000  C
  H41      1.0000 0.35030  0.07200  0.86700  Biso   1.000  H
  C60      1.0000 0.38350  0.27760  0.90100  Biso   1.000  C
  H42      1.0000 0.35320  0.30470  0.93100  Biso   1.000  H
  C61      1.0000 0.42350  0.94550  0.78170  Biso   1.000  C
  C62      1.0000 0.46450  0.83470  0.77980  Biso   1.000  C
  H43      1.0000 0.49710  0.84730  0.80790  Biso   1.000  H
  C63      1.0000 0.45930  0.70260  0.73720  Biso   1.000  C
  H44      1.0000 0.48750  0.62470  0.73770  Biso   1.000  H
  C64      1.0000 0.41170  0.68570  0.69310  Biso   1.000  C
  C65      1.0000 0.37210  0.80350  0.69550  Biso   1.000  C
  H45      1.0000 0.34050  0.79670  0.66530  Biso   1.000  H
  C66      1.0000 0.37620  0.92910  0.73930  Biso   1.000  C
  H46      1.0000 0.34710  0.00460  0.74080  Biso   1.000  H
  C67      1.0000 0.46520  0.41300  0.63290  Biso   1.000  C
  C68      1.0000 0.51530  0.48380  0.61640  Biso   1.000  C
  H47      1.0000 0.51540  0.59010  0.60260  Biso   1.000  H
  C69      1.0000 0.56510  0.40390  0.61930  Biso   1.000  C
  H48      1.0000 0.59950  0.45530  0.60950  Biso   1.000  H
  C70      1.0000 0.56450  0.24570  0.63690  Biso   1.000  C
  H49      1.0000 0.59860  0.18880  0.63870  Biso   1.000  H
  C71      1.0000 0.51490  0.17300  0.65140  Biso   1.000  C
  H50      1.0000 0.51480  0.06520  0.66240  Biso   1.000  H
  C72      1.0000 0.46530  0.25310  0.65010  Biso   1.000  C
  H51      1.0000 0.43120  0.20140  0.66080  Biso   1.000  H
  C73      1.0000 0.34460  0.41040  0.67050  Biso   1.000  C
  C74      1.0000 0.31860  0.30440  0.62800  Biso   1.000  C
  H52      1.0000 0.33200  0.28660  0.58180  Biso   1.000  H
  C75      1.0000 0.27180  0.22190  0.65310  Biso   1.000  C
  H53      1.0000 0.25210  0.15200  0.62340  Biso   1.000  H
  C76      1.0000 0.25460  0.24480  0.72310  Biso   1.000  C
  H54      1.0000 0.22380  0.18720  0.74120  Biso   1.000  H
  C77      1.0000 0.28160  0.34850  0.76490  Biso   1.000  C
  H55      1.0000 0.26870  0.36520  0.81140  Biso   1.000  H
  C78      1.0000 0.32810  0.43110  0.74030  Biso   1.000  C
  H56      1.0000 0.34800  0.49990  0.77030  Biso   1.000  H
  O2       1.0000 0.38640  0.58060  0.56330  Biso   1.000  O
  Co3      1.0000 0.84376  0.80267  0.48375  Biso   1.000  Co
  P3       1.0000 0.09872  0.02660  0.13466  Biso   1.000  P
  N7       1.0000 0.90300  0.61980  0.48230  Biso   1.000  N
  N8       1.0000 0.08470  0.34320  0.47240  Biso   1.000  N
  N9       1.0000 0.27970  0.52640  0.48220  Biso   1.000  N
  C79      1.0000 0.89080  0.47230  0.46470  Biso   1.000  C
  H57      1.0000 0.85300  0.44630  0.45450  Biso   1.000  H
  C80      1.0000 0.93140  0.35580  0.46060  Biso   1.000  C
  H58      1.0000 0.92080  0.25160  0.45050  Biso   1.000  H
  C81      1.0000 0.98640  0.39290  0.47150  Biso   1.000  C
  C82      1.0000 0.99920  0.54620  0.49070  Biso   1.000  C
  H59      1.0000 0.03670  0.57520  0.50150  Biso   1.000  H
  C83      1.0000 0.95710  0.65290  0.49370  Biso   1.000  C
  H60      1.0000 0.96660  0.75750  0.50440  Biso   1.000  H
  C84      1.0000 0.03440  0.28160  0.46120  Biso   1.000  C
  C85      1.0000 0.02780  0.12970  0.43710  Biso   1.000  C
  H61      1.0000 0.99140  0.08790  0.43050  Biso   1.000  H
  C86      1.0000 0.07430  0.04020  0.42290  Biso   1.000  C
  C87      1.0000 0.12640  0.10660  0.43130  Biso   1.000  C
  H62      1.0000 0.15930  0.05040  0.41920  Biso   1.000  H
  C88      1.0000 0.13020  0.25810  0.45800  Biso   1.000  C
  C89      1.0000 0.18440  0.33880  0.46860  Biso   1.000  C
  C90      1.0000 0.23050  0.31810  0.42690  Biso   1.000  C
  H63      1.0000 0.23040  0.23800  0.39250  Biso   1.000  H
  C91      1.0000 0.27650  0.41050  0.43390  Biso   1.000  C
  H64      1.0000 0.30770  0.39310  0.40390  Biso   1.000  H
  C92      1.0000 0.23620  0.54000  0.52510  Biso   1.000  C
  H65      1.0000 0.23840  0.61400  0.56210  Biso   1.000  H
  C93      1.0000 0.18830  0.45370  0.51930  Biso   1.000  C
  H66      1.0000 0.15770  0.47250  0.55010  Biso   1.000  H
  C94      1.0000 0.07150  0.87830  0.39340  Biso   1.000  C
  C95      1.0000 0.02510  0.82850  0.35650  Biso   1.000  C
  H67      1.0000 0.99270  0.89260  0.35380  Biso   1.000  H
  C96      1.0000 0.02570  0.68210  0.32270  Biso   1.000  C
  H68      1.0000 0.99360  0.64770  0.29780  Biso   1.000  H
  C97      1.0000 0.07210  0.59000  0.32560  Biso   1.000  C
  C98      1.0000 0.11740  0.63650  0.36470  Biso   1.000  C
  H69      1.0000 0.14970  0.57200  0.36700  Biso   1.000  H
  C99      1.0000 0.11650  0.77760  0.40100  Biso   1.000  C
  H70      1.0000 0.14680  0.80470  0.43100  Biso   1.000  H
  C100     1.0000 0.07650  0.44550  0.28170  Biso   1.000  C
  C101     1.0000 0.03550  0.33470  0.27980  Biso   1.000  C
  H71      1.0000 0.00290  0.34730  0.30790  Biso   1.000  H
  C102     1.0000 0.04070  0.20260  0.23720  Biso   1.000  C
  H72      1.0000 0.01250  0.12470  0.23770  Biso   1.000  H
  C103     1.0000 0.08830  0.18570  0.19310  Biso   1.000  C
  C104     1.0000 0.12790  0.30350  0.19550  Biso   1.000  C
  H73      1.0000 0.15950  0.29670  0.16530  Biso   1.000  H
  C105     1.0000 0.12380  0.42910  0.23930  Biso   1.000  C
  H74      1.0000 0.15290  0.50460  0.24080  Biso   1.000  H
  C106     1.0000 0.03480  0.91300  0.13290  Biso   1.000  C
  C107     1.0000 0.98470  0.98380  0.11640  Biso   1.000  C
  H75      1.0000 0.98460  0.09010  0.10260  Biso   1.000  H
  C108     1.0000 0.93490  0.90390  0.11930  Biso   1.000  C
  H76      1.0000 0.90050  0.95530  0.10950  Biso   1.000  H
  C109     1.0000 0.93550  0.74570  0.13690  Biso   1.000  C
  H77      1.0000 0.90140  0.68880  0.13870  Biso   1.000  H
  C110     1.0000 0.98510  0.67300  0.15140  Biso   1.000  C
  H78      1.0000 0.98520  0.56520  0.16240  Biso   1.000  H
  C111     1.0000 0.03470  0.75310  0.15010  Biso   1.000  C
  H79      1.0000 0.06880  0.70140  0.16080  Biso   1.000  H
  C112     1.0000 0.15540  0.91040  0.17050  Biso   1.000  C
  C113     1.0000 0.18140  0.80440  0.12800  Biso   1.000  C
  H80      1.0000 0.16800  0.78660  0.08180  Biso   1.000  H
  C114     1.0000 0.22820  0.72190  0.15310  Biso   1.000  C
  H81      1.0000 0.24790  0.65200  0.12340  Biso   1.000  H
  C115     1.0000 0.24540  0.74480  0.22310  Biso   1.000  C
  H82      1.0000 0.27620  0.68720  0.24120  Biso   1.000  H
  C116     1.0000 0.21840  0.84850  0.26490  Biso   1.000  C
  H83      1.0000 0.23130  0.86520  0.31140  Biso   1.000  H
  C117     1.0000 0.17190  0.93110  0.24030  Biso   1.000  C
  H84      1.0000 0.15200  0.99990  0.27030  Biso   1.000  H
  O3       1.0000 0.11360  0.08060  0.06330  Biso   1.000  O
  Co4      1.0000 0.15624  0.19733  0.98375  Biso   1.000  Co
  P4       1.0000 0.90128  0.97340  0.63466  Biso   1.000  P
  N10      1.0000 0.09700  0.38020  0.98230  Biso   1.000  N
  N11      1.0000 0.91530  0.65680  0.97240  Biso   1.000  N
  N12      1.0000 0.72030  0.47360  0.98220  Biso   1.000  N
  C118     1.0000 0.10920  0.52770  0.96470  Biso   1.000  C
  H85      1.0000 0.14700  0.55370  0.95450  Biso   1.000  H
  C119     1.0000 0.06860  0.64420  0.96060  Biso   1.000  C
  H86      1.0000 0.07920  0.74840  0.95050  Biso   1.000  H
  C120     1.0000 0.01360  0.60710  0.97150  Biso   1.000  C
  C121     1.0000 0.00080  0.45380  0.99070  Biso   1.000  C
  H87      1.0000 0.96330  0.42480  0.00150  Biso   1.000  H
  C122     1.0000 0.04290  0.34710  0.99370  Biso   1.000  C
  H88      1.0000 0.03340  0.24250  0.00440  Biso   1.000  H
  C123     1.0000 0.96560  0.71840  0.96120  Biso   1.000  C
  C124     1.0000 0.97220  0.87030  0.93710  Biso   1.000  C
  H89      1.0000 0.00860  0.91210  0.93050  Biso   1.000  H
  C125     1.0000 0.92570  0.95980  0.92290  Biso   1.000  C
  C126     1.0000 0.87360  0.89340  0.93130  Biso   1.000  C
  H90      1.0000 0.84070  0.94960  0.91920  Biso   1.000  H
  C127     1.0000 0.86980  0.74190  0.95800  Biso   1.000  C
  C128     1.0000 0.81560  0.66120  0.96860  Biso   1.000  C
  C129     1.0000 0.76950  0.68190  0.92690  Biso   1.000  C
  H91      1.0000 0.76960  0.76200  0.89250  Biso   1.000  H
  C130     1.0000 0.72350  0.58950  0.93390  Biso   1.000  C
  H92      1.0000 0.69230  0.60690  0.90390  Biso   1.000  H
  C131     1.0000 0.76380  0.46000  0.02510  Biso   1.000  C
  H93      1.0000 0.76160  0.38600  0.06210  Biso   1.000  H
  C132     1.0000 0.81170  0.54630  0.01930  Biso   1.000  C
  H94      1.0000 0.84230  0.52750  0.05010  Biso   1.000  H
  C133     1.0000 0.92850  0.12170  0.89340  Biso   1.000  C
  C134     1.0000 0.97490  0.17150  0.85650  Biso   1.000  C
  H95      1.0000 0.00730  0.10740  0.85380  Biso   1.000  H
  C135     1.0000 0.97430  0.31790  0.82270  Biso   1.000  C
  H96      1.0000 0.00640  0.35230  0.79780  Biso   1.000  H
  C136     1.0000 0.92790  0.41000  0.82560  Biso   1.000  C
  C137     1.0000 0.88260  0.36350  0.86470  Biso   1.000  C
  H97      1.0000 0.85030  0.42800  0.86700  Biso   1.000  H
  C138     1.0000 0.88350  0.22240  0.90100  Biso   1.000  C
  H98      1.0000 0.85320  0.19530  0.93100  Biso   1.000  H
  C139     1.0000 0.92350  0.55450  0.78170  Biso   1.000  C
  C140     1.0000 0.96450  0.66530  0.77980  Biso   1.000  C
  H99      1.0000 0.99710  0.65270  0.80790  Biso   1.000  H
  C141     1.0000 0.95930  0.79740  0.73720  Biso   1.000  C
  H100     1.0000 0.98750  0.87530  0.73770  Biso   1.000  H
  C142     1.0000 0.91170  0.81430  0.69310  Biso   1.000  C
  C143     1.0000 0.87210  0.69650  0.69550  Biso   1.000  C
  H101     1.0000 0.84050  0.70330  0.66530  Biso   1.000  H
  C144     1.0000 0.87620  0.57090  0.73930  Biso   1.000  C
  H102     1.0000 0.84710  0.49540  0.74080  Biso   1.000  H
  C145     1.0000 0.96520  0.08700  0.63290  Biso   1.000  C
  C146     1.0000 0.01530  0.01620  0.61640  Biso   1.000  C
  H103     1.0000 0.01540  0.90990  0.60260  Biso   1.000  H
  C147     1.0000 0.06510  0.09610  0.61930  Biso   1.000  C
  H104     1.0000 0.09950  0.04470  0.60950  Biso   1.000  H
  C148     1.0000 0.06450  0.25430  0.63690  Biso   1.000  C
  H105     1.0000 0.09860  0.31120  0.63870  Biso   1.000  H
  C149     1.0000 0.01490  0.32700  0.65140  Biso   1.000  C
  H106     1.0000 0.01480  0.43480  0.66240  Biso   1.000  H
  C150     1.0000 0.96530  0.24690  0.65010  Biso   1.000  C
  H107     1.0000 0.93120  0.29860  0.66080  Biso   1.000  H
  C151     1.0000 0.84460  0.08960  0.67050  Biso   1.000  C
  C152     1.0000 0.81860  0.19560  0.62800  Biso   1.000  C
  H108     1.0000 0.83200  0.21340  0.58180  Biso   1.000  H
  C153     1.0000 0.77180  0.27810  0.65310  Biso   1.000  C
  H109     1.0000 0.75210  0.34800  0.62340  Biso   1.000  H
  C154     1.0000 0.75460  0.25520  0.72310  Biso   1.000  C
  H110     1.0000 0.72380  0.31280  0.74120  Biso   1.000  H
  C155     1.0000 0.78160  0.15150  0.76490  Biso   1.000  C
  H111     1.0000 0.76870  0.13480  0.81140  Biso   1.000  H
  C156     1.0000 0.82810  0.06890  0.74030  Biso   1.000  C
  H112     1.0000 0.84800  0.00010  0.77030  Biso   1.000  H
  O4       1.0000 0.88640  0.91940  0.56330  Biso   1.000  O
