data_image0
_cell_length_a       16.802
_cell_length_b       16.802
_cell_length_c       13.96
_cell_angle_alpha    90
_cell_angle_beta     90
_cell_angle_gamma    120

_symmetry_space_group_name_H-M    "P 1"
_symmetry_int_tables_number       1

loop_
  _symmetry_equiv_pos_as_xyz
  'x, y, z'

loop_
  _atom_site_label
  _atom_site_occupancy
  _atom_site_fract_x
  _atom_site_fract_y
  _atom_site_fract_z
  _atom_site_thermal_displace_type
  _atom_site_B_iso_or_equiv
  _atom_site_type_symbol
  O1       1.0000 0.77773  0.42457  0.18150  Biso   1.000  O
  N1       1.0000 0.11230  0.50644  0.41281  Biso   1.000  N
  N2       1.0000 0.22851  0.56156  0.51762  Biso   1.000  N
  C1       1.0000 0.96669  0.45860  0.33121  Biso   1.000  C
  H1       1.0000 0.93470  0.42650  0.38550  Biso   1.000  H
  C2       1.0000 0.06175  0.50556  0.33055  Biso   1.000  C
  C3       1.0000 0.19114  0.57979  0.44469  Biso   1.000  C
  H2       1.0000 0.21640  0.63790  0.41720  Biso   1.000  H
  C4       1.0000 0.17000  0.46820  0.53650  Biso   1.000  C
  C5       1.0000 0.17540  0.41200  0.60640  Biso   1.000  C
  H3       1.0000 0.22330  0.43460  0.65060  Biso   1.000  H
  C6       1.0000 0.10670  0.32130  0.60720  Biso   1.000  C
  H4       1.0000 0.10890  0.28190  0.65250  Biso   1.000  H
  C7       1.0000 0.03380  0.28650  0.54200  Biso   1.000  C
  H5       1.0000 0.98840  0.22500  0.54580  Biso   1.000  H
  C8       1.0000 0.02770  0.34140  0.47210  Biso   1.000  C
  H6       1.0000 0.97990  0.31820  0.42790  Biso   1.000  H
  C9       1.0000 0.09630  0.43250  0.47140  Biso   1.000  C
  O2       1.0000 0.57543  0.35316  0.18150  Biso   1.000  O
  N3       1.0000 0.49356  0.60586  0.41281  Biso   1.000  N
  N4       1.0000 0.43844  0.66695  0.51762  Biso   1.000  N
  C10      1.0000 0.54140  0.50809  0.33121  Biso   1.000  C
  H7       1.0000 0.57350  0.50820  0.38550  Biso   1.000  H
  C11      1.0000 0.49444  0.55619  0.33055  Biso   1.000  C
  C12      1.0000 0.42021  0.61135  0.44469  Biso   1.000  C
  H8       1.0000 0.36210  0.57850  0.41720  Biso   1.000  H
  C13      1.0000 0.53180  0.70180  0.53650  Biso   1.000  C
  C14      1.0000 0.58800  0.76340  0.60640  Biso   1.000  C
  H9       1.0000 0.56540  0.78870  0.65060  Biso   1.000  H
  C15      1.0000 0.67870  0.78540  0.60720  Biso   1.000  C
  H10      1.0000 0.71810  0.82700  0.65250  Biso   1.000  H
  C16      1.0000 0.71350  0.74730  0.54200  Biso   1.000  C
  H11      1.0000 0.77500  0.76340  0.54580  Biso   1.000  H
  C17      1.0000 0.65860  0.68630  0.47210  Biso   1.000  C
  H12      1.0000 0.68180  0.66170  0.42790  Biso   1.000  H
  C18      1.0000 0.56750  0.66380  0.47140  Biso   1.000  C
  O3       1.0000 0.64684  0.22227  0.18150  Biso   1.000  O
  N5       1.0000 0.39414  0.88770  0.41281  Biso   1.000  N
  N6       1.0000 0.33305  0.77149  0.51762  Biso   1.000  N
  C19      1.0000 0.49191  0.03331  0.33121  Biso   1.000  C
  H13      1.0000 0.49180  0.06530  0.38550  Biso   1.000  H
  C20      1.0000 0.44381  0.93825  0.33055  Biso   1.000  C
  C21      1.0000 0.38865  0.80886  0.44469  Biso   1.000  C
  H14      1.0000 0.42150  0.78360  0.41720  Biso   1.000  H
  C22      1.0000 0.29820  0.83000  0.53650  Biso   1.000  C
  C23      1.0000 0.23660  0.82460  0.60640  Biso   1.000  C
  H15      1.0000 0.21130  0.77670  0.65060  Biso   1.000  H
  C24      1.0000 0.21460  0.89330  0.60720  Biso   1.000  C
  H16      1.0000 0.17300  0.89110  0.65250  Biso   1.000  H
  C25      1.0000 0.25270  0.96620  0.54200  Biso   1.000  C
  H17      1.0000 0.23660  0.01160  0.54580  Biso   1.000  H
  C26      1.0000 0.31370  0.97230  0.47210  Biso   1.000  C
  H18      1.0000 0.33830  0.02010  0.42790  Biso   1.000  H
  C27      1.0000 0.33620  0.90370  0.47140  Biso   1.000  C
  O4       1.0000 0.57543  0.22227  0.31850  Biso   1.000  O
  N7       1.0000 0.49356  0.88770  0.08719  Biso   1.000  N
  N8       1.0000 0.43844  0.77149  0.98238  Biso   1.000  N
  C28      1.0000 0.54140  0.03331  0.16879  Biso   1.000  C
  H19      1.0000 0.57350  0.06530  0.11450  Biso   1.000  H
  C29      1.0000 0.49444  0.93825  0.16945  Biso   1.000  C
  C30      1.0000 0.42021  0.80886  0.05531  Biso   1.000  C
  H20      1.0000 0.36210  0.78360  0.08280  Biso   1.000  H
  C31      1.0000 0.53180  0.83000  0.96350  Biso   1.000  C
  C32      1.0000 0.58800  0.82460  0.89360  Biso   1.000  C
  H21      1.0000 0.56540  0.77670  0.84940  Biso   1.000  H
  C33      1.0000 0.67870  0.89330  0.89280  Biso   1.000  C
  H22      1.0000 0.71810  0.89110  0.84750  Biso   1.000  H
  C34      1.0000 0.71350  0.96620  0.95800  Biso   1.000  C
  H23      1.0000 0.77500  0.01160  0.95420  Biso   1.000  H
  C35      1.0000 0.65860  0.97230  0.02790  Biso   1.000  C
  H24      1.0000 0.68180  0.02010  0.07210  Biso   1.000  H
  C36      1.0000 0.56750  0.90370  0.02860  Biso   1.000  C
  O5       1.0000 0.64684  0.42457  0.31850  Biso   1.000  O
  N9       1.0000 0.39414  0.50644  0.08719  Biso   1.000  N
  N10      1.0000 0.33305  0.56156  0.98238  Biso   1.000  N
  C37      1.0000 0.49191  0.45860  0.16879  Biso   1.000  C
  H25      1.0000 0.49180  0.42650  0.11450  Biso   1.000  H
  C38      1.0000 0.44381  0.50556  0.16945  Biso   1.000  C
  C39      1.0000 0.38865  0.57979  0.05531  Biso   1.000  C
  H26      1.0000 0.42150  0.63790  0.08280  Biso   1.000  H
  C40      1.0000 0.29820  0.46820  0.96350  Biso   1.000  C
  C41      1.0000 0.23660  0.41200  0.89360  Biso   1.000  C
  H27      1.0000 0.21130  0.43460  0.84940  Biso   1.000  H
  C42      1.0000 0.21460  0.32130  0.89280  Biso   1.000  C
  H28      1.0000 0.17300  0.28190  0.84750  Biso   1.000  H
  C43      1.0000 0.25270  0.28650  0.95800  Biso   1.000  C
  H29      1.0000 0.23660  0.22500  0.95420  Biso   1.000  H
  C44      1.0000 0.31370  0.34140  0.02790  Biso   1.000  C
  H30      1.0000 0.33830  0.31820  0.07210  Biso   1.000  H
  C45      1.0000 0.33620  0.43250  0.02860  Biso   1.000  C
  O6       1.0000 0.77773  0.35316  0.31850  Biso   1.000  O
  N11      1.0000 0.11230  0.60586  0.08719  Biso   1.000  N
  N12      1.0000 0.22851  0.66695  0.98238  Biso   1.000  N
  C46      1.0000 0.96669  0.50809  0.16879  Biso   1.000  C
  H31      1.0000 0.93470  0.50820  0.11450  Biso   1.000  H
  C47      1.0000 0.06175  0.55619  0.16945  Biso   1.000  C
  C48      1.0000 0.19114  0.61135  0.05531  Biso   1.000  C
  H32      1.0000 0.21640  0.57850  0.08280  Biso   1.000  H
  C49      1.0000 0.17000  0.70180  0.96350  Biso   1.000  C
  C50      1.0000 0.17540  0.76340  0.89360  Biso   1.000  C
  H33      1.0000 0.22330  0.78870  0.84940  Biso   1.000  H
  C51      1.0000 0.10670  0.78540  0.89280  Biso   1.000  C
  H34      1.0000 0.10890  0.82700  0.84750  Biso   1.000  H
  C52      1.0000 0.03380  0.74730  0.95800  Biso   1.000  C
  H35      1.0000 0.98840  0.76340  0.95420  Biso   1.000  H
  C53      1.0000 0.02770  0.68630  0.02790  Biso   1.000  C
  H36      1.0000 0.97990  0.66170  0.07210  Biso   1.000  H
  C54      1.0000 0.09630  0.66380  0.02860  Biso   1.000  C
  O7       1.0000 0.22227  0.57543  0.81850  Biso   1.000  O
  N13      1.0000 0.88770  0.49356  0.58719  Biso   1.000  N
  N14      1.0000 0.77149  0.43844  0.48238  Biso   1.000  N
  C55      1.0000 0.03331  0.54140  0.66879  Biso   1.000  C
  H37      1.0000 0.06530  0.57350  0.61450  Biso   1.000  H
  C56      1.0000 0.93825  0.49444  0.66945  Biso   1.000  C
  C57      1.0000 0.80886  0.42021  0.55531  Biso   1.000  C
  H38      1.0000 0.78360  0.36210  0.58280  Biso   1.000  H
  C58      1.0000 0.83000  0.53180  0.46350  Biso   1.000  C
  C59      1.0000 0.82460  0.58800  0.39360  Biso   1.000  C
  H39      1.0000 0.77670  0.56540  0.34940  Biso   1.000  H
  C60      1.0000 0.89330  0.67870  0.39280  Biso   1.000  C
  H40      1.0000 0.89110  0.71810  0.34750  Biso   1.000  H
  C61      1.0000 0.96620  0.71350  0.45800  Biso   1.000  C
  H41      1.0000 0.01160  0.77500  0.45420  Biso   1.000  H
  C62      1.0000 0.97230  0.65860  0.52790  Biso   1.000  C
  H42      1.0000 0.02010  0.68180  0.57210  Biso   1.000  H
  C63      1.0000 0.90370  0.56750  0.52860  Biso   1.000  C
  O8       1.0000 0.42457  0.64684  0.81850  Biso   1.000  O
  N15      1.0000 0.50644  0.39414  0.58719  Biso   1.000  N
  N16      1.0000 0.56156  0.33305  0.48238  Biso   1.000  N
  C64      1.0000 0.45860  0.49191  0.66879  Biso   1.000  C
  H43      1.0000 0.42650  0.49180  0.61450  Biso   1.000  H
  C65      1.0000 0.50556  0.44381  0.66945  Biso   1.000  C
  C66      1.0000 0.57979  0.38865  0.55531  Biso   1.000  C
  H44      1.0000 0.63790  0.42150  0.58280  Biso   1.000  H
  C67      1.0000 0.46820  0.29820  0.46350  Biso   1.000  C
  C68      1.0000 0.41200  0.23660  0.39360  Biso   1.000  C
  H45      1.0000 0.43460  0.21130  0.34940  Biso   1.000  H
  C69      1.0000 0.32130  0.21460  0.39280  Biso   1.000  C
  H46      1.0000 0.28190  0.17300  0.34750  Biso   1.000  H
  C70      1.0000 0.28650  0.25270  0.45800  Biso   1.000  C
  H47      1.0000 0.22500  0.23660  0.45420  Biso   1.000  H
  C71      1.0000 0.34140  0.31370  0.52790  Biso   1.000  C
  H48      1.0000 0.31820  0.33830  0.57210  Biso   1.000  H
  C72      1.0000 0.43250  0.33620  0.52860  Biso   1.000  C
  O9       1.0000 0.35316  0.77773  0.81850  Biso   1.000  O
  N17      1.0000 0.60586  0.11230  0.58719  Biso   1.000  N
  N18      1.0000 0.66695  0.22851  0.48238  Biso   1.000  N
  C73      1.0000 0.50809  0.96669  0.66879  Biso   1.000  C
  H49      1.0000 0.50820  0.93470  0.61450  Biso   1.000  H
  C74      1.0000 0.55619  0.06175  0.66945  Biso   1.000  C
  C75      1.0000 0.61135  0.19114  0.55531  Biso   1.000  C
  H50      1.0000 0.57850  0.21640  0.58280  Biso   1.000  H
  C76      1.0000 0.70180  0.17000  0.46350  Biso   1.000  C
  C77      1.0000 0.76340  0.17540  0.39360  Biso   1.000  C
  H51      1.0000 0.78870  0.22330  0.34940  Biso   1.000  H
  C78      1.0000 0.78540  0.10670  0.39280  Biso   1.000  C
  H52      1.0000 0.82700  0.10890  0.34750  Biso   1.000  H
  C79      1.0000 0.74730  0.03380  0.45800  Biso   1.000  C
  H53      1.0000 0.76340  0.98840  0.45420  Biso   1.000  H
  C80      1.0000 0.68630  0.02770  0.52790  Biso   1.000  C
  H54      1.0000 0.66170  0.97990  0.57210  Biso   1.000  H
  C81      1.0000 0.66380  0.09630  0.52860  Biso   1.000  C
  O10      1.0000 0.42457  0.77773  0.68150  Biso   1.000  O
  N19      1.0000 0.50644  0.11230  0.91281  Biso   1.000  N
  N20      1.0000 0.56156  0.22851  0.01762  Biso   1.000  N
  C82      1.0000 0.45860  0.96669  0.83121  Biso   1.000  C
  H55      1.0000 0.42650  0.93470  0.88550  Biso   1.000  H
  C83      1.0000 0.50556  0.06175  0.83055  Biso   1.000  C
  C84      1.0000 0.57979  0.19114  0.94469  Biso   1.000  C
  H56      1.0000 0.63790  0.21640  0.91720  Biso   1.000  H
  C85      1.0000 0.46820  0.17000  0.03650  Biso   1.000  C
  C86      1.0000 0.41200  0.17540  0.10640  Biso   1.000  C
  H57      1.0000 0.43460  0.22330  0.15060  Biso   1.000  H
  C87      1.0000 0.32130  0.10670  0.10720  Biso   1.000  C
  H58      1.0000 0.28190  0.10890  0.15250  Biso   1.000  H
  C88      1.0000 0.28650  0.03380  0.04200  Biso   1.000  C
  H59      1.0000 0.22500  0.98840  0.04580  Biso   1.000  H
  C89      1.0000 0.34140  0.02770  0.97210  Biso   1.000  C
  H60      1.0000 0.31820  0.97990  0.92790  Biso   1.000  H
  C90      1.0000 0.43250  0.09630  0.97140  Biso   1.000  C
  O11      1.0000 0.35316  0.57543  0.68150  Biso   1.000  O
  N21      1.0000 0.60586  0.49356  0.91281  Biso   1.000  N
  N22      1.0000 0.66695  0.43844  0.01762  Biso   1.000  N
  C91      1.0000 0.50809  0.54140  0.83121  Biso   1.000  C
  H61      1.0000 0.50820  0.57350  0.88550  Biso   1.000  H
  C92      1.0000 0.55619  0.49444  0.83055  Biso   1.000  C
  C93      1.0000 0.61135  0.42021  0.94469  Biso   1.000  C
  H62      1.0000 0.57850  0.36210  0.91720  Biso   1.000  H
  C94      1.0000 0.70180  0.53180  0.03650  Biso   1.000  C
  C95      1.0000 0.76340  0.58800  0.10640  Biso   1.000  C
  H63      1.0000 0.78870  0.56540  0.15060  Biso   1.000  H
  C96      1.0000 0.78540  0.67870  0.10720  Biso   1.000  C
  H64      1.0000 0.82700  0.71810  0.15250  Biso   1.000  H
  C97      1.0000 0.74730  0.71350  0.04200  Biso   1.000  C
  H65      1.0000 0.76340  0.77500  0.04580  Biso   1.000  H
  C98      1.0000 0.68630  0.65860  0.97210  Biso   1.000  C
  H66      1.0000 0.66170  0.68180  0.92790  Biso   1.000  H
  C99      1.0000 0.66380  0.56750  0.97140  Biso   1.000  C
  O12      1.0000 0.22227  0.64684  0.68150  Biso   1.000  O
  N23      1.0000 0.88770  0.39414  0.91281  Biso   1.000  N
  N24      1.0000 0.77149  0.33305  0.01762  Biso   1.000  N
  C100     1.0000 0.03331  0.49191  0.83121  Biso   1.000  C
  H67      1.0000 0.06530  0.49180  0.88550  Biso   1.000  H
  C101     1.0000 0.93825  0.44381  0.83055  Biso   1.000  C
  C102     1.0000 0.80886  0.38865  0.94469  Biso   1.000  C
  H68      1.0000 0.78360  0.42150  0.91720  Biso   1.000  H
  C103     1.0000 0.83000  0.29820  0.03650  Biso   1.000  C
  C104     1.0000 0.82460  0.23660  0.10640  Biso   1.000  C
  H69      1.0000 0.77670  0.21130  0.15060  Biso   1.000  H
  C105     1.0000 0.89330  0.21460  0.10720  Biso   1.000  C
  H70      1.0000 0.89110  0.17300  0.15250  Biso   1.000  H
  C106     1.0000 0.96620  0.25270  0.04200  Biso   1.000  C
  H71      1.0000 0.01160  0.23660  0.04580  Biso   1.000  H
  C107     1.0000 0.97230  0.31370  0.97210  Biso   1.000  C
  H72      1.0000 0.02010  0.33830  0.92790  Biso   1.000  H
  C108     1.0000 0.90370  0.33620  0.97140  Biso   1.000  C
  Ni1      1.0000 0.66667  0.33333  0.10348  Biso   1.000  Ni
  Ni2      1.0000 0.66667  0.33333  0.39652  Biso   1.000  Ni
  Ni3      1.0000 0.33333  0.66667  0.89652  Biso   1.000  Ni
  Ni4      1.0000 0.33333  0.66667  0.60348  Biso   1.000  Ni
  C109     1.0000 0.81550  0.40775  0.25000  Biso   1.000  C
  C110     1.0000 0.91950  0.45975  0.25000  Biso   1.000  C
  C111     1.0000 0.11000  0.55500  0.25000  Biso   1.000  C
  H73      1.0000 0.17390  0.58695  0.25000  Biso   1.000  H
  C112     1.0000 0.59225  0.40775  0.25000  Biso   1.000  C
  C113     1.0000 0.54025  0.45975  0.25000  Biso   1.000  C
  C114     1.0000 0.44500  0.55500  0.25000  Biso   1.000  C
  H74      1.0000 0.41305  0.58695  0.25000  Biso   1.000  H
  C115     1.0000 0.59225  0.18450  0.25000  Biso   1.000  C
  C116     1.0000 0.54025  0.08050  0.25000  Biso   1.000  C
  C117     1.0000 0.44500  0.89000  0.25000  Biso   1.000  C
  H75      1.0000 0.41305  0.82610  0.25000  Biso   1.000  H
  C118     1.0000 0.18450  0.59225  0.75000  Biso   1.000  C
  C119     1.0000 0.08050  0.54025  0.75000  Biso   1.000  C
  C120     1.0000 0.89000  0.44500  0.75000  Biso   1.000  C
  H76      1.0000 0.82610  0.41305  0.75000  Biso   1.000  H
  C121     1.0000 0.40775  0.59225  0.75000  Biso   1.000  C
  C122     1.0000 0.45975  0.54025  0.75000  Biso   1.000  C
  C123     1.0000 0.55500  0.44500  0.75000  Biso   1.000  C
  H77      1.0000 0.58695  0.41305  0.75000  Biso   1.000  H
  C124     1.0000 0.40775  0.81550  0.75000  Biso   1.000  C
  C125     1.0000 0.45975  0.91950  0.75000  Biso   1.000  C
  C126     1.0000 0.55500  0.11000  0.75000  Biso   1.000  C
  H78      1.0000 0.58695  0.17390  0.75000  Biso   1.000  H
