data_image0
_cell_length_a       16.87
_cell_length_b       16.87
_cell_length_c       13.886
_cell_angle_alpha    90
_cell_angle_beta     90
_cell_angle_gamma    120

_symmetry_space_group_name_H-M    "P 1"
_symmetry_int_tables_number       1

loop_
  _symmetry_equiv_pos_as_xyz
  'x, y, z'

loop_
  _atom_site_label
  _atom_site_occupancy
  _atom_site_fract_x
  _atom_site_fract_y
  _atom_site_fract_z
  _atom_site_thermal_displace_type
  _atom_site_B_iso_or_equiv
  _atom_site_type_symbol
  O1       1.0000 0.77720  0.35290  0.18100  Biso   1.000  O
  N1       1.0000 0.11120  0.60540  0.41340  Biso   1.000  N
  N2       1.0000 0.22810  0.66730  0.51730  Biso   1.000  N
  C1       1.0000 0.96600  0.50750  0.33170  Biso   1.000  C
  H1       1.0000 0.93440  0.50770  0.38640  Biso   1.000  H
  C2       1.0000 0.06010  0.55480  0.33050  Biso   1.000  C
  C3       1.0000 0.19040  0.61090  0.44420  Biso   1.000  C
  H2       1.0000 0.21540  0.57810  0.41640  Biso   1.000  H
  C4       1.0000 0.17090  0.70280  0.53580  Biso   1.000  C
  C5       1.0000 0.17850  0.76640  0.60420  Biso   1.000  C
  H3       1.0000 0.22710  0.79240  0.64730  Biso   1.000  H
  C6       1.0000 0.11010  0.78930  0.60530  Biso   1.000  C
  H4       1.0000 0.11210  0.83010  0.65160  Biso   1.000  H
  C7       1.0000 0.03810  0.75280  0.53870  Biso   1.000  C
  H5       1.0000 0.99450  0.77110  0.54080  Biso   1.000  H
  C8       1.0000 0.03060  0.69020  0.46980  Biso   1.000  C
  H6       1.0000 0.98350  0.66660  0.42480  Biso   1.000  H
  C9       1.0000 0.09700  0.66430  0.47140  Biso   1.000  C
  O2       1.0000 0.64710  0.42430  0.18100  Biso   1.000  O
  N3       1.0000 0.39460  0.50580  0.41340  Biso   1.000  N
  N4       1.0000 0.33270  0.56080  0.51730  Biso   1.000  N
  C10      1.0000 0.49250  0.45850  0.33170  Biso   1.000  C
  H7       1.0000 0.49230  0.42670  0.38640  Biso   1.000  H
  C11      1.0000 0.44520  0.50530  0.33050  Biso   1.000  C
  C12      1.0000 0.38910  0.57950  0.44420  Biso   1.000  C
  H8       1.0000 0.42190  0.63730  0.41640  Biso   1.000  H
  C13      1.0000 0.29720  0.46810  0.53580  Biso   1.000  C
  C14      1.0000 0.23360  0.41210  0.60420  Biso   1.000  C
  H9       1.0000 0.20760  0.43470  0.64730  Biso   1.000  H
  C15      1.0000 0.21070  0.32080  0.60530  Biso   1.000  C
  H10      1.0000 0.16990  0.28200  0.65160  Biso   1.000  H
  C16      1.0000 0.24720  0.28530  0.53870  Biso   1.000  C
  H11      1.0000 0.22890  0.22340  0.54080  Biso   1.000  H
  C17      1.0000 0.30980  0.34040  0.46980  Biso   1.000  C
  H12      1.0000 0.33340  0.31690  0.42480  Biso   1.000  H
  C18      1.0000 0.33570  0.43270  0.47140  Biso   1.000  C
  O3       1.0000 0.57570  0.22280  0.18100  Biso   1.000  O
  N5       1.0000 0.49420  0.88880  0.41340  Biso   1.000  N
  N6       1.0000 0.43920  0.77190  0.51730  Biso   1.000  N
  C19      1.0000 0.54150  0.03400  0.33170  Biso   1.000  C
  H13      1.0000 0.57330  0.06560  0.38640  Biso   1.000  H
  C20      1.0000 0.49470  0.93990  0.33050  Biso   1.000  C
  C21      1.0000 0.42050  0.80960  0.44420  Biso   1.000  C
  H14      1.0000 0.36270  0.78460  0.41640  Biso   1.000  H
  C22      1.0000 0.53190  0.82910  0.53580  Biso   1.000  C
  C23      1.0000 0.58790  0.82150  0.60420  Biso   1.000  C
  H15      1.0000 0.56530  0.77290  0.64730  Biso   1.000  H
  C24      1.0000 0.67920  0.88990  0.60530  Biso   1.000  C
  H16      1.0000 0.71800  0.88790  0.65160  Biso   1.000  H
  C25      1.0000 0.71470  0.96190  0.53870  Biso   1.000  C
  H17      1.0000 0.77660  0.00550  0.54080  Biso   1.000  H
  C26      1.0000 0.65960  0.96940  0.46980  Biso   1.000  C
  H18      1.0000 0.68310  0.01650  0.42480  Biso   1.000  H
  C27      1.0000 0.56730  0.90300  0.47140  Biso   1.000  C
  O4       1.0000 0.64710  0.22280  0.31900  Biso   1.000  O
  N7       1.0000 0.39460  0.88880  0.08660  Biso   1.000  N
  N8       1.0000 0.33270  0.77190  0.98270  Biso   1.000  N
  C28      1.0000 0.49250  0.03400  0.16830  Biso   1.000  C
  H19      1.0000 0.49230  0.06560  0.11360  Biso   1.000  H
  C29      1.0000 0.44520  0.93990  0.16950  Biso   1.000  C
  C30      1.0000 0.38910  0.80960  0.05580  Biso   1.000  C
  H20      1.0000 0.42190  0.78460  0.08360  Biso   1.000  H
  C31      1.0000 0.29720  0.82910  0.96420  Biso   1.000  C
  C32      1.0000 0.23360  0.82150  0.89580  Biso   1.000  C
  H21      1.0000 0.20760  0.77290  0.85270  Biso   1.000  H
  C33      1.0000 0.21070  0.88990  0.89470  Biso   1.000  C
  H22      1.0000 0.16990  0.88790  0.84840  Biso   1.000  H
  C34      1.0000 0.24720  0.96190  0.96130  Biso   1.000  C
  H23      1.0000 0.22890  0.00550  0.95920  Biso   1.000  H
  C35      1.0000 0.30980  0.96940  0.03020  Biso   1.000  C
  H24      1.0000 0.33340  0.01650  0.07520  Biso   1.000  H
  C36      1.0000 0.33570  0.90300  0.02860  Biso   1.000  C
  O5       1.0000 0.57570  0.35290  0.31900  Biso   1.000  O
  N9       1.0000 0.49420  0.60540  0.08660  Biso   1.000  N
  N10      1.0000 0.43920  0.66730  0.98270  Biso   1.000  N
  C37      1.0000 0.54150  0.50750  0.16830  Biso   1.000  C
  H25      1.0000 0.57330  0.50770  0.11360  Biso   1.000  H
  C38      1.0000 0.49470  0.55480  0.16950  Biso   1.000  C
  C39      1.0000 0.42050  0.61090  0.05580  Biso   1.000  C
  H26      1.0000 0.36270  0.57810  0.08360  Biso   1.000  H
  C40      1.0000 0.53190  0.70280  0.96420  Biso   1.000  C
  C41      1.0000 0.58790  0.76640  0.89580  Biso   1.000  C
  H27      1.0000 0.56530  0.79240  0.85270  Biso   1.000  H
  C42      1.0000 0.67920  0.78930  0.89470  Biso   1.000  C
  H28      1.0000 0.71800  0.83010  0.84840  Biso   1.000  H
  C43      1.0000 0.71470  0.75280  0.96130  Biso   1.000  C
  H29      1.0000 0.77660  0.77110  0.95920  Biso   1.000  H
  C44      1.0000 0.65960  0.69020  0.03020  Biso   1.000  C
  H30      1.0000 0.68310  0.66660  0.07520  Biso   1.000  H
  C45      1.0000 0.56730  0.66430  0.02860  Biso   1.000  C
  O6       1.0000 0.77720  0.42430  0.31900  Biso   1.000  O
  N11      1.0000 0.11120  0.50580  0.08660  Biso   1.000  N
  N12      1.0000 0.22810  0.56080  0.98270  Biso   1.000  N
  C46      1.0000 0.96600  0.45850  0.16830  Biso   1.000  C
  H31      1.0000 0.93440  0.42670  0.11360  Biso   1.000  H
  C47      1.0000 0.06010  0.50530  0.16950  Biso   1.000  C
  C48      1.0000 0.19040  0.57950  0.05580  Biso   1.000  C
  H32      1.0000 0.21540  0.63730  0.08360  Biso   1.000  H
  C49      1.0000 0.17090  0.46810  0.96420  Biso   1.000  C
  C50      1.0000 0.17850  0.41210  0.89580  Biso   1.000  C
  H33      1.0000 0.22710  0.43470  0.85270  Biso   1.000  H
  C51      1.0000 0.11010  0.32080  0.89470  Biso   1.000  C
  H34      1.0000 0.11210  0.28200  0.84840  Biso   1.000  H
  C52      1.0000 0.03810  0.28530  0.96130  Biso   1.000  C
  H35      1.0000 0.99450  0.22340  0.95920  Biso   1.000  H
  C53      1.0000 0.03060  0.34040  0.03020  Biso   1.000  C
  H36      1.0000 0.98350  0.31690  0.07520  Biso   1.000  H
  C54      1.0000 0.09700  0.43270  0.02860  Biso   1.000  C
  O7       1.0000 0.22280  0.64710  0.81900  Biso   1.000  O
  N13      1.0000 0.88880  0.39460  0.58660  Biso   1.000  N
  N14      1.0000 0.77190  0.33270  0.48270  Biso   1.000  N
  C55      1.0000 0.03400  0.49250  0.66830  Biso   1.000  C
  H37      1.0000 0.06560  0.49230  0.61360  Biso   1.000  H
  C56      1.0000 0.93990  0.44520  0.66950  Biso   1.000  C
  C57      1.0000 0.80960  0.38910  0.55580  Biso   1.000  C
  H38      1.0000 0.78460  0.42190  0.58360  Biso   1.000  H
  C58      1.0000 0.82910  0.29720  0.46420  Biso   1.000  C
  C59      1.0000 0.82150  0.23360  0.39580  Biso   1.000  C
  H39      1.0000 0.77290  0.20760  0.35270  Biso   1.000  H
  C60      1.0000 0.88990  0.21070  0.39470  Biso   1.000  C
  H40      1.0000 0.88790  0.16990  0.34840  Biso   1.000  H
  C61      1.0000 0.96190  0.24720  0.46130  Biso   1.000  C
  H41      1.0000 0.00550  0.22890  0.45920  Biso   1.000  H
  C62      1.0000 0.96940  0.30980  0.53020  Biso   1.000  C
  H42      1.0000 0.01650  0.33340  0.57520  Biso   1.000  H
  C63      1.0000 0.90300  0.33570  0.52860  Biso   1.000  C
  O8       1.0000 0.35290  0.57570  0.81900  Biso   1.000  O
  N15      1.0000 0.60540  0.49420  0.58660  Biso   1.000  N
  N16      1.0000 0.66730  0.43920  0.48270  Biso   1.000  N
  C64      1.0000 0.50750  0.54150  0.66830  Biso   1.000  C
  H43      1.0000 0.50770  0.57330  0.61360  Biso   1.000  H
  C65      1.0000 0.55480  0.49470  0.66950  Biso   1.000  C
  C66      1.0000 0.61090  0.42050  0.55580  Biso   1.000  C
  H44      1.0000 0.57810  0.36270  0.58360  Biso   1.000  H
  C67      1.0000 0.70280  0.53190  0.46420  Biso   1.000  C
  C68      1.0000 0.76640  0.58790  0.39580  Biso   1.000  C
  H45      1.0000 0.79240  0.56530  0.35270  Biso   1.000  H
  C69      1.0000 0.78930  0.67920  0.39470  Biso   1.000  C
  H46      1.0000 0.83010  0.71800  0.34840  Biso   1.000  H
  C70      1.0000 0.75280  0.71470  0.46130  Biso   1.000  C
  H47      1.0000 0.77110  0.77660  0.45920  Biso   1.000  H
  C71      1.0000 0.69020  0.65960  0.53020  Biso   1.000  C
  H48      1.0000 0.66660  0.68310  0.57520  Biso   1.000  H
  C72      1.0000 0.66430  0.56730  0.52860  Biso   1.000  C
  O9       1.0000 0.42430  0.77720  0.81900  Biso   1.000  O
  N17      1.0000 0.50580  0.11120  0.58660  Biso   1.000  N
  N18      1.0000 0.56080  0.22810  0.48270  Biso   1.000  N
  C73      1.0000 0.45850  0.96600  0.66830  Biso   1.000  C
  H49      1.0000 0.42670  0.93440  0.61360  Biso   1.000  H
  C74      1.0000 0.50530  0.06010  0.66950  Biso   1.000  C
  C75      1.0000 0.57950  0.19040  0.55580  Biso   1.000  C
  H50      1.0000 0.63730  0.21540  0.58360  Biso   1.000  H
  C76      1.0000 0.46810  0.17090  0.46420  Biso   1.000  C
  C77      1.0000 0.41210  0.17850  0.39580  Biso   1.000  C
  H51      1.0000 0.43470  0.22710  0.35270  Biso   1.000  H
  C78      1.0000 0.32080  0.11010  0.39470  Biso   1.000  C
  H52      1.0000 0.28200  0.11210  0.34840  Biso   1.000  H
  C79      1.0000 0.28530  0.03810  0.46130  Biso   1.000  C
  H53      1.0000 0.22340  0.99450  0.45920  Biso   1.000  H
  C80      1.0000 0.34040  0.03060  0.53020  Biso   1.000  C
  H54      1.0000 0.31690  0.98350  0.57520  Biso   1.000  H
  C81      1.0000 0.43270  0.09700  0.52860  Biso   1.000  C
  O10      1.0000 0.35290  0.77720  0.68100  Biso   1.000  O
  N19      1.0000 0.60540  0.11120  0.91340  Biso   1.000  N
  N20      1.0000 0.66730  0.22810  0.01730  Biso   1.000  N
  C82      1.0000 0.50750  0.96600  0.83170  Biso   1.000  C
  H55      1.0000 0.50770  0.93440  0.88640  Biso   1.000  H
  C83      1.0000 0.55480  0.06010  0.83050  Biso   1.000  C
  C84      1.0000 0.61090  0.19040  0.94420  Biso   1.000  C
  H56      1.0000 0.57810  0.21540  0.91640  Biso   1.000  H
  C85      1.0000 0.70280  0.17090  0.03580  Biso   1.000  C
  C86      1.0000 0.76640  0.17850  0.10420  Biso   1.000  C
  H57      1.0000 0.79240  0.22710  0.14730  Biso   1.000  H
  C87      1.0000 0.78930  0.11010  0.10530  Biso   1.000  C
  H58      1.0000 0.83010  0.11210  0.15160  Biso   1.000  H
  C88      1.0000 0.75280  0.03810  0.03870  Biso   1.000  C
  H59      1.0000 0.77110  0.99450  0.04080  Biso   1.000  H
  C89      1.0000 0.69020  0.03060  0.96980  Biso   1.000  C
  H60      1.0000 0.66660  0.98350  0.92480  Biso   1.000  H
  C90      1.0000 0.66430  0.09700  0.97140  Biso   1.000  C
  O11      1.0000 0.42430  0.64710  0.68100  Biso   1.000  O
  N21      1.0000 0.50580  0.39460  0.91340  Biso   1.000  N
  N22      1.0000 0.56080  0.33270  0.01730  Biso   1.000  N
  C91      1.0000 0.45850  0.49250  0.83170  Biso   1.000  C
  H61      1.0000 0.42670  0.49230  0.88640  Biso   1.000  H
  C92      1.0000 0.50530  0.44520  0.83050  Biso   1.000  C
  C93      1.0000 0.57950  0.38910  0.94420  Biso   1.000  C
  H62      1.0000 0.63730  0.42190  0.91640  Biso   1.000  H
  C94      1.0000 0.46810  0.29720  0.03580  Biso   1.000  C
  C95      1.0000 0.41210  0.23360  0.10420  Biso   1.000  C
  H63      1.0000 0.43470  0.20760  0.14730  Biso   1.000  H
  C96      1.0000 0.32080  0.21070  0.10530  Biso   1.000  C
  H64      1.0000 0.28200  0.16990  0.15160  Biso   1.000  H
  C97      1.0000 0.28530  0.24720  0.03870  Biso   1.000  C
  H65      1.0000 0.22340  0.22890  0.04080  Biso   1.000  H
  C98      1.0000 0.34040  0.30980  0.96980  Biso   1.000  C
  H66      1.0000 0.31690  0.33340  0.92480  Biso   1.000  H
  C99      1.0000 0.43270  0.33570  0.97140  Biso   1.000  C
  O12      1.0000 0.22280  0.57570  0.68100  Biso   1.000  O
  N23      1.0000 0.88880  0.49420  0.91340  Biso   1.000  N
  N24      1.0000 0.77190  0.43920  0.01730  Biso   1.000  N
  C100     1.0000 0.03400  0.54150  0.83170  Biso   1.000  C
  H67      1.0000 0.06560  0.57330  0.88640  Biso   1.000  H
  C101     1.0000 0.93990  0.49470  0.83050  Biso   1.000  C
  C102     1.0000 0.80960  0.42050  0.94420  Biso   1.000  C
  H68      1.0000 0.78460  0.36270  0.91640  Biso   1.000  H
  C103     1.0000 0.82910  0.53190  0.03580  Biso   1.000  C
  C104     1.0000 0.82150  0.58790  0.10420  Biso   1.000  C
  H69      1.0000 0.77290  0.56530  0.14730  Biso   1.000  H
  C105     1.0000 0.88990  0.67920  0.10530  Biso   1.000  C
  H70      1.0000 0.88790  0.71800  0.15160  Biso   1.000  H
  C106     1.0000 0.96190  0.71470  0.03870  Biso   1.000  C
  H71      1.0000 0.00550  0.77660  0.04080  Biso   1.000  H
  C107     1.0000 0.96940  0.65960  0.96980  Biso   1.000  C
  H72      1.0000 0.01650  0.68310  0.92480  Biso   1.000  H
  C108     1.0000 0.90300  0.56730  0.97140  Biso   1.000  C
  Ni1      1.0000 0.66667  0.33333  0.10260  Biso   1.000  Ni
  Ni2      1.0000 0.66667  0.33333  0.39740  Biso   1.000  Ni
  Ni3      1.0000 0.33333  0.66667  0.89740  Biso   1.000  Ni
  Ni4      1.0000 0.33333  0.66667  0.60260  Biso   1.000  Ni
  C109     1.0000 0.81530  0.40765  0.25000  Biso   1.000  C
  C110     1.0000 0.91870  0.45935  0.25000  Biso   1.000  C
  C111     1.0000 0.10770  0.55385  0.25000  Biso   1.000  C
  H73      1.0000 0.17140  0.58570  0.25000  Biso   1.000  H
  C112     1.0000 0.59235  0.40765  0.25000  Biso   1.000  C
  C113     1.0000 0.54065  0.45935  0.25000  Biso   1.000  C
  C114     1.0000 0.44615  0.55385  0.25000  Biso   1.000  C
  H74      1.0000 0.41430  0.58570  0.25000  Biso   1.000  H
  C115     1.0000 0.59235  0.18470  0.25000  Biso   1.000  C
  C116     1.0000 0.54065  0.08130  0.25000  Biso   1.000  C
  C117     1.0000 0.44615  0.89230  0.25000  Biso   1.000  C
  H75      1.0000 0.41430  0.82860  0.25000  Biso   1.000  H
  C118     1.0000 0.18470  0.59235  0.75000  Biso   1.000  C
  C119     1.0000 0.08130  0.54065  0.75000  Biso   1.000  C
  C120     1.0000 0.89230  0.44615  0.75000  Biso   1.000  C
  H76      1.0000 0.82860  0.41430  0.75000  Biso   1.000  H
  C121     1.0000 0.40765  0.59235  0.75000  Biso   1.000  C
  C122     1.0000 0.45935  0.54065  0.75000  Biso   1.000  C
  C123     1.0000 0.55385  0.44615  0.75000  Biso   1.000  C
  H77      1.0000 0.58570  0.41430  0.75000  Biso   1.000  H
  C124     1.0000 0.40765  0.81530  0.75000  Biso   1.000  C
  C125     1.0000 0.45935  0.91870  0.75000  Biso   1.000  C
  C126     1.0000 0.55385  0.10770  0.75000  Biso   1.000  C
  H78      1.0000 0.58570  0.17140  0.75000  Biso   1.000  H
