data_image0
_cell_length_a       16.901
_cell_length_b       16.901
_cell_length_c       14.082
_cell_angle_alpha    90
_cell_angle_beta     90
_cell_angle_gamma    120

_symmetry_space_group_name_H-M    "P 1"
_symmetry_int_tables_number       1

loop_
  _symmetry_equiv_pos_as_xyz
  'x, y, z'

loop_
  _atom_site_label
  _atom_site_occupancy
  _atom_site_fract_x
  _atom_site_fract_y
  _atom_site_fract_z
  _atom_site_thermal_displace_type
  _atom_site_B_iso_or_equiv
  _atom_site_type_symbol
  O1       1.0000 0.77900  0.35450  0.18160  Biso   1.000  O
  N1       1.0000 0.11140  0.60470  0.41160  Biso   1.000  N
  N2       1.0000 0.22750  0.66690  0.51600  Biso   1.000  N
  C1       1.0000 0.96720  0.50800  0.32960  Biso   1.000  C
  H1       1.0000 0.93550  0.50800  0.38350  Biso   1.000  H
  C2       1.0000 0.06150  0.55590  0.32930  Biso   1.000  C
  C3       1.0000 0.19070  0.61220  0.44290  Biso   1.000  C
  H2       1.0000 0.21700  0.58100  0.41470  Biso   1.000  H
  C4       1.0000 0.16780  0.69940  0.53450  Biso   1.000  C
  C5       1.0000 0.17210  0.75900  0.60580  Biso   1.000  C
  H3       1.0000 0.22010  0.78410  0.64910  Biso   1.000  H
  C6       1.0000 0.10360  0.77920  0.60960  Biso   1.000  C
  H4       1.0000 0.10480  0.81860  0.65650  Biso   1.000  H
  C7       1.0000 0.03070  0.74130  0.54370  Biso   1.000  C
  H5       1.0000 0.98460  0.75600  0.54840  Biso   1.000  H
  C8       1.0000 0.02640  0.68270  0.47190  Biso   1.000  C
  H6       1.0000 0.97950  0.65900  0.42720  Biso   1.000  H
  C9       1.0000 0.09480  0.66200  0.47070  Biso   1.000  C
  O2       1.0000 0.64550  0.42450  0.18160  Biso   1.000  O
  N3       1.0000 0.39530  0.50670  0.41160  Biso   1.000  N
  N4       1.0000 0.33310  0.56060  0.51600  Biso   1.000  N
  C10      1.0000 0.49200  0.45920  0.32960  Biso   1.000  C
  H7       1.0000 0.49200  0.42750  0.38350  Biso   1.000  H
  C11      1.0000 0.44410  0.50560  0.32930  Biso   1.000  C
  C12      1.0000 0.38780  0.57850  0.44290  Biso   1.000  C
  H8       1.0000 0.41900  0.63600  0.41470  Biso   1.000  H
  C13      1.0000 0.30060  0.46840  0.53450  Biso   1.000  C
  C14      1.0000 0.24100  0.41310  0.60580  Biso   1.000  C
  H9       1.0000 0.21590  0.43600  0.64910  Biso   1.000  H
  C15      1.0000 0.22080  0.32440  0.60960  Biso   1.000  C
  H10      1.0000 0.18140  0.28620  0.65650  Biso   1.000  H
  C16      1.0000 0.25870  0.28940  0.54370  Biso   1.000  C
  H11      1.0000 0.24400  0.22860  0.54840  Biso   1.000  H
  C17      1.0000 0.31730  0.34370  0.47190  Biso   1.000  C
  H12      1.0000 0.34100  0.32050  0.42720  Biso   1.000  H
  C18      1.0000 0.33800  0.43280  0.47070  Biso   1.000  C
  O3       1.0000 0.57550  0.22100  0.18160  Biso   1.000  O
  N5       1.0000 0.49330  0.88860  0.41160  Biso   1.000  N
  N6       1.0000 0.43940  0.77250  0.51600  Biso   1.000  N
  C19      1.0000 0.54080  0.03280  0.32960  Biso   1.000  C
  H13      1.0000 0.57250  0.06450  0.38350  Biso   1.000  H
  C20      1.0000 0.49440  0.93850  0.32930  Biso   1.000  C
  C21      1.0000 0.42150  0.80930  0.44290  Biso   1.000  C
  H14      1.0000 0.36400  0.78300  0.41470  Biso   1.000  H
  C22      1.0000 0.53160  0.83220  0.53450  Biso   1.000  C
  C23      1.0000 0.58690  0.82790  0.60580  Biso   1.000  C
  H15      1.0000 0.56400  0.77990  0.64910  Biso   1.000  H
  C24      1.0000 0.67560  0.89640  0.60960  Biso   1.000  C
  H16      1.0000 0.71380  0.89520  0.65650  Biso   1.000  H
  C25      1.0000 0.71060  0.96930  0.54370  Biso   1.000  C
  H17      1.0000 0.77140  0.01540  0.54840  Biso   1.000  H
  C26      1.0000 0.65630  0.97360  0.47190  Biso   1.000  C
  H18      1.0000 0.67950  0.02050  0.42720  Biso   1.000  H
  C27      1.0000 0.56720  0.90520  0.47070  Biso   1.000  C
  O4       1.0000 0.64550  0.22100  0.31840  Biso   1.000  O
  N7       1.0000 0.39530  0.88860  0.08840  Biso   1.000  N
  N8       1.0000 0.33310  0.77250  0.98400  Biso   1.000  N
  C28      1.0000 0.49200  0.03280  0.17040  Biso   1.000  C
  H19      1.0000 0.49200  0.06450  0.11650  Biso   1.000  H
  C29      1.0000 0.44410  0.93850  0.17070  Biso   1.000  C
  C30      1.0000 0.38780  0.80930  0.05710  Biso   1.000  C
  H20      1.0000 0.41900  0.78300  0.08530  Biso   1.000  H
  C31      1.0000 0.30060  0.83220  0.96550  Biso   1.000  C
  C32      1.0000 0.24100  0.82790  0.89420  Biso   1.000  C
  H21      1.0000 0.21590  0.77990  0.85090  Biso   1.000  H
  C33      1.0000 0.22080  0.89640  0.89040  Biso   1.000  C
  H22      1.0000 0.18140  0.89520  0.84350  Biso   1.000  H
  C34      1.0000 0.25870  0.96930  0.95630  Biso   1.000  C
  H23      1.0000 0.24400  0.01540  0.95160  Biso   1.000  H
  C35      1.0000 0.31730  0.97360  0.02810  Biso   1.000  C
  H24      1.0000 0.34100  0.02050  0.07280  Biso   1.000  H
  C36      1.0000 0.33800  0.90520  0.02930  Biso   1.000  C
  O5       1.0000 0.57550  0.35450  0.31840  Biso   1.000  O
  N9       1.0000 0.49330  0.60470  0.08840  Biso   1.000  N
  N10      1.0000 0.43940  0.66690  0.98400  Biso   1.000  N
  C37      1.0000 0.54080  0.50800  0.17040  Biso   1.000  C
  H25      1.0000 0.57250  0.50800  0.11650  Biso   1.000  H
  C38      1.0000 0.49440  0.55590  0.17070  Biso   1.000  C
  C39      1.0000 0.42150  0.61220  0.05710  Biso   1.000  C
  H26      1.0000 0.36400  0.58100  0.08530  Biso   1.000  H
  C40      1.0000 0.53160  0.69940  0.96550  Biso   1.000  C
  C41      1.0000 0.58690  0.75900  0.89420  Biso   1.000  C
  H27      1.0000 0.56400  0.78410  0.85090  Biso   1.000  H
  C42      1.0000 0.67560  0.77920  0.89040  Biso   1.000  C
  H28      1.0000 0.71380  0.81860  0.84350  Biso   1.000  H
  C43      1.0000 0.71060  0.74130  0.95630  Biso   1.000  C
  H29      1.0000 0.77140  0.75600  0.95160  Biso   1.000  H
  C44      1.0000 0.65630  0.68270  0.02810  Biso   1.000  C
  H30      1.0000 0.67950  0.65900  0.07280  Biso   1.000  H
  C45      1.0000 0.56720  0.66200  0.02930  Biso   1.000  C
  O6       1.0000 0.77900  0.42450  0.31840  Biso   1.000  O
  N11      1.0000 0.11140  0.50670  0.08840  Biso   1.000  N
  N12      1.0000 0.22750  0.56060  0.98400  Biso   1.000  N
  C46      1.0000 0.96720  0.45920  0.17040  Biso   1.000  C
  H31      1.0000 0.93550  0.42750  0.11650  Biso   1.000  H
  C47      1.0000 0.06150  0.50560  0.17070  Biso   1.000  C
  C48      1.0000 0.19070  0.57850  0.05710  Biso   1.000  C
  H32      1.0000 0.21700  0.63600  0.08530  Biso   1.000  H
  C49      1.0000 0.16780  0.46840  0.96550  Biso   1.000  C
  C50      1.0000 0.17210  0.41310  0.89420  Biso   1.000  C
  H33      1.0000 0.22010  0.43600  0.85090  Biso   1.000  H
  C51      1.0000 0.10360  0.32440  0.89040  Biso   1.000  C
  H34      1.0000 0.10480  0.28620  0.84350  Biso   1.000  H
  C52      1.0000 0.03070  0.28940  0.95630  Biso   1.000  C
  H35      1.0000 0.98460  0.22860  0.95160  Biso   1.000  H
  C53      1.0000 0.02640  0.34370  0.02810  Biso   1.000  C
  H36      1.0000 0.97950  0.32050  0.07280  Biso   1.000  H
  C54      1.0000 0.09480  0.43280  0.02930  Biso   1.000  C
  O7       1.0000 0.22100  0.64550  0.81840  Biso   1.000  O
  N13      1.0000 0.88860  0.39530  0.58840  Biso   1.000  N
  N14      1.0000 0.77250  0.33310  0.48400  Biso   1.000  N
  C55      1.0000 0.03280  0.49200  0.67040  Biso   1.000  C
  H37      1.0000 0.06450  0.49200  0.61650  Biso   1.000  H
  C56      1.0000 0.93850  0.44410  0.67070  Biso   1.000  C
  C57      1.0000 0.80930  0.38780  0.55710  Biso   1.000  C
  H38      1.0000 0.78300  0.41900  0.58530  Biso   1.000  H
  C58      1.0000 0.83220  0.30060  0.46550  Biso   1.000  C
  C59      1.0000 0.82790  0.24100  0.39420  Biso   1.000  C
  H39      1.0000 0.77990  0.21590  0.35090  Biso   1.000  H
  C60      1.0000 0.89640  0.22080  0.39040  Biso   1.000  C
  H40      1.0000 0.89520  0.18140  0.34350  Biso   1.000  H
  C61      1.0000 0.96930  0.25870  0.45630  Biso   1.000  C
  H41      1.0000 0.01540  0.24400  0.45160  Biso   1.000  H
  C62      1.0000 0.97360  0.31730  0.52810  Biso   1.000  C
  H42      1.0000 0.02050  0.34100  0.57280  Biso   1.000  H
  C63      1.0000 0.90520  0.33800  0.52930  Biso   1.000  C
  O8       1.0000 0.35450  0.57550  0.81840  Biso   1.000  O
  N15      1.0000 0.60470  0.49330  0.58840  Biso   1.000  N
  N16      1.0000 0.66690  0.43940  0.48400  Biso   1.000  N
  C64      1.0000 0.50800  0.54080  0.67040  Biso   1.000  C
  H43      1.0000 0.50800  0.57250  0.61650  Biso   1.000  H
  C65      1.0000 0.55590  0.49440  0.67070  Biso   1.000  C
  C66      1.0000 0.61220  0.42150  0.55710  Biso   1.000  C
  H44      1.0000 0.58100  0.36400  0.58530  Biso   1.000  H
  C67      1.0000 0.69940  0.53160  0.46550  Biso   1.000  C
  C68      1.0000 0.75900  0.58690  0.39420  Biso   1.000  C
  H45      1.0000 0.78410  0.56400  0.35090  Biso   1.000  H
  C69      1.0000 0.77920  0.67560  0.39040  Biso   1.000  C
  H46      1.0000 0.81860  0.71380  0.34350  Biso   1.000  H
  C70      1.0000 0.74130  0.71060  0.45630  Biso   1.000  C
  H47      1.0000 0.75600  0.77140  0.45160  Biso   1.000  H
  C71      1.0000 0.68270  0.65630  0.52810  Biso   1.000  C
  H48      1.0000 0.65900  0.67950  0.57280  Biso   1.000  H
  C72      1.0000 0.66200  0.56720  0.52930  Biso   1.000  C
  O9       1.0000 0.42450  0.77900  0.81840  Biso   1.000  O
  N17      1.0000 0.50670  0.11140  0.58840  Biso   1.000  N
  N18      1.0000 0.56060  0.22750  0.48400  Biso   1.000  N
  C73      1.0000 0.45920  0.96720  0.67040  Biso   1.000  C
  H49      1.0000 0.42750  0.93550  0.61650  Biso   1.000  H
  C74      1.0000 0.50560  0.06150  0.67070  Biso   1.000  C
  C75      1.0000 0.57850  0.19070  0.55710  Biso   1.000  C
  H50      1.0000 0.63600  0.21700  0.58530  Biso   1.000  H
  C76      1.0000 0.46840  0.16780  0.46550  Biso   1.000  C
  C77      1.0000 0.41310  0.17210  0.39420  Biso   1.000  C
  H51      1.0000 0.43600  0.22010  0.35090  Biso   1.000  H
  C78      1.0000 0.32440  0.10360  0.39040  Biso   1.000  C
  H52      1.0000 0.28620  0.10480  0.34350  Biso   1.000  H
  C79      1.0000 0.28940  0.03070  0.45630  Biso   1.000  C
  H53      1.0000 0.22860  0.98460  0.45160  Biso   1.000  H
  C80      1.0000 0.34370  0.02640  0.52810  Biso   1.000  C
  H54      1.0000 0.32050  0.97950  0.57280  Biso   1.000  H
  C81      1.0000 0.43280  0.09480  0.52930  Biso   1.000  C
  O10      1.0000 0.35450  0.77900  0.68160  Biso   1.000  O
  N19      1.0000 0.60470  0.11140  0.91160  Biso   1.000  N
  N20      1.0000 0.66690  0.22750  0.01600  Biso   1.000  N
  C82      1.0000 0.50800  0.96720  0.82960  Biso   1.000  C
  H55      1.0000 0.50800  0.93550  0.88350  Biso   1.000  H
  C83      1.0000 0.55590  0.06150  0.82930  Biso   1.000  C
  C84      1.0000 0.61220  0.19070  0.94290  Biso   1.000  C
  H56      1.0000 0.58100  0.21700  0.91470  Biso   1.000  H
  C85      1.0000 0.69940  0.16780  0.03450  Biso   1.000  C
  C86      1.0000 0.75900  0.17210  0.10580  Biso   1.000  C
  H57      1.0000 0.78410  0.22010  0.14910  Biso   1.000  H
  C87      1.0000 0.77920  0.10360  0.10960  Biso   1.000  C
  H58      1.0000 0.81860  0.10480  0.15650  Biso   1.000  H
  C88      1.0000 0.74130  0.03070  0.04370  Biso   1.000  C
  H59      1.0000 0.75600  0.98460  0.04840  Biso   1.000  H
  C89      1.0000 0.68270  0.02640  0.97190  Biso   1.000  C
  H60      1.0000 0.65900  0.97950  0.92720  Biso   1.000  H
  C90      1.0000 0.66200  0.09480  0.97070  Biso   1.000  C
  O11      1.0000 0.42450  0.64550  0.68160  Biso   1.000  O
  N21      1.0000 0.50670  0.39530  0.91160  Biso   1.000  N
  N22      1.0000 0.56060  0.33310  0.01600  Biso   1.000  N
  C91      1.0000 0.45920  0.49200  0.82960  Biso   1.000  C
  H61      1.0000 0.42750  0.49200  0.88350  Biso   1.000  H
  C92      1.0000 0.50560  0.44410  0.82930  Biso   1.000  C
  C93      1.0000 0.57850  0.38780  0.94290  Biso   1.000  C
  H62      1.0000 0.63600  0.41900  0.91470  Biso   1.000  H
  C94      1.0000 0.46840  0.30060  0.03450  Biso   1.000  C
  C95      1.0000 0.41310  0.24100  0.10580  Biso   1.000  C
  H63      1.0000 0.43600  0.21590  0.14910  Biso   1.000  H
  C96      1.0000 0.32440  0.22080  0.10960  Biso   1.000  C
  H64      1.0000 0.28620  0.18140  0.15650  Biso   1.000  H
  C97      1.0000 0.28940  0.25870  0.04370  Biso   1.000  C
  H65      1.0000 0.22860  0.24400  0.04840  Biso   1.000  H
  C98      1.0000 0.34370  0.31730  0.97190  Biso   1.000  C
  H66      1.0000 0.32050  0.34100  0.92720  Biso   1.000  H
  C99      1.0000 0.43280  0.33800  0.97070  Biso   1.000  C
  O12      1.0000 0.22100  0.57550  0.68160  Biso   1.000  O
  N23      1.0000 0.88860  0.49330  0.91160  Biso   1.000  N
  N24      1.0000 0.77250  0.43940  0.01600  Biso   1.000  N
  C100     1.0000 0.03280  0.54080  0.82960  Biso   1.000  C
  H67      1.0000 0.06450  0.57250  0.88350  Biso   1.000  H
  C101     1.0000 0.93850  0.49440  0.82930  Biso   1.000  C
  C102     1.0000 0.80930  0.42150  0.94290  Biso   1.000  C
  H68      1.0000 0.78300  0.36400  0.91470  Biso   1.000  H
  C103     1.0000 0.83220  0.53160  0.03450  Biso   1.000  C
  C104     1.0000 0.82790  0.58690  0.10580  Biso   1.000  C
  H69      1.0000 0.77990  0.56400  0.14910  Biso   1.000  H
  C105     1.0000 0.89640  0.67560  0.10960  Biso   1.000  C
  H70      1.0000 0.89520  0.71380  0.15650  Biso   1.000  H
  C106     1.0000 0.96930  0.71060  0.04370  Biso   1.000  C
  H71      1.0000 0.01540  0.77140  0.04840  Biso   1.000  H
  C107     1.0000 0.97360  0.65630  0.97190  Biso   1.000  C
  H72      1.0000 0.02050  0.67950  0.92720  Biso   1.000  H
  C108     1.0000 0.90520  0.56720  0.97070  Biso   1.000  C
  Co1      1.0000 0.66667  0.33333  0.10379  Biso   1.000  Co
  Co2      1.0000 0.66667  0.33333  0.39621  Biso   1.000  Co
  Co3      1.0000 0.33333  0.66667  0.89621  Biso   1.000  Co
  Co4      1.0000 0.33333  0.66667  0.60379  Biso   1.000  Co
  C109     1.0000 0.81690  0.40845  0.25000  Biso   1.000  C
  C110     1.0000 0.92000  0.46000  0.25000  Biso   1.000  C
  C111     1.0000 0.10870  0.55435  0.25000  Biso   1.000  C
  H73      1.0000 0.17230  0.58615  0.25000  Biso   1.000  H
  C112     1.0000 0.59155  0.40845  0.25000  Biso   1.000  C
  C113     1.0000 0.54000  0.46000  0.25000  Biso   1.000  C
  C114     1.0000 0.44565  0.55435  0.25000  Biso   1.000  C
  H74      1.0000 0.41385  0.58615  0.25000  Biso   1.000  H
  C115     1.0000 0.59155  0.18310  0.25000  Biso   1.000  C
  C116     1.0000 0.54000  0.08000  0.25000  Biso   1.000  C
  C117     1.0000 0.44565  0.89130  0.25000  Biso   1.000  C
  H75      1.0000 0.41385  0.82770  0.25000  Biso   1.000  H
  C118     1.0000 0.18310  0.59155  0.75000  Biso   1.000  C
  C119     1.0000 0.08000  0.54000  0.75000  Biso   1.000  C
  C120     1.0000 0.89130  0.44565  0.75000  Biso   1.000  C
  H76      1.0000 0.82770  0.41385  0.75000  Biso   1.000  H
  C121     1.0000 0.40845  0.59155  0.75000  Biso   1.000  C
  C122     1.0000 0.46000  0.54000  0.75000  Biso   1.000  C
  C123     1.0000 0.55435  0.44565  0.75000  Biso   1.000  C
  H77      1.0000 0.58615  0.41385  0.75000  Biso   1.000  H
  C124     1.0000 0.40845  0.81690  0.75000  Biso   1.000  C
  C125     1.0000 0.46000  0.92000  0.75000  Biso   1.000  C
  C126     1.0000 0.55435  0.10870  0.75000  Biso   1.000  C
  H78      1.0000 0.58615  0.17230  0.75000  Biso   1.000  H
