data_image0
_cell_length_a       16.946
_cell_length_b       16.946
_cell_length_c       13.838
_cell_angle_alpha    90
_cell_angle_beta     90
_cell_angle_gamma    120

_symmetry_space_group_name_H-M    "P 1"
_symmetry_int_tables_number       1

loop_
  _symmetry_equiv_pos_as_xyz
  'x, y, z'

loop_
  _atom_site_label
  _atom_site_occupancy
  _atom_site_fract_x
  _atom_site_fract_y
  _atom_site_fract_z
  _atom_site_thermal_displace_type
  _atom_site_B_iso_or_equiv
  _atom_site_type_symbol
  O1       1.0000 0.77676  0.42349  0.68060  Biso   1.000  O
  N1       1.0000 0.10978  0.50620  0.91394  Biso   1.000  N
  N2       1.0000 0.22825  0.56156  0.01593  Biso   1.000  N
  C1       1.0000 0.96433  0.45838  0.83254  Biso   1.000  C
  H1       1.0000 0.93290  0.42730  0.88780  Biso   1.000  H
  C2       1.0000 0.05799  0.50473  0.83107  Biso   1.000  C
  C3       1.0000 0.18970  0.57876  0.94307  Biso   1.000  C
  H2       1.0000 0.21490  0.63570  0.91390  Biso   1.000  H
  C4       1.0000 0.16902  0.46955  0.03803  Biso   1.000  C
  C5       1.0000 0.17459  0.41404  0.10852  Biso   1.000  C
  H3       1.0000 0.22360  0.43640  0.15110  Biso   1.000  H
  C6       1.0000 0.10540  0.32534  0.11310  Biso   1.000  C
  H4       1.0000 0.10740  0.28720  0.16010  Biso   1.000  H
  C7       1.0000 0.03140  0.29040  0.04840  Biso   1.000  C
  H5       1.0000 0.98600  0.22960  0.05340  Biso   1.000  H
  C8       1.0000 0.02462  0.34387  0.97801  Biso   1.000  C
  H6       1.0000 0.97580  0.32090  0.93520  Biso   1.000  H
  C9       1.0000 0.09435  0.43375  0.97421  Biso   1.000  C
  O2       1.0000 0.57651  0.35327  0.68060  Biso   1.000  O
  N3       1.0000 0.49380  0.60358  0.91394  Biso   1.000  N
  N4       1.0000 0.43844  0.66669  0.01593  Biso   1.000  N
  C10      1.0000 0.54162  0.50595  0.83254  Biso   1.000  C
  H7       1.0000 0.57270  0.50560  0.88780  Biso   1.000  H
  C11      1.0000 0.49527  0.55326  0.83107  Biso   1.000  C
  C12      1.0000 0.42124  0.61094  0.94307  Biso   1.000  C
  H8       1.0000 0.36430  0.57920  0.91390  Biso   1.000  H
  C13      1.0000 0.53045  0.69947  0.03803  Biso   1.000  C
  C14      1.0000 0.58596  0.76055  0.10852  Biso   1.000  C
  H9       1.0000 0.56360  0.78720  0.15110  Biso   1.000  H
  C15      1.0000 0.67466  0.78006  0.11310  Biso   1.000  C
  H10      1.0000 0.71280  0.82020  0.16010  Biso   1.000  H
  C16      1.0000 0.70960  0.74100  0.04840  Biso   1.000  C
  H11      1.0000 0.77040  0.75640  0.05340  Biso   1.000  H
  C17      1.0000 0.65613  0.68075  0.97801  Biso   1.000  C
  H12      1.0000 0.67910  0.65490  0.93520  Biso   1.000  H
  C18      1.0000 0.56625  0.66060  0.97421  Biso   1.000  C
  O3       1.0000 0.64673  0.22324  0.68060  Biso   1.000  O
  N5       1.0000 0.39642  0.89022  0.91394  Biso   1.000  N
  N6       1.0000 0.33331  0.77175  0.01593  Biso   1.000  N
  C19      1.0000 0.49405  0.03567  0.83254  Biso   1.000  C
  H13      1.0000 0.49440  0.06710  0.88780  Biso   1.000  H
  C20      1.0000 0.44674  0.94201  0.83107  Biso   1.000  C
  C21      1.0000 0.38906  0.81030  0.94307  Biso   1.000  C
  H14      1.0000 0.42080  0.78510  0.91390  Biso   1.000  H
  C22      1.0000 0.30053  0.83098  0.03803  Biso   1.000  C
  C23      1.0000 0.23945  0.82541  0.10852  Biso   1.000  C
  H15      1.0000 0.21280  0.77640  0.15110  Biso   1.000  H
  C24      1.0000 0.21994  0.89460  0.11310  Biso   1.000  C
  H16      1.0000 0.17980  0.89260  0.16010  Biso   1.000  H
  C25      1.0000 0.25900  0.96860  0.04840  Biso   1.000  C
  H17      1.0000 0.24360  0.01400  0.05340  Biso   1.000  H
  C26      1.0000 0.31925  0.97538  0.97801  Biso   1.000  C
  H18      1.0000 0.34510  0.02420  0.93520  Biso   1.000  H
  C27      1.0000 0.33940  0.90565  0.97421  Biso   1.000  C
  O4       1.0000 0.57651  0.22324  0.81940  Biso   1.000  O
  N7       1.0000 0.49380  0.89022  0.58606  Biso   1.000  N
  N8       1.0000 0.43844  0.77175  0.48407  Biso   1.000  N
  C28      1.0000 0.54162  0.03567  0.66746  Biso   1.000  C
  H19      1.0000 0.57270  0.06710  0.61220  Biso   1.000  H
  C29      1.0000 0.49527  0.94201  0.66893  Biso   1.000  C
  C30      1.0000 0.42124  0.81030  0.55693  Biso   1.000  C
  H20      1.0000 0.36430  0.78510  0.58610  Biso   1.000  H
  C31      1.0000 0.53045  0.83098  0.46197  Biso   1.000  C
  C32      1.0000 0.58596  0.82541  0.39148  Biso   1.000  C
  H21      1.0000 0.56360  0.77640  0.34890  Biso   1.000  H
  C33      1.0000 0.67466  0.89460  0.38690  Biso   1.000  C
  H22      1.0000 0.71280  0.89260  0.33990  Biso   1.000  H
  C34      1.0000 0.70960  0.96860  0.45160  Biso   1.000  C
  H23      1.0000 0.77040  0.01400  0.44660  Biso   1.000  H
  C35      1.0000 0.65613  0.97538  0.52199  Biso   1.000  C
  H24      1.0000 0.67910  0.02420  0.56480  Biso   1.000  H
  C36      1.0000 0.56625  0.90565  0.52579  Biso   1.000  C
  O5       1.0000 0.64673  0.42349  0.81940  Biso   1.000  O
  N9       1.0000 0.39642  0.50620  0.58606  Biso   1.000  N
  N10      1.0000 0.33331  0.56156  0.48407  Biso   1.000  N
  C37      1.0000 0.49405  0.45838  0.66746  Biso   1.000  C
  H25      1.0000 0.49440  0.42730  0.61220  Biso   1.000  H
  C38      1.0000 0.44674  0.50473  0.66893  Biso   1.000  C
  C39      1.0000 0.38906  0.57876  0.55693  Biso   1.000  C
  H26      1.0000 0.42080  0.63570  0.58610  Biso   1.000  H
  C40      1.0000 0.30053  0.46955  0.46197  Biso   1.000  C
  C41      1.0000 0.23945  0.41404  0.39148  Biso   1.000  C
  H27      1.0000 0.21280  0.43640  0.34890  Biso   1.000  H
  C42      1.0000 0.21994  0.32534  0.38690  Biso   1.000  C
  H28      1.0000 0.17980  0.28720  0.33990  Biso   1.000  H
  C43      1.0000 0.25900  0.29040  0.45160  Biso   1.000  C
  H29      1.0000 0.24360  0.22960  0.44660  Biso   1.000  H
  C44      1.0000 0.31925  0.34387  0.52199  Biso   1.000  C
  H30      1.0000 0.34510  0.32090  0.56480  Biso   1.000  H
  C45      1.0000 0.33940  0.43375  0.52579  Biso   1.000  C
  O6       1.0000 0.77676  0.35327  0.81940  Biso   1.000  O
  N11      1.0000 0.10978  0.60358  0.58606  Biso   1.000  N
  N12      1.0000 0.22825  0.66669  0.48407  Biso   1.000  N
  C46      1.0000 0.96433  0.50595  0.66746  Biso   1.000  C
  H31      1.0000 0.93290  0.50560  0.61220  Biso   1.000  H
  C47      1.0000 0.05799  0.55326  0.66893  Biso   1.000  C
  C48      1.0000 0.18970  0.61094  0.55693  Biso   1.000  C
  H32      1.0000 0.21490  0.57920  0.58610  Biso   1.000  H
  C49      1.0000 0.16902  0.69947  0.46197  Biso   1.000  C
  C50      1.0000 0.17459  0.76055  0.39148  Biso   1.000  C
  H33      1.0000 0.22360  0.78720  0.34890  Biso   1.000  H
  C51      1.0000 0.10540  0.78006  0.38690  Biso   1.000  C
  H34      1.0000 0.10740  0.82020  0.33990  Biso   1.000  H
  C52      1.0000 0.03140  0.74100  0.45160  Biso   1.000  C
  H35      1.0000 0.98600  0.75640  0.44660  Biso   1.000  H
  C53      1.0000 0.02462  0.68075  0.52199  Biso   1.000  C
  H36      1.0000 0.97580  0.65490  0.56480  Biso   1.000  H
  C54      1.0000 0.09435  0.66060  0.52579  Biso   1.000  C
  O7       1.0000 0.22324  0.57651  0.31940  Biso   1.000  O
  N13      1.0000 0.89022  0.49380  0.08606  Biso   1.000  N
  N14      1.0000 0.77175  0.43844  0.98407  Biso   1.000  N
  C55      1.0000 0.03567  0.54162  0.16746  Biso   1.000  C
  H37      1.0000 0.06710  0.57270  0.11220  Biso   1.000  H
  C56      1.0000 0.94201  0.49527  0.16893  Biso   1.000  C
  C57      1.0000 0.81030  0.42124  0.05693  Biso   1.000  C
  H38      1.0000 0.78510  0.36430  0.08610  Biso   1.000  H
  C58      1.0000 0.83098  0.53045  0.96197  Biso   1.000  C
  C59      1.0000 0.82541  0.58596  0.89148  Biso   1.000  C
  H39      1.0000 0.77640  0.56360  0.84890  Biso   1.000  H
  C60      1.0000 0.89460  0.67466  0.88690  Biso   1.000  C
  H40      1.0000 0.89260  0.71280  0.83990  Biso   1.000  H
  C61      1.0000 0.96860  0.70960  0.95160  Biso   1.000  C
  H41      1.0000 0.01400  0.77040  0.94660  Biso   1.000  H
  C62      1.0000 0.97538  0.65613  0.02199  Biso   1.000  C
  H42      1.0000 0.02420  0.67910  0.06480  Biso   1.000  H
  C63      1.0000 0.90565  0.56625  0.02579  Biso   1.000  C
  O8       1.0000 0.42349  0.64673  0.31940  Biso   1.000  O
  N15      1.0000 0.50620  0.39642  0.08606  Biso   1.000  N
  N16      1.0000 0.56156  0.33331  0.98407  Biso   1.000  N
  C64      1.0000 0.45838  0.49405  0.16746  Biso   1.000  C
  H43      1.0000 0.42730  0.49440  0.11220  Biso   1.000  H
  C65      1.0000 0.50473  0.44674  0.16893  Biso   1.000  C
  C66      1.0000 0.57876  0.38906  0.05693  Biso   1.000  C
  H44      1.0000 0.63570  0.42080  0.08610  Biso   1.000  H
  C67      1.0000 0.46955  0.30053  0.96197  Biso   1.000  C
  C68      1.0000 0.41404  0.23945  0.89148  Biso   1.000  C
  H45      1.0000 0.43640  0.21280  0.84890  Biso   1.000  H
  C69      1.0000 0.32534  0.21994  0.88690  Biso   1.000  C
  H46      1.0000 0.28720  0.17980  0.83990  Biso   1.000  H
  C70      1.0000 0.29040  0.25900  0.95160  Biso   1.000  C
  H47      1.0000 0.22960  0.24360  0.94660  Biso   1.000  H
  C71      1.0000 0.34387  0.31925  0.02199  Biso   1.000  C
  H48      1.0000 0.32090  0.34510  0.06480  Biso   1.000  H
  C72      1.0000 0.43375  0.33940  0.02579  Biso   1.000  C
  O9       1.0000 0.35327  0.77676  0.31940  Biso   1.000  O
  N17      1.0000 0.60358  0.10978  0.08606  Biso   1.000  N
  N18      1.0000 0.66669  0.22825  0.98407  Biso   1.000  N
  C73      1.0000 0.50595  0.96433  0.16746  Biso   1.000  C
  H49      1.0000 0.50560  0.93290  0.11220  Biso   1.000  H
  C74      1.0000 0.55326  0.05799  0.16893  Biso   1.000  C
  C75      1.0000 0.61094  0.18970  0.05693  Biso   1.000  C
  H50      1.0000 0.57920  0.21490  0.08610  Biso   1.000  H
  C76      1.0000 0.69947  0.16902  0.96197  Biso   1.000  C
  C77      1.0000 0.76055  0.17459  0.89148  Biso   1.000  C
  H51      1.0000 0.78720  0.22360  0.84890  Biso   1.000  H
  C78      1.0000 0.78006  0.10540  0.88690  Biso   1.000  C
  H52      1.0000 0.82020  0.10740  0.83990  Biso   1.000  H
  C79      1.0000 0.74100  0.03140  0.95160  Biso   1.000  C
  H53      1.0000 0.75640  0.98600  0.94660  Biso   1.000  H
  C80      1.0000 0.68075  0.02462  0.02199  Biso   1.000  C
  H54      1.0000 0.65490  0.97580  0.06480  Biso   1.000  H
  C81      1.0000 0.66060  0.09435  0.02579  Biso   1.000  C
  O10      1.0000 0.42349  0.77676  0.18060  Biso   1.000  O
  N19      1.0000 0.50620  0.10978  0.41394  Biso   1.000  N
  N20      1.0000 0.56156  0.22825  0.51593  Biso   1.000  N
  C82      1.0000 0.45838  0.96433  0.33254  Biso   1.000  C
  H55      1.0000 0.42730  0.93290  0.38780  Biso   1.000  H
  C83      1.0000 0.50473  0.05799  0.33107  Biso   1.000  C
  C84      1.0000 0.57876  0.18970  0.44307  Biso   1.000  C
  H56      1.0000 0.63570  0.21490  0.41390  Biso   1.000  H
  C85      1.0000 0.46955  0.16902  0.53803  Biso   1.000  C
  C86      1.0000 0.41404  0.17459  0.60852  Biso   1.000  C
  H57      1.0000 0.43640  0.22360  0.65110  Biso   1.000  H
  C87      1.0000 0.32534  0.10540  0.61310  Biso   1.000  C
  H58      1.0000 0.28720  0.10740  0.66010  Biso   1.000  H
  C88      1.0000 0.29040  0.03140  0.54840  Biso   1.000  C
  H59      1.0000 0.22960  0.98600  0.55340  Biso   1.000  H
  C89      1.0000 0.34387  0.02462  0.47801  Biso   1.000  C
  H60      1.0000 0.32090  0.97580  0.43520  Biso   1.000  H
  C90      1.0000 0.43375  0.09435  0.47421  Biso   1.000  C
  O11      1.0000 0.35327  0.57651  0.18060  Biso   1.000  O
  N21      1.0000 0.60358  0.49380  0.41394  Biso   1.000  N
  N22      1.0000 0.66669  0.43844  0.51593  Biso   1.000  N
  C91      1.0000 0.50595  0.54162  0.33254  Biso   1.000  C
  H61      1.0000 0.50560  0.57270  0.38780  Biso   1.000  H
  C92      1.0000 0.55326  0.49527  0.33107  Biso   1.000  C
  C93      1.0000 0.61094  0.42124  0.44307  Biso   1.000  C
  H62      1.0000 0.57920  0.36430  0.41390  Biso   1.000  H
  C94      1.0000 0.69947  0.53045  0.53803  Biso   1.000  C
  C95      1.0000 0.76055  0.58596  0.60852  Biso   1.000  C
  H63      1.0000 0.78720  0.56360  0.65110  Biso   1.000  H
  C96      1.0000 0.78006  0.67466  0.61310  Biso   1.000  C
  H64      1.0000 0.82020  0.71280  0.66010  Biso   1.000  H
  C97      1.0000 0.74100  0.70960  0.54840  Biso   1.000  C
  H65      1.0000 0.75640  0.77040  0.55340  Biso   1.000  H
  C98      1.0000 0.68075  0.65613  0.47801  Biso   1.000  C
  H66      1.0000 0.65490  0.67910  0.43520  Biso   1.000  H
  C99      1.0000 0.66060  0.56625  0.47421  Biso   1.000  C
  O12      1.0000 0.22324  0.64673  0.18060  Biso   1.000  O
  N23      1.0000 0.89022  0.39642  0.41394  Biso   1.000  N
  N24      1.0000 0.77175  0.33331  0.51593  Biso   1.000  N
  C100     1.0000 0.03567  0.49405  0.33254  Biso   1.000  C
  H67      1.0000 0.06710  0.49440  0.38780  Biso   1.000  H
  C101     1.0000 0.94201  0.44674  0.33107  Biso   1.000  C
  C102     1.0000 0.81030  0.38906  0.44307  Biso   1.000  C
  H68      1.0000 0.78510  0.42080  0.41390  Biso   1.000  H
  C103     1.0000 0.83098  0.30053  0.53803  Biso   1.000  C
  C104     1.0000 0.82541  0.23945  0.60852  Biso   1.000  C
  H69      1.0000 0.77640  0.21280  0.65110  Biso   1.000  H
  C105     1.0000 0.89460  0.21994  0.61310  Biso   1.000  C
  H70      1.0000 0.89260  0.17980  0.66010  Biso   1.000  H
  C106     1.0000 0.96860  0.25900  0.54840  Biso   1.000  C
  H71      1.0000 0.01400  0.24360  0.55340  Biso   1.000  H
  C107     1.0000 0.97538  0.31925  0.47801  Biso   1.000  C
  H72      1.0000 0.02420  0.34510  0.43520  Biso   1.000  H
  C108     1.0000 0.90565  0.33940  0.47421  Biso   1.000  C
  Ni1      1.0000 0.66667  0.33333  0.60159  Biso   1.000  Ni
  Ni2      1.0000 0.66667  0.33333  0.89841  Biso   1.000  Ni
  Ni3      1.0000 0.33333  0.66667  0.39841  Biso   1.000  Ni
  Ni4      1.0000 0.33333  0.66667  0.10159  Biso   1.000  Ni
  C109     1.0000 0.81497  0.40749  0.75000  Biso   1.000  C
  C110     1.0000 0.91714  0.45857  0.75000  Biso   1.000  C
  C111     1.0000 0.10640  0.55320  0.75000  Biso   1.000  C
  H73      1.0000 0.16980  0.58490  0.75000  Biso   1.000  H
  C112     1.0000 0.59252  0.40749  0.75000  Biso   1.000  C
  C113     1.0000 0.54143  0.45857  0.75000  Biso   1.000  C
  C114     1.0000 0.44680  0.55320  0.75000  Biso   1.000  C
  H74      1.0000 0.41510  0.58490  0.75000  Biso   1.000  H
  C115     1.0000 0.59251  0.18503  0.75000  Biso   1.000  C
  C116     1.0000 0.54143  0.08286  0.75000  Biso   1.000  C
  C117     1.0000 0.44680  0.89360  0.75000  Biso   1.000  C
  H75      1.0000 0.41510  0.83020  0.75000  Biso   1.000  H
  C118     1.0000 0.18503  0.59252  0.25000  Biso   1.000  C
  C119     1.0000 0.08286  0.54143  0.25000  Biso   1.000  C
  C120     1.0000 0.89360  0.44680  0.25000  Biso   1.000  C
  H76      1.0000 0.83020  0.41510  0.25000  Biso   1.000  H
  C121     1.0000 0.40748  0.59251  0.25000  Biso   1.000  C
  C122     1.0000 0.45857  0.54143  0.25000  Biso   1.000  C
  C123     1.0000 0.55320  0.44680  0.25000  Biso   1.000  C
  H77      1.0000 0.58490  0.41510  0.25000  Biso   1.000  H
  C124     1.0000 0.40749  0.81497  0.25000  Biso   1.000  C
  C125     1.0000 0.45857  0.91714  0.25000  Biso   1.000  C
  C126     1.0000 0.55320  0.10640  0.25000  Biso   1.000  C
  H78      1.0000 0.58490  0.16980  0.25000  Biso   1.000  H
