data_image0
_cell_length_a       17.03
_cell_length_b       17.03
_cell_length_c       13.908
_cell_angle_alpha    90
_cell_angle_beta     90
_cell_angle_gamma    120

_symmetry_space_group_name_H-M    "P 1"
_symmetry_int_tables_number       1

loop_
  _symmetry_equiv_pos_as_xyz
  'x, y, z'

loop_
  _atom_site_label
  _atom_site_occupancy
  _atom_site_fract_x
  _atom_site_fract_y
  _atom_site_fract_z
  _atom_site_thermal_displace_type
  _atom_site_B_iso_or_equiv
  _atom_site_type_symbol
  O1       1.0000 0.77800  0.35360  0.68089  Biso   1.000  O
  N1       1.0000 0.10850  0.60310  0.91320  Biso   1.000  N
  N2       1.0000 0.22740  0.66720  0.01480  Biso   1.000  N
  C1       1.0000 0.96450  0.50660  0.83150  Biso   1.000  C
  H1       1.0000 0.93300  0.50690  0.88600  Biso   1.000  H
  C2       1.0000 0.05790  0.55330  0.83030  Biso   1.000  C
  C3       1.0000 0.18810  0.60960  0.94180  Biso   1.000  C
  H2       1.0000 0.21250  0.57720  0.91340  Biso   1.000  H
  C4       1.0000 0.16850  0.69990  0.03460  Biso   1.000  C
  C5       1.0000 0.17570  0.76190  0.10430  Biso   1.000  C
  H3       1.0000 0.22430  0.78780  0.14690  Biso   1.000  H
  C6       1.0000 0.10770  0.78290  0.10730  Biso   1.000  C
  H4       1.0000 0.11020  0.82370  0.15340  Biso   1.000  H
  C7       1.0000 0.03500  0.74480  0.04310  Biso   1.000  C
  H5       1.0000 0.99060  0.76130  0.04720  Biso   1.000  H
  C8       1.0000 0.02700  0.68340  0.97360  Biso   1.000  C
  H6       1.0000 0.97890  0.65860  0.93040  Biso   1.000  H
  C9       1.0000 0.09420  0.66080  0.97160  Biso   1.000  C
  O2       1.0000 0.64640  0.42440  0.68089  Biso   1.000  O
  N3       1.0000 0.39690  0.50540  0.91320  Biso   1.000  N
  N4       1.0000 0.33280  0.56020  0.01480  Biso   1.000  N
  C10      1.0000 0.49340  0.45790  0.83150  Biso   1.000  C
  H7       1.0000 0.49310  0.42610  0.88600  Biso   1.000  H
  C11      1.0000 0.44670  0.50460  0.83030  Biso   1.000  C
  C12      1.0000 0.39040  0.57850  0.94180  Biso   1.000  C
  H8       1.0000 0.42280  0.63530  0.91340  Biso   1.000  H
  C13      1.0000 0.30010  0.46860  0.03460  Biso   1.000  C
  C14      1.0000 0.23810  0.41380  0.10430  Biso   1.000  C
  H9       1.0000 0.21220  0.43650  0.14690  Biso   1.000  H
  C15      1.0000 0.21710  0.32480  0.10730  Biso   1.000  C
  H10      1.0000 0.17630  0.28650  0.15340  Biso   1.000  H
  C16      1.0000 0.25520  0.29020  0.04310  Biso   1.000  C
  H11      1.0000 0.23870  0.22930  0.04720  Biso   1.000  H
  C17      1.0000 0.31660  0.34360  0.97360  Biso   1.000  C
  H12      1.0000 0.34140  0.32030  0.93040  Biso   1.000  H
  C18      1.0000 0.33920  0.43340  0.97160  Biso   1.000  C
  O3       1.0000 0.57560  0.22200  0.68089  Biso   1.000  O
  N5       1.0000 0.49460  0.89150  0.91320  Biso   1.000  N
  N6       1.0000 0.43980  0.77260  0.01480  Biso   1.000  N
  C19      1.0000 0.54210  0.03550  0.83150  Biso   1.000  C
  H13      1.0000 0.57390  0.06700  0.88600  Biso   1.000  H
  C20      1.0000 0.49540  0.94210  0.83030  Biso   1.000  C
  C21      1.0000 0.42150  0.81190  0.94180  Biso   1.000  C
  H14      1.0000 0.36470  0.78750  0.91340  Biso   1.000  H
  C22      1.0000 0.53140  0.83150  0.03460  Biso   1.000  C
  C23      1.0000 0.58620  0.82430  0.10430  Biso   1.000  C
  H15      1.0000 0.56350  0.77570  0.14690  Biso   1.000  H
  C24      1.0000 0.67520  0.89230  0.10730  Biso   1.000  C
  H16      1.0000 0.71350  0.88980  0.15340  Biso   1.000  H
  C25      1.0000 0.70980  0.96500  0.04310  Biso   1.000  C
  H17      1.0000 0.77070  0.00940  0.04720  Biso   1.000  H
  C26      1.0000 0.65640  0.97300  0.97360  Biso   1.000  C
  H18      1.0000 0.67970  0.02110  0.93040  Biso   1.000  H
  C27      1.0000 0.56660  0.90580  0.97160  Biso   1.000  C
  O4       1.0000 0.64640  0.22200  0.81911  Biso   1.000  O
  N7       1.0000 0.39690  0.89150  0.58680  Biso   1.000  N
  N8       1.0000 0.33280  0.77260  0.48520  Biso   1.000  N
  C28      1.0000 0.49340  0.03550  0.66850  Biso   1.000  C
  H19      1.0000 0.49310  0.06700  0.61400  Biso   1.000  H
  C29      1.0000 0.44670  0.94210  0.66970  Biso   1.000  C
  C30      1.0000 0.39040  0.81190  0.55820  Biso   1.000  C
  H20      1.0000 0.42280  0.78750  0.58660  Biso   1.000  H
  C31      1.0000 0.30010  0.83150  0.46540  Biso   1.000  C
  C32      1.0000 0.23810  0.82430  0.39570  Biso   1.000  C
  H21      1.0000 0.21220  0.77570  0.35310  Biso   1.000  H
  C33      1.0000 0.21710  0.89230  0.39270  Biso   1.000  C
  H22      1.0000 0.17630  0.88980  0.34660  Biso   1.000  H
  C34      1.0000 0.25520  0.96500  0.45690  Biso   1.000  C
  H23      1.0000 0.23870  0.00940  0.45280  Biso   1.000  H
  C35      1.0000 0.31660  0.97300  0.52640  Biso   1.000  C
  H24      1.0000 0.34140  0.02110  0.56960  Biso   1.000  H
  C36      1.0000 0.33920  0.90580  0.52840  Biso   1.000  C
  O5       1.0000 0.57560  0.35360  0.81911  Biso   1.000  O
  N9       1.0000 0.49460  0.60310  0.58680  Biso   1.000  N
  N10      1.0000 0.43980  0.66720  0.48520  Biso   1.000  N
  C37      1.0000 0.54210  0.50660  0.66850  Biso   1.000  C
  H25      1.0000 0.57390  0.50690  0.61400  Biso   1.000  H
  C38      1.0000 0.49540  0.55330  0.66970  Biso   1.000  C
  C39      1.0000 0.42150  0.60960  0.55820  Biso   1.000  C
  H26      1.0000 0.36470  0.57720  0.58660  Biso   1.000  H
  C40      1.0000 0.53140  0.69990  0.46540  Biso   1.000  C
  C41      1.0000 0.58620  0.76190  0.39570  Biso   1.000  C
  H27      1.0000 0.56350  0.78780  0.35310  Biso   1.000  H
  C42      1.0000 0.67520  0.78290  0.39270  Biso   1.000  C
  H28      1.0000 0.71350  0.82370  0.34660  Biso   1.000  H
  C43      1.0000 0.70980  0.74480  0.45690  Biso   1.000  C
  H29      1.0000 0.77070  0.76130  0.45280  Biso   1.000  H
  C44      1.0000 0.65640  0.68340  0.52640  Biso   1.000  C
  H30      1.0000 0.67970  0.65860  0.56960  Biso   1.000  H
  C45      1.0000 0.56660  0.66080  0.52840  Biso   1.000  C
  O6       1.0000 0.77800  0.42440  0.81911  Biso   1.000  O
  N11      1.0000 0.10850  0.50540  0.58680  Biso   1.000  N
  N12      1.0000 0.22740  0.56020  0.48520  Biso   1.000  N
  C46      1.0000 0.96450  0.45790  0.66850  Biso   1.000  C
  H31      1.0000 0.93300  0.42610  0.61400  Biso   1.000  H
  C47      1.0000 0.05790  0.50460  0.66970  Biso   1.000  C
  C48      1.0000 0.18810  0.57850  0.55820  Biso   1.000  C
  H32      1.0000 0.21250  0.63530  0.58660  Biso   1.000  H
  C49      1.0000 0.16850  0.46860  0.46540  Biso   1.000  C
  C50      1.0000 0.17570  0.41380  0.39570  Biso   1.000  C
  H33      1.0000 0.22430  0.43650  0.35310  Biso   1.000  H
  C51      1.0000 0.10770  0.32480  0.39270  Biso   1.000  C
  H34      1.0000 0.11020  0.28650  0.34660  Biso   1.000  H
  C52      1.0000 0.03500  0.29020  0.45690  Biso   1.000  C
  H35      1.0000 0.99060  0.22930  0.45280  Biso   1.000  H
  C53      1.0000 0.02700  0.34360  0.52640  Biso   1.000  C
  H36      1.0000 0.97890  0.32030  0.56960  Biso   1.000  H
  C54      1.0000 0.09420  0.43340  0.52840  Biso   1.000  C
  O7       1.0000 0.22200  0.64640  0.31911  Biso   1.000  O
  N13      1.0000 0.89150  0.39690  0.08680  Biso   1.000  N
  N14      1.0000 0.77260  0.33280  0.98520  Biso   1.000  N
  C55      1.0000 0.03550  0.49340  0.16850  Biso   1.000  C
  H37      1.0000 0.06700  0.49310  0.11400  Biso   1.000  H
  C56      1.0000 0.94210  0.44670  0.16970  Biso   1.000  C
  C57      1.0000 0.81190  0.39040  0.05820  Biso   1.000  C
  H38      1.0000 0.78750  0.42280  0.08660  Biso   1.000  H
  C58      1.0000 0.83150  0.30010  0.96540  Biso   1.000  C
  C59      1.0000 0.82430  0.23810  0.89570  Biso   1.000  C
  H39      1.0000 0.77570  0.21220  0.85310  Biso   1.000  H
  C60      1.0000 0.89230  0.21710  0.89270  Biso   1.000  C
  H40      1.0000 0.88980  0.17630  0.84660  Biso   1.000  H
  C61      1.0000 0.96500  0.25520  0.95690  Biso   1.000  C
  H41      1.0000 0.00940  0.23870  0.95280  Biso   1.000  H
  C62      1.0000 0.97300  0.31660  0.02640  Biso   1.000  C
  H42      1.0000 0.02110  0.34140  0.06960  Biso   1.000  H
  C63      1.0000 0.90580  0.33920  0.02840  Biso   1.000  C
  O8       1.0000 0.35360  0.57560  0.31911  Biso   1.000  O
  N15      1.0000 0.60310  0.49460  0.08680  Biso   1.000  N
  N16      1.0000 0.66720  0.43980  0.98520  Biso   1.000  N
  C64      1.0000 0.50660  0.54210  0.16850  Biso   1.000  C
  H43      1.0000 0.50690  0.57390  0.11400  Biso   1.000  H
  C65      1.0000 0.55330  0.49540  0.16970  Biso   1.000  C
  C66      1.0000 0.60960  0.42150  0.05820  Biso   1.000  C
  H44      1.0000 0.57720  0.36470  0.08660  Biso   1.000  H
  C67      1.0000 0.69990  0.53140  0.96540  Biso   1.000  C
  C68      1.0000 0.76190  0.58620  0.89570  Biso   1.000  C
  H45      1.0000 0.78780  0.56350  0.85310  Biso   1.000  H
  C69      1.0000 0.78290  0.67520  0.89270  Biso   1.000  C
  H46      1.0000 0.82370  0.71350  0.84660  Biso   1.000  H
  C70      1.0000 0.74480  0.70980  0.95690  Biso   1.000  C
  H47      1.0000 0.76130  0.77070  0.95280  Biso   1.000  H
  C71      1.0000 0.68340  0.65640  0.02640  Biso   1.000  C
  H48      1.0000 0.65860  0.67970  0.06960  Biso   1.000  H
  C72      1.0000 0.66080  0.56660  0.02840  Biso   1.000  C
  O9       1.0000 0.42440  0.77800  0.31911  Biso   1.000  O
  N17      1.0000 0.50540  0.10850  0.08680  Biso   1.000  N
  N18      1.0000 0.56020  0.22740  0.98520  Biso   1.000  N
  C73      1.0000 0.45790  0.96450  0.16850  Biso   1.000  C
  H49      1.0000 0.42610  0.93300  0.11400  Biso   1.000  H
  C74      1.0000 0.50460  0.05790  0.16970  Biso   1.000  C
  C75      1.0000 0.57850  0.18810  0.05820  Biso   1.000  C
  H50      1.0000 0.63530  0.21250  0.08660  Biso   1.000  H
  C76      1.0000 0.46860  0.16850  0.96540  Biso   1.000  C
  C77      1.0000 0.41380  0.17570  0.89570  Biso   1.000  C
  H51      1.0000 0.43650  0.22430  0.85310  Biso   1.000  H
  C78      1.0000 0.32480  0.10770  0.89270  Biso   1.000  C
  H52      1.0000 0.28650  0.11020  0.84660  Biso   1.000  H
  C79      1.0000 0.29020  0.03500  0.95690  Biso   1.000  C
  H53      1.0000 0.22930  0.99060  0.95280  Biso   1.000  H
  C80      1.0000 0.34360  0.02700  0.02640  Biso   1.000  C
  H54      1.0000 0.32030  0.97890  0.06960  Biso   1.000  H
  C81      1.0000 0.43340  0.09420  0.02840  Biso   1.000  C
  O10      1.0000 0.35360  0.77800  0.18089  Biso   1.000  O
  N19      1.0000 0.60310  0.10850  0.41320  Biso   1.000  N
  N20      1.0000 0.66720  0.22740  0.51480  Biso   1.000  N
  C82      1.0000 0.50660  0.96450  0.33150  Biso   1.000  C
  H55      1.0000 0.50690  0.93300  0.38600  Biso   1.000  H
  C83      1.0000 0.55330  0.05790  0.33030  Biso   1.000  C
  C84      1.0000 0.60960  0.18810  0.44180  Biso   1.000  C
  H56      1.0000 0.57720  0.21250  0.41340  Biso   1.000  H
  C85      1.0000 0.69990  0.16850  0.53460  Biso   1.000  C
  C86      1.0000 0.76190  0.17570  0.60430  Biso   1.000  C
  H57      1.0000 0.78780  0.22430  0.64690  Biso   1.000  H
  C87      1.0000 0.78290  0.10770  0.60730  Biso   1.000  C
  H58      1.0000 0.82370  0.11020  0.65340  Biso   1.000  H
  C88      1.0000 0.74480  0.03500  0.54310  Biso   1.000  C
  H59      1.0000 0.76130  0.99060  0.54720  Biso   1.000  H
  C89      1.0000 0.68340  0.02700  0.47360  Biso   1.000  C
  H60      1.0000 0.65860  0.97890  0.43040  Biso   1.000  H
  C90      1.0000 0.66080  0.09420  0.47160  Biso   1.000  C
  O11      1.0000 0.42440  0.64640  0.18089  Biso   1.000  O
  N21      1.0000 0.50540  0.39690  0.41320  Biso   1.000  N
  N22      1.0000 0.56020  0.33280  0.51480  Biso   1.000  N
  C91      1.0000 0.45790  0.49340  0.33150  Biso   1.000  C
  H61      1.0000 0.42610  0.49310  0.38600  Biso   1.000  H
  C92      1.0000 0.50460  0.44670  0.33030  Biso   1.000  C
  C93      1.0000 0.57850  0.39040  0.44180  Biso   1.000  C
  H62      1.0000 0.63530  0.42280  0.41340  Biso   1.000  H
  C94      1.0000 0.46860  0.30010  0.53460  Biso   1.000  C
  C95      1.0000 0.41380  0.23810  0.60430  Biso   1.000  C
  H63      1.0000 0.43650  0.21220  0.64690  Biso   1.000  H
  C96      1.0000 0.32480  0.21710  0.60730  Biso   1.000  C
  H64      1.0000 0.28650  0.17630  0.65340  Biso   1.000  H
  C97      1.0000 0.29020  0.25520  0.54310  Biso   1.000  C
  H65      1.0000 0.22930  0.23870  0.54720  Biso   1.000  H
  C98      1.0000 0.34360  0.31660  0.47360  Biso   1.000  C
  H66      1.0000 0.32030  0.34140  0.43040  Biso   1.000  H
  C99      1.0000 0.43340  0.33920  0.47160  Biso   1.000  C
  O12      1.0000 0.22200  0.57560  0.18089  Biso   1.000  O
  N23      1.0000 0.89150  0.49460  0.41320  Biso   1.000  N
  N24      1.0000 0.77260  0.43980  0.51480  Biso   1.000  N
  C100     1.0000 0.03550  0.54210  0.33150  Biso   1.000  C
  H67      1.0000 0.06700  0.57390  0.38600  Biso   1.000  H
  C101     1.0000 0.94210  0.49540  0.33030  Biso   1.000  C
  C102     1.0000 0.81190  0.42150  0.44180  Biso   1.000  C
  H68      1.0000 0.78750  0.36470  0.41340  Biso   1.000  H
  C103     1.0000 0.83150  0.53140  0.53460  Biso   1.000  C
  C104     1.0000 0.82430  0.58620  0.60430  Biso   1.000  C
  H69      1.0000 0.77570  0.56350  0.64690  Biso   1.000  H
  C105     1.0000 0.89230  0.67520  0.60730  Biso   1.000  C
  H70      1.0000 0.88980  0.71350  0.65340  Biso   1.000  H
  C106     1.0000 0.96500  0.70980  0.54310  Biso   1.000  C
  H71      1.0000 0.00940  0.77070  0.54720  Biso   1.000  H
  C107     1.0000 0.97300  0.65640  0.47360  Biso   1.000  C
  H72      1.0000 0.02110  0.67970  0.43040  Biso   1.000  H
  C108     1.0000 0.90580  0.56660  0.47160  Biso   1.000  C
  Co1      1.0000 0.66667  0.33333  0.60202  Biso   1.000  Co
  Co2      1.0000 0.66667  0.33333  0.89798  Biso   1.000  Co
  Co3      1.0000 0.33333  0.66667  0.39798  Biso   1.000  Co
  Co4      1.0000 0.33333  0.66667  0.10202  Biso   1.000  Co
  C109     1.0000 0.81560  0.40780  0.75000  Biso   1.000  C
  C110     1.0000 0.91820  0.45910  0.75000  Biso   1.000  C
  C111     1.0000 0.10500  0.55250  0.75000  Biso   1.000  C
  H73      1.0000 0.16800  0.58400  0.75000  Biso   1.000  H
  C112     1.0000 0.59220  0.40780  0.75000  Biso   1.000  C
  C113     1.0000 0.54090  0.45910  0.75000  Biso   1.000  C
  C114     1.0000 0.44750  0.55250  0.75000  Biso   1.000  C
  H74      1.0000 0.41600  0.58400  0.75000  Biso   1.000  H
  C115     1.0000 0.59220  0.18440  0.75000  Biso   1.000  C
  C116     1.0000 0.54090  0.08180  0.75000  Biso   1.000  C
  C117     1.0000 0.44750  0.89500  0.75000  Biso   1.000  C
  H75      1.0000 0.41600  0.83200  0.75000  Biso   1.000  H
  C118     1.0000 0.18440  0.59220  0.25000  Biso   1.000  C
  C119     1.0000 0.08180  0.54090  0.25000  Biso   1.000  C
  C120     1.0000 0.89500  0.44750  0.25000  Biso   1.000  C
  H76      1.0000 0.83200  0.41600  0.25000  Biso   1.000  H
  C121     1.0000 0.40780  0.59220  0.25000  Biso   1.000  C
  C122     1.0000 0.45910  0.54090  0.25000  Biso   1.000  C
  C123     1.0000 0.55250  0.44750  0.25000  Biso   1.000  C
  H77      1.0000 0.58400  0.41600  0.25000  Biso   1.000  H
  C124     1.0000 0.40780  0.81560  0.25000  Biso   1.000  C
  C125     1.0000 0.45910  0.91820  0.25000  Biso   1.000  C
  C126     1.0000 0.55250  0.10500  0.25000  Biso   1.000  C
  H78      1.0000 0.58400  0.16800  0.25000  Biso   1.000  H
