data_image0
_cell_length_a       17.088
_cell_length_b       17.088
_cell_length_c       13.892
_cell_angle_alpha    90
_cell_angle_beta     90
_cell_angle_gamma    120

_symmetry_space_group_name_H-M    "P 1"
_symmetry_int_tables_number       1

loop_
  _symmetry_equiv_pos_as_xyz
  'x, y, z'

loop_
  _atom_site_label
  _atom_site_occupancy
  _atom_site_fract_x
  _atom_site_fract_y
  _atom_site_fract_z
  _atom_site_thermal_displace_type
  _atom_site_B_iso_or_equiv
  _atom_site_type_symbol
  O1       1.0000 0.64606  0.42389  0.18110  Biso   1.000  O
  N1       1.0000 0.39744  0.50614  0.41327  Biso   1.000  N
  N2       1.0000 0.33374  0.56034  0.51429  Biso   1.000  N
  C1       1.0000 0.49410  0.45880  0.33182  Biso   1.000  C
  H1       1.0000 0.49440  0.42790  0.38680  Biso   1.000  H
  C2       1.0000 0.44740  0.50460  0.33072  Biso   1.000  C
  C3       1.0000 0.39060  0.57830  0.44247  Biso   1.000  C
  H2       1.0000 0.42310  0.63510  0.41440  Biso   1.000  H
  C4       1.0000 0.30150  0.46960  0.53488  Biso   1.000  C
  C5       1.0000 0.23890  0.41390  0.60370  Biso   1.000  C
  H3       1.0000 0.21210  0.43600  0.64570  Biso   1.000  H
  C6       1.0000 0.21840  0.32570  0.60700  Biso   1.000  C
  H4       1.0000 0.17740  0.28760  0.65290  Biso   1.000  H
  C7       1.0000 0.25720  0.29080  0.54320  Biso   1.000  C
  H5       1.0000 0.24110  0.23020  0.54740  Biso   1.000  H
  C8       1.0000 0.31870  0.34470  0.47450  Biso   1.000  C
  H6       1.0000 0.34460  0.32210  0.43200  Biso   1.000  H
  C9       1.0000 0.34000  0.43390  0.47197  Biso   1.000  C
  O2       1.0000 0.57611  0.22217  0.18110  Biso   1.000  O
  N3       1.0000 0.49386  0.89130  0.41327  Biso   1.000  N
  N4       1.0000 0.43966  0.77340  0.51429  Biso   1.000  N
  C10      1.0000 0.54120  0.03530  0.33182  Biso   1.000  C
  H7       1.0000 0.57210  0.06650  0.38680  Biso   1.000  H
  C11      1.0000 0.49540  0.94280  0.33072  Biso   1.000  C
  C12      1.0000 0.42170  0.81230  0.44247  Biso   1.000  C
  H8       1.0000 0.36490  0.78800  0.41440  Biso   1.000  H
  C13      1.0000 0.53040  0.83190  0.53488  Biso   1.000  C
  C14      1.0000 0.58610  0.82500  0.60370  Biso   1.000  C
  H9       1.0000 0.56400  0.77610  0.64570  Biso   1.000  H
  C15      1.0000 0.67430  0.89270  0.60700  Biso   1.000  C
  H10      1.0000 0.71240  0.88980  0.65290  Biso   1.000  H
  C16      1.0000 0.70920  0.96640  0.54320  Biso   1.000  C
  H11      1.0000 0.76980  0.01090  0.54740  Biso   1.000  H
  C17      1.0000 0.65530  0.97400  0.47450  Biso   1.000  C
  H12      1.0000 0.67790  0.02250  0.43200  Biso   1.000  H
  C18      1.0000 0.56610  0.90610  0.47197  Biso   1.000  C
  O3       1.0000 0.77783  0.35394  0.18110  Biso   1.000  O
  N5       1.0000 0.10870  0.60256  0.41327  Biso   1.000  N
  N6       1.0000 0.22660  0.66626  0.51429  Biso   1.000  N
  C19      1.0000 0.96470  0.50590  0.33182  Biso   1.000  C
  H13      1.0000 0.93350  0.50560  0.38680  Biso   1.000  H
  C20      1.0000 0.05720  0.55260  0.33072  Biso   1.000  C
  C21      1.0000 0.18770  0.60940  0.44247  Biso   1.000  C
  H14      1.0000 0.21200  0.57690  0.41440  Biso   1.000  H
  C22      1.0000 0.16810  0.69850  0.53488  Biso   1.000  C
  C23      1.0000 0.17500  0.76110  0.60370  Biso   1.000  C
  H15      1.0000 0.22390  0.78790  0.64570  Biso   1.000  H
  C24      1.0000 0.10730  0.78160  0.60700  Biso   1.000  C
  H16      1.0000 0.11020  0.82260  0.65290  Biso   1.000  H
  C25      1.0000 0.03360  0.74280  0.54320  Biso   1.000  C
  H17      1.0000 0.98910  0.75890  0.54740  Biso   1.000  H
  C26      1.0000 0.02600  0.68130  0.47450  Biso   1.000  C
  H18      1.0000 0.97750  0.65540  0.43200  Biso   1.000  H
  C27      1.0000 0.09390  0.66000  0.47197  Biso   1.000  C
  O4       1.0000 0.57611  0.35394  0.31890  Biso   1.000  O
  N7       1.0000 0.49386  0.60256  0.08673  Biso   1.000  N
  N8       1.0000 0.43966  0.66626  0.98571  Biso   1.000  N
  C28      1.0000 0.54120  0.50590  0.16818  Biso   1.000  C
  H19      1.0000 0.57210  0.50560  0.11320  Biso   1.000  H
  C29      1.0000 0.49540  0.55260  0.16928  Biso   1.000  C
  C30      1.0000 0.42170  0.60940  0.05753  Biso   1.000  C
  H20      1.0000 0.36490  0.57690  0.08560  Biso   1.000  H
  C31      1.0000 0.53040  0.69850  0.96512  Biso   1.000  C
  C32      1.0000 0.58610  0.76110  0.89630  Biso   1.000  C
  H21      1.0000 0.56400  0.78790  0.85430  Biso   1.000  H
  C33      1.0000 0.67430  0.78160  0.89300  Biso   1.000  C
  H22      1.0000 0.71240  0.82260  0.84710  Biso   1.000  H
  C34      1.0000 0.70920  0.74280  0.95680  Biso   1.000  C
  H23      1.0000 0.76980  0.75890  0.95260  Biso   1.000  H
  C35      1.0000 0.65530  0.68130  0.02550  Biso   1.000  C
  H24      1.0000 0.67790  0.65540  0.06800  Biso   1.000  H
  C36      1.0000 0.56610  0.66000  0.02803  Biso   1.000  C
  O5       1.0000 0.77783  0.42389  0.31890  Biso   1.000  O
  N9       1.0000 0.10870  0.50614  0.08673  Biso   1.000  N
  N10      1.0000 0.22660  0.56034  0.98571  Biso   1.000  N
  C37      1.0000 0.96470  0.45880  0.16818  Biso   1.000  C
  H25      1.0000 0.93350  0.42790  0.11320  Biso   1.000  H
  C38      1.0000 0.05720  0.50460  0.16928  Biso   1.000  C
  C39      1.0000 0.18770  0.57830  0.05753  Biso   1.000  C
  H26      1.0000 0.21200  0.63510  0.08560  Biso   1.000  H
  C40      1.0000 0.16810  0.46960  0.96512  Biso   1.000  C
  C41      1.0000 0.17500  0.41390  0.89630  Biso   1.000  C
  H27      1.0000 0.22390  0.43600  0.85430  Biso   1.000  H
  C42      1.0000 0.10730  0.32570  0.89300  Biso   1.000  C
  H28      1.0000 0.11020  0.28760  0.84710  Biso   1.000  H
  C43      1.0000 0.03360  0.29080  0.95680  Biso   1.000  C
  H29      1.0000 0.98910  0.23020  0.95260  Biso   1.000  H
  C44      1.0000 0.02600  0.34470  0.02550  Biso   1.000  C
  H30      1.0000 0.97750  0.32210  0.06800  Biso   1.000  H
  C45      1.0000 0.09390  0.43390  0.02803  Biso   1.000  C
  O6       1.0000 0.64606  0.22217  0.31890  Biso   1.000  O
  N11      1.0000 0.39744  0.89130  0.08673  Biso   1.000  N
  N12      1.0000 0.33374  0.77340  0.98571  Biso   1.000  N
  C46      1.0000 0.49410  0.03530  0.16818  Biso   1.000  C
  H31      1.0000 0.49440  0.06650  0.11320  Biso   1.000  H
  C47      1.0000 0.44740  0.94280  0.16928  Biso   1.000  C
  C48      1.0000 0.39060  0.81230  0.05753  Biso   1.000  C
  H32      1.0000 0.42310  0.78800  0.08560  Biso   1.000  H
  C49      1.0000 0.30150  0.83190  0.96512  Biso   1.000  C
  C50      1.0000 0.23890  0.82500  0.89630  Biso   1.000  C
  H33      1.0000 0.21210  0.77610  0.85430  Biso   1.000  H
  C51      1.0000 0.21840  0.89270  0.89300  Biso   1.000  C
  H34      1.0000 0.17740  0.88980  0.84710  Biso   1.000  H
  C52      1.0000 0.25720  0.96640  0.95680  Biso   1.000  C
  H35      1.0000 0.24110  0.01090  0.95260  Biso   1.000  H
  C53      1.0000 0.31870  0.97400  0.02550  Biso   1.000  C
  H36      1.0000 0.34460  0.02250  0.06800  Biso   1.000  H
  C54      1.0000 0.34000  0.90610  0.02803  Biso   1.000  C
  O7       1.0000 0.35394  0.57611  0.81890  Biso   1.000  O
  N13      1.0000 0.60256  0.49386  0.58673  Biso   1.000  N
  N14      1.0000 0.66626  0.43966  0.48571  Biso   1.000  N
  C55      1.0000 0.50590  0.54120  0.66818  Biso   1.000  C
  H37      1.0000 0.50560  0.57210  0.61320  Biso   1.000  H
  C56      1.0000 0.55260  0.49540  0.66928  Biso   1.000  C
  C57      1.0000 0.60940  0.42170  0.55753  Biso   1.000  C
  H38      1.0000 0.57690  0.36490  0.58560  Biso   1.000  H
  C58      1.0000 0.69850  0.53040  0.46512  Biso   1.000  C
  C59      1.0000 0.76110  0.58610  0.39630  Biso   1.000  C
  H39      1.0000 0.78790  0.56400  0.35430  Biso   1.000  H
  C60      1.0000 0.78160  0.67430  0.39300  Biso   1.000  C
  H40      1.0000 0.82260  0.71240  0.34710  Biso   1.000  H
  C61      1.0000 0.74280  0.70920  0.45680  Biso   1.000  C
  H41      1.0000 0.75890  0.76980  0.45260  Biso   1.000  H
  C62      1.0000 0.68130  0.65530  0.52550  Biso   1.000  C
  H42      1.0000 0.65540  0.67790  0.56800  Biso   1.000  H
  C63      1.0000 0.66000  0.56610  0.52803  Biso   1.000  C
  O8       1.0000 0.42389  0.77783  0.81890  Biso   1.000  O
  N15      1.0000 0.50614  0.10870  0.58673  Biso   1.000  N
  N16      1.0000 0.56034  0.22660  0.48571  Biso   1.000  N
  C64      1.0000 0.45880  0.96470  0.66818  Biso   1.000  C
  H43      1.0000 0.42790  0.93350  0.61320  Biso   1.000  H
  C65      1.0000 0.50460  0.05720  0.66928  Biso   1.000  C
  C66      1.0000 0.57830  0.18770  0.55753  Biso   1.000  C
  H44      1.0000 0.63510  0.21200  0.58560  Biso   1.000  H
  C67      1.0000 0.46960  0.16810  0.46512  Biso   1.000  C
  C68      1.0000 0.41390  0.17500  0.39630  Biso   1.000  C
  H45      1.0000 0.43600  0.22390  0.35430  Biso   1.000  H
  C69      1.0000 0.32570  0.10730  0.39300  Biso   1.000  C
  H46      1.0000 0.28760  0.11020  0.34710  Biso   1.000  H
  C70      1.0000 0.29080  0.03360  0.45680  Biso   1.000  C
  H47      1.0000 0.23020  0.98910  0.45260  Biso   1.000  H
  C71      1.0000 0.34470  0.02600  0.52550  Biso   1.000  C
  H48      1.0000 0.32210  0.97750  0.56800  Biso   1.000  H
  C72      1.0000 0.43390  0.09390  0.52803  Biso   1.000  C
  O9       1.0000 0.22217  0.64606  0.81890  Biso   1.000  O
  N17      1.0000 0.89130  0.39744  0.58673  Biso   1.000  N
  N18      1.0000 0.77340  0.33374  0.48571  Biso   1.000  N
  C73      1.0000 0.03530  0.49410  0.66818  Biso   1.000  C
  H49      1.0000 0.06650  0.49440  0.61320  Biso   1.000  H
  C74      1.0000 0.94280  0.44740  0.66928  Biso   1.000  C
  C75      1.0000 0.81230  0.39060  0.55753  Biso   1.000  C
  H50      1.0000 0.78800  0.42310  0.58560  Biso   1.000  H
  C76      1.0000 0.83190  0.30150  0.46512  Biso   1.000  C
  C77      1.0000 0.82500  0.23890  0.39630  Biso   1.000  C
  H51      1.0000 0.77610  0.21210  0.35430  Biso   1.000  H
  C78      1.0000 0.89270  0.21840  0.39300  Biso   1.000  C
  H52      1.0000 0.88980  0.17740  0.34710  Biso   1.000  H
  C79      1.0000 0.96640  0.25720  0.45680  Biso   1.000  C
  H53      1.0000 0.01090  0.24110  0.45260  Biso   1.000  H
  C80      1.0000 0.97400  0.31870  0.52550  Biso   1.000  C
  H54      1.0000 0.02250  0.34460  0.56800  Biso   1.000  H
  C81      1.0000 0.90610  0.34000  0.52803  Biso   1.000  C
  O10      1.0000 0.42389  0.64606  0.68110  Biso   1.000  O
  N19      1.0000 0.50614  0.39744  0.91327  Biso   1.000  N
  N20      1.0000 0.56034  0.33374  0.01429  Biso   1.000  N
  C82      1.0000 0.45880  0.49410  0.83182  Biso   1.000  C
  H55      1.0000 0.42790  0.49440  0.88680  Biso   1.000  H
  C83      1.0000 0.50460  0.44740  0.83072  Biso   1.000  C
  C84      1.0000 0.57830  0.39060  0.94247  Biso   1.000  C
  H56      1.0000 0.63510  0.42310  0.91440  Biso   1.000  H
  C85      1.0000 0.46960  0.30150  0.03488  Biso   1.000  C
  C86      1.0000 0.41390  0.23890  0.10370  Biso   1.000  C
  H57      1.0000 0.43600  0.21210  0.14570  Biso   1.000  H
  C87      1.0000 0.32570  0.21840  0.10700  Biso   1.000  C
  H58      1.0000 0.28760  0.17740  0.15290  Biso   1.000  H
  C88      1.0000 0.29080  0.25720  0.04320  Biso   1.000  C
  H59      1.0000 0.23020  0.24110  0.04740  Biso   1.000  H
  C89      1.0000 0.34470  0.31870  0.97450  Biso   1.000  C
  H60      1.0000 0.32210  0.34460  0.93200  Biso   1.000  H
  C90      1.0000 0.43390  0.34000  0.97197  Biso   1.000  C
  O11      1.0000 0.22217  0.57611  0.68110  Biso   1.000  O
  N21      1.0000 0.89130  0.49386  0.91327  Biso   1.000  N
  N22      1.0000 0.77340  0.43966  0.01429  Biso   1.000  N
  C91      1.0000 0.03530  0.54120  0.83182  Biso   1.000  C
  H61      1.0000 0.06650  0.57210  0.88680  Biso   1.000  H
  C92      1.0000 0.94280  0.49540  0.83072  Biso   1.000  C
  C93      1.0000 0.81230  0.42170  0.94247  Biso   1.000  C
  H62      1.0000 0.78800  0.36490  0.91440  Biso   1.000  H
  C94      1.0000 0.83190  0.53040  0.03488  Biso   1.000  C
  C95      1.0000 0.82500  0.58610  0.10370  Biso   1.000  C
  H63      1.0000 0.77610  0.56400  0.14570  Biso   1.000  H
  C96      1.0000 0.89270  0.67430  0.10700  Biso   1.000  C
  H64      1.0000 0.88980  0.71240  0.15290  Biso   1.000  H
  C97      1.0000 0.96640  0.70920  0.04320  Biso   1.000  C
  H65      1.0000 0.01090  0.76980  0.04740  Biso   1.000  H
  C98      1.0000 0.97400  0.65530  0.97450  Biso   1.000  C
  H66      1.0000 0.02250  0.67790  0.93200  Biso   1.000  H
  C99      1.0000 0.90610  0.56610  0.97197  Biso   1.000  C
  O12      1.0000 0.35394  0.77783  0.68110  Biso   1.000  O
  N23      1.0000 0.60256  0.10870  0.91327  Biso   1.000  N
  N24      1.0000 0.66626  0.22660  0.01429  Biso   1.000  N
  C100     1.0000 0.50590  0.96470  0.83182  Biso   1.000  C
  H67      1.0000 0.50560  0.93350  0.88680  Biso   1.000  H
  C101     1.0000 0.55260  0.05720  0.83072  Biso   1.000  C
  C102     1.0000 0.60940  0.18770  0.94247  Biso   1.000  C
  H68      1.0000 0.57690  0.21200  0.91440  Biso   1.000  H
  C103     1.0000 0.69850  0.16810  0.03488  Biso   1.000  C
  C104     1.0000 0.76110  0.17500  0.10370  Biso   1.000  C
  H69      1.0000 0.78790  0.22390  0.14570  Biso   1.000  H
  C105     1.0000 0.78160  0.10730  0.10700  Biso   1.000  C
  H70      1.0000 0.82260  0.11020  0.15290  Biso   1.000  H
  C106     1.0000 0.74280  0.03360  0.04320  Biso   1.000  C
  H71      1.0000 0.75890  0.98910  0.04740  Biso   1.000  H
  C107     1.0000 0.68130  0.02600  0.97450  Biso   1.000  C
  H72      1.0000 0.65540  0.97750  0.93200  Biso   1.000  H
  C108     1.0000 0.66000  0.09390  0.97197  Biso   1.000  C
  Co1      1.0000 0.66667  0.33333  0.10186  Biso   1.000  Co
  Co2      1.0000 0.66667  0.33333  0.39814  Biso   1.000  Co
  Co3      1.0000 0.33333  0.66667  0.89814  Biso   1.000  Co
  Co4      1.0000 0.33333  0.66667  0.60186  Biso   1.000  Co
  C109     1.0000 0.59194  0.40806  0.25000  Biso   1.000  C
  C110     1.0000 0.54122  0.45878  0.25000  Biso   1.000  C
  C111     1.0000 0.44742  0.55258  0.25000  Biso   1.000  C
  H73      1.0000 0.41600  0.58400  0.25000  Biso   1.000  H
  C112     1.0000 0.59194  0.18388  0.25000  Biso   1.000  C
  C113     1.0000 0.54122  0.08244  0.25000  Biso   1.000  C
  C114     1.0000 0.44742  0.89484  0.25000  Biso   1.000  C
  H74      1.0000 0.41600  0.83200  0.25000  Biso   1.000  H
  C115     1.0000 0.81612  0.40806  0.25000  Biso   1.000  C
  C116     1.0000 0.91756  0.45878  0.25000  Biso   1.000  C
  C117     1.0000 0.10516  0.55258  0.25000  Biso   1.000  C
  H75      1.0000 0.16800  0.58400  0.25000  Biso   1.000  H
  C118     1.0000 0.40806  0.59194  0.75000  Biso   1.000  C
  C119     1.0000 0.45878  0.54122  0.75000  Biso   1.000  C
  C120     1.0000 0.55258  0.44742  0.75000  Biso   1.000  C
  H76      1.0000 0.58400  0.41600  0.75000  Biso   1.000  H
  C121     1.0000 0.40806  0.81612  0.75000  Biso   1.000  C
  C122     1.0000 0.45878  0.91756  0.75000  Biso   1.000  C
  C123     1.0000 0.55258  0.10516  0.75000  Biso   1.000  C
  H77      1.0000 0.58400  0.16800  0.75000  Biso   1.000  H
  C124     1.0000 0.18388  0.59194  0.75000  Biso   1.000  C
  C125     1.0000 0.08244  0.54122  0.75000  Biso   1.000  C
  C126     1.0000 0.89484  0.44742  0.75000  Biso   1.000  C
  H78      1.0000 0.83200  0.41600  0.75000  Biso   1.000  H
