data_image0
_cell_length_a       17.872
_cell_length_b       28.462
_cell_length_c       14.1464
_cell_angle_alpha    90
_cell_angle_beta     91.662
_cell_angle_gamma    90

_symmetry_space_group_name_H-M    "P 1"
_symmetry_int_tables_number       1

loop_
  _symmetry_equiv_pos_as_xyz
  'x, y, z'

loop_
  _atom_site_label
  _atom_site_occupancy
  _atom_site_fract_x
  _atom_site_fract_y
  _atom_site_fract_z
  _atom_site_thermal_displace_type
  _atom_site_B_iso_or_equiv
  _atom_site_type_symbol
  Mn1      1.0000 0.00218  0.17519  0.60456  Biso   1.000  Mn
  O1       1.0000 0.03466  0.11471  0.68520  Biso   1.000  O
  N1       1.0000 0.95190  0.23137  0.50780  Biso   1.000  N
  N2       1.0000 0.10684  0.17359  0.51460  Biso   1.000  N
  O2       1.0000 0.90020  0.18700  0.67547  Biso   1.000  O
  O3       1.0000 0.06967  0.22247  0.68703  Biso   1.000  O
  N3       1.0000 0.94980  0.11692  0.51030  Biso   1.000  N
  C1       1.0000 0.88620  0.21244  0.74600  Biso   1.000  C
  C2       1.0000 0.80860  0.23188  0.74870  Biso   1.000  C
  C3       1.0000 0.97710  0.01820  0.82890  Biso   1.000  C
  C4       1.0000 0.78530  0.25480  0.82950  Biso   1.000  C
  C5       1.0000 0.75950  0.22737  0.67020  Biso   1.000  C
  H1       1.0000 0.96250  0.03450  0.88230  Biso   1.000  H
  C6       1.0000 0.97640  0.96951  0.82730  Biso   1.000  C
  H2       1.0000 0.81770  0.25770  0.88170  Biso   1.000  H
  C7       1.0000 0.71470  0.27307  0.83210  Biso   1.000  C
  H3       1.0000 0.77470  0.21210  0.61590  Biso   1.000  H
  C8       1.0000 0.68880  0.24569  0.67430  Biso   1.000  C
  N4       1.0000 0.95305  0.94333  0.90920  Biso   1.000  N
  N5       1.0000 0.68918  0.29800  0.91400  Biso   1.000  N
  C9       1.0000 0.66490  0.26969  0.75430  Biso   1.000  C
  N6       1.0000 0.63770  0.24308  0.59450  Biso   1.000  N
  C10      1.0000 0.98380  0.90182  0.93920  Biso   1.000  C
  C11      1.0000 0.89310  0.95195  0.96670  Biso   1.000  C
  C12      1.0000 0.72870  0.32958  0.97050  Biso   1.000  C
  C13      1.0000 0.61720  0.29859  0.94370  Biso   1.000  C
  H4       1.0000 0.61740  0.28300  0.75570  Biso   1.000  H
  C14      1.0000 0.59330  0.27901  0.56340  Biso   1.000  C
  C15      1.0000 0.61800  0.20524  0.53890  Biso   1.000  C
  H5       1.0000 0.02510  0.88820  0.91160  Biso   1.000  H
  C16      1.0000 0.89170  0.91386  0.02990  Biso   1.000  C
  C17      1.0000 0.84010  0.98801  0.96770  Biso   1.000  C
  C18      1.0000 0.67700  0.34701  0.03410  Biso   1.000  C
  C19      1.0000 0.80270  0.34510  0.97140  Biso   1.000  C
  H6       1.0000 0.57910  0.28070  0.91570  Biso   1.000  H
  H7       1.0000 0.59490  0.30870  0.59080  Biso   1.000  H
  C20      1.0000 0.56290  0.22163  0.47480  Biso   1.000  C
  C21      1.0000 0.63900  0.15900  0.54200  Biso   1.000  C
  C22      1.0000 0.83770  0.91120  0.09900  Biso   1.000  C
  C23      1.0000 0.78560  0.98410  0.03490  Biso   1.000  C
  H8       1.0000 0.84130  0.01310  0.92570  Biso   1.000  H
  C24      1.0000 0.69780  0.38053  0.10150  Biso   1.000  C
  C25      1.0000 0.82180  0.37920  0.03740  Biso   1.000  C
  H9       1.0000 0.83730  0.33330  0.92980  Biso   1.000  H
  C26      1.0000 0.52910  0.19120  0.41040  Biso   1.000  C
  H10      1.0000 0.67550  0.14830  0.58510  Biso   1.000  H
  C27      1.0000 0.60380  0.12910  0.47850  Biso   1.000  C
  H11      1.0000 0.83670  0.88650  0.14200  Biso   1.000  H
  C28      1.0000 0.78580  0.94710  0.10020  Biso   1.000  C
  H12      1.0000 0.74800  0.00670  0.03680  Biso   1.000  H
  C29      1.0000 0.77070  0.39600  0.10280  Biso   1.000  C
  H13      1.0000 0.66370  0.39200  0.14410  Biso   1.000  H
  H14      1.0000 0.87010  0.39130  0.03850  Biso   1.000  H
  C30      1.0000 0.55090  0.14540  0.41220  Biso   1.000  C
  H15      1.0000 0.49260  0.20170  0.36720  Biso   1.000  H
  H16      1.0000 0.61570  0.09730  0.47990  Biso   1.000  H
  H17      1.0000 0.74950  0.94670  0.14610  Biso   1.000  H
  H18      1.0000 0.78640  0.41800  0.14780  Biso   1.000  H
  H19      1.0000 0.53000  0.12450  0.36820  Biso   1.000  H
  Mn2      1.0000 0.50218  0.67519  0.60456  Biso   1.000  Mn
  O4       1.0000 0.53466  0.61471  0.68520  Biso   1.000  O
  N7       1.0000 0.45190  0.73137  0.50780  Biso   1.000  N
  N8       1.0000 0.60684  0.67359  0.51460  Biso   1.000  N
  O5       1.0000 0.40020  0.68700  0.67547  Biso   1.000  O
  O6       1.0000 0.56967  0.72247  0.68703  Biso   1.000  O
  N9       1.0000 0.44980  0.61692  0.51030  Biso   1.000  N
  C31      1.0000 0.38620  0.71244  0.74600  Biso   1.000  C
  C32      1.0000 0.30860  0.73188  0.74870  Biso   1.000  C
  C33      1.0000 0.47710  0.51820  0.82890  Biso   1.000  C
  C34      1.0000 0.28530  0.75480  0.82950  Biso   1.000  C
  C35      1.0000 0.25950  0.72737  0.67020  Biso   1.000  C
  H20      1.0000 0.46250  0.53450  0.88230  Biso   1.000  H
  C36      1.0000 0.47640  0.46951  0.82730  Biso   1.000  C
  H21      1.0000 0.31770  0.75770  0.88170  Biso   1.000  H
  C37      1.0000 0.21470  0.77307  0.83210  Biso   1.000  C
  H22      1.0000 0.27470  0.71210  0.61590  Biso   1.000  H
  C38      1.0000 0.18880  0.74569  0.67430  Biso   1.000  C
  N10      1.0000 0.45305  0.44333  0.90920  Biso   1.000  N
  N11      1.0000 0.18918  0.79800  0.91400  Biso   1.000  N
  C39      1.0000 0.16490  0.76969  0.75430  Biso   1.000  C
  N12      1.0000 0.13770  0.74308  0.59450  Biso   1.000  N
  C40      1.0000 0.48380  0.40182  0.93920  Biso   1.000  C
  C41      1.0000 0.39310  0.45195  0.96670  Biso   1.000  C
  C42      1.0000 0.22870  0.82958  0.97050  Biso   1.000  C
  C43      1.0000 0.11720  0.79859  0.94370  Biso   1.000  C
  H23      1.0000 0.11740  0.78300  0.75570  Biso   1.000  H
  C44      1.0000 0.09330  0.77901  0.56340  Biso   1.000  C
  C45      1.0000 0.11800  0.70524  0.53890  Biso   1.000  C
  H24      1.0000 0.52510  0.38820  0.91160  Biso   1.000  H
  C46      1.0000 0.39170  0.41386  0.02990  Biso   1.000  C
  C47      1.0000 0.34010  0.48801  0.96770  Biso   1.000  C
  C48      1.0000 0.17700  0.84701  0.03410  Biso   1.000  C
  C49      1.0000 0.30270  0.84510  0.97140  Biso   1.000  C
  H25      1.0000 0.07910  0.78070  0.91570  Biso   1.000  H
  H26      1.0000 0.09490  0.80870  0.59080  Biso   1.000  H
  C50      1.0000 0.06290  0.72163  0.47480  Biso   1.000  C
  C51      1.0000 0.13900  0.65900  0.54200  Biso   1.000  C
  C52      1.0000 0.33770  0.41120  0.09900  Biso   1.000  C
  C53      1.0000 0.28560  0.48410  0.03490  Biso   1.000  C
  H27      1.0000 0.34130  0.51310  0.92570  Biso   1.000  H
  C54      1.0000 0.19780  0.88053  0.10150  Biso   1.000  C
  C55      1.0000 0.32180  0.87920  0.03740  Biso   1.000  C
  H28      1.0000 0.33730  0.83330  0.92980  Biso   1.000  H
  C56      1.0000 0.02910  0.69120  0.41040  Biso   1.000  C
  H29      1.0000 0.17550  0.64830  0.58510  Biso   1.000  H
  C57      1.0000 0.10380  0.62910  0.47850  Biso   1.000  C
  H30      1.0000 0.33670  0.38650  0.14200  Biso   1.000  H
  C58      1.0000 0.28580  0.44710  0.10020  Biso   1.000  C
  H31      1.0000 0.24800  0.50670  0.03680  Biso   1.000  H
  C59      1.0000 0.27070  0.89600  0.10280  Biso   1.000  C
  H32      1.0000 0.16370  0.89200  0.14410  Biso   1.000  H
  H33      1.0000 0.37010  0.89130  0.03850  Biso   1.000  H
  C60      1.0000 0.05090  0.64540  0.41220  Biso   1.000  C
  H34      1.0000 0.99260  0.70170  0.36720  Biso   1.000  H
  H35      1.0000 0.11570  0.59730  0.47990  Biso   1.000  H
  H36      1.0000 0.24950  0.44670  0.14610  Biso   1.000  H
  H37      1.0000 0.28640  0.91800  0.14780  Biso   1.000  H
  H38      1.0000 0.03000  0.62450  0.36820  Biso   1.000  H
  Mn3      1.0000 0.99782  0.17519  0.89544  Biso   1.000  Mn
  O7       1.0000 0.96534  0.11471  0.81480  Biso   1.000  O
  N13      1.0000 0.04810  0.23137  0.99220  Biso   1.000  N
  N14      1.0000 0.89316  0.17359  0.98540  Biso   1.000  N
  O8       1.0000 0.09980  0.18700  0.82453  Biso   1.000  O
  O9       1.0000 0.93033  0.22247  0.81297  Biso   1.000  O
  N15      1.0000 0.05020  0.11692  0.98970  Biso   1.000  N
  C61      1.0000 0.11380  0.21244  0.75400  Biso   1.000  C
  C62      1.0000 0.19140  0.23188  0.75130  Biso   1.000  C
  C63      1.0000 0.02290  0.01820  0.67110  Biso   1.000  C
  C64      1.0000 0.21470  0.25480  0.67050  Biso   1.000  C
  C65      1.0000 0.24050  0.22737  0.82980  Biso   1.000  C
  H39      1.0000 0.03750  0.03450  0.61770  Biso   1.000  H
  C66      1.0000 0.02360  0.96951  0.67270  Biso   1.000  C
  H40      1.0000 0.18230  0.25770  0.61830  Biso   1.000  H
  C67      1.0000 0.28530  0.27307  0.66790  Biso   1.000  C
  H41      1.0000 0.22530  0.21210  0.88410  Biso   1.000  H
  C68      1.0000 0.31120  0.24569  0.82570  Biso   1.000  C
  N16      1.0000 0.04695  0.94333  0.59080  Biso   1.000  N
  N17      1.0000 0.31082  0.29800  0.58600  Biso   1.000  N
  C69      1.0000 0.33510  0.26969  0.74570  Biso   1.000  C
  N18      1.0000 0.36230  0.24308  0.90550  Biso   1.000  N
  C70      1.0000 0.01620  0.90182  0.56080  Biso   1.000  C
  C71      1.0000 0.10690  0.95195  0.53330  Biso   1.000  C
  C72      1.0000 0.27130  0.32958  0.52950  Biso   1.000  C
  C73      1.0000 0.38280  0.29859  0.55630  Biso   1.000  C
  H42      1.0000 0.38260  0.28300  0.74430  Biso   1.000  H
  C74      1.0000 0.40670  0.27901  0.93660  Biso   1.000  C
  C75      1.0000 0.38200  0.20524  0.96110  Biso   1.000  C
  H43      1.0000 0.97490  0.88820  0.58840  Biso   1.000  H
  C76      1.0000 0.10830  0.91386  0.47010  Biso   1.000  C
  C77      1.0000 0.15990  0.98801  0.53230  Biso   1.000  C
  C78      1.0000 0.32300  0.34701  0.46590  Biso   1.000  C
  C79      1.0000 0.19730  0.34510  0.52860  Biso   1.000  C
  H44      1.0000 0.42090  0.28070  0.58430  Biso   1.000  H
  H45      1.0000 0.40510  0.30870  0.90920  Biso   1.000  H
  C80      1.0000 0.43710  0.22163  0.02520  Biso   1.000  C
  C81      1.0000 0.36100  0.15900  0.95800  Biso   1.000  C
  C82      1.0000 0.16230  0.91120  0.40100  Biso   1.000  C
  C83      1.0000 0.21440  0.98410  0.46510  Biso   1.000  C
  H46      1.0000 0.15870  0.01310  0.57430  Biso   1.000  H
  C84      1.0000 0.30220  0.38053  0.39850  Biso   1.000  C
  C85      1.0000 0.17820  0.37920  0.46260  Biso   1.000  C
  H47      1.0000 0.16270  0.33330  0.57020  Biso   1.000  H
  C86      1.0000 0.47090  0.19120  0.08960  Biso   1.000  C
  H48      1.0000 0.32450  0.14830  0.91490  Biso   1.000  H
  C87      1.0000 0.39620  0.12910  0.02150  Biso   1.000  C
  H49      1.0000 0.16330  0.88650  0.35800  Biso   1.000  H
  C88      1.0000 0.21420  0.94710  0.39980  Biso   1.000  C
  H50      1.0000 0.25200  0.00670  0.46320  Biso   1.000  H
  C89      1.0000 0.22930  0.39600  0.39720  Biso   1.000  C
  H51      1.0000 0.33630  0.39200  0.35590  Biso   1.000  H
  H52      1.0000 0.12990  0.39130  0.46150  Biso   1.000  H
  C90      1.0000 0.44910  0.14540  0.08780  Biso   1.000  C
  H53      1.0000 0.50740  0.20170  0.13280  Biso   1.000  H
  H54      1.0000 0.38430  0.09730  0.02010  Biso   1.000  H
  H55      1.0000 0.25050  0.94670  0.35390  Biso   1.000  H
  H56      1.0000 0.21360  0.41800  0.35220  Biso   1.000  H
  H57      1.0000 0.47000  0.12450  0.13180  Biso   1.000  H
  Mn4      1.0000 0.49782  0.67519  0.89544  Biso   1.000  Mn
  O10      1.0000 0.46534  0.61471  0.81480  Biso   1.000  O
  N19      1.0000 0.54810  0.73137  0.99220  Biso   1.000  N
  N20      1.0000 0.39316  0.67359  0.98540  Biso   1.000  N
  O11      1.0000 0.59980  0.68700  0.82453  Biso   1.000  O
  O12      1.0000 0.43033  0.72247  0.81297  Biso   1.000  O
  N21      1.0000 0.55020  0.61692  0.98970  Biso   1.000  N
  C91      1.0000 0.61380  0.71244  0.75400  Biso   1.000  C
  C92      1.0000 0.69140  0.73188  0.75130  Biso   1.000  C
  C93      1.0000 0.52290  0.51820  0.67110  Biso   1.000  C
  C94      1.0000 0.71470  0.75480  0.67050  Biso   1.000  C
  C95      1.0000 0.74050  0.72737  0.82980  Biso   1.000  C
  H58      1.0000 0.53750  0.53450  0.61770  Biso   1.000  H
  C96      1.0000 0.52360  0.46951  0.67270  Biso   1.000  C
  H59      1.0000 0.68230  0.75770  0.61830  Biso   1.000  H
  C97      1.0000 0.78530  0.77307  0.66790  Biso   1.000  C
  H60      1.0000 0.72530  0.71210  0.88410  Biso   1.000  H
  C98      1.0000 0.81120  0.74569  0.82570  Biso   1.000  C
  N22      1.0000 0.54695  0.44333  0.59080  Biso   1.000  N
  N23      1.0000 0.81082  0.79800  0.58600  Biso   1.000  N
  C99      1.0000 0.83510  0.76969  0.74570  Biso   1.000  C
  N24      1.0000 0.86230  0.74308  0.90550  Biso   1.000  N
  C100     1.0000 0.51620  0.40182  0.56080  Biso   1.000  C
  C101     1.0000 0.60690  0.45195  0.53330  Biso   1.000  C
  C102     1.0000 0.77130  0.82958  0.52950  Biso   1.000  C
  C103     1.0000 0.88280  0.79859  0.55630  Biso   1.000  C
  H61      1.0000 0.88260  0.78300  0.74430  Biso   1.000  H
  C104     1.0000 0.90670  0.77901  0.93660  Biso   1.000  C
  C105     1.0000 0.88200  0.70524  0.96110  Biso   1.000  C
  H62      1.0000 0.47490  0.38820  0.58840  Biso   1.000  H
  C106     1.0000 0.60830  0.41386  0.47010  Biso   1.000  C
  C107     1.0000 0.65990  0.48801  0.53230  Biso   1.000  C
  C108     1.0000 0.82300  0.84701  0.46590  Biso   1.000  C
  C109     1.0000 0.69730  0.84510  0.52860  Biso   1.000  C
  H63      1.0000 0.92090  0.78070  0.58430  Biso   1.000  H
  H64      1.0000 0.90510  0.80870  0.90920  Biso   1.000  H
  C110     1.0000 0.93710  0.72163  0.02520  Biso   1.000  C
  C111     1.0000 0.86100  0.65900  0.95800  Biso   1.000  C
  C112     1.0000 0.66230  0.41120  0.40100  Biso   1.000  C
  C113     1.0000 0.71440  0.48410  0.46510  Biso   1.000  C
  H65      1.0000 0.65870  0.51310  0.57430  Biso   1.000  H
  C114     1.0000 0.80220  0.88053  0.39850  Biso   1.000  C
  C115     1.0000 0.67820  0.87920  0.46260  Biso   1.000  C
  H66      1.0000 0.66270  0.83330  0.57020  Biso   1.000  H
  C116     1.0000 0.97090  0.69120  0.08960  Biso   1.000  C
  H67      1.0000 0.82450  0.64830  0.91490  Biso   1.000  H
  C117     1.0000 0.89620  0.62910  0.02150  Biso   1.000  C
  H68      1.0000 0.66330  0.38650  0.35800  Biso   1.000  H
  C118     1.0000 0.71420  0.44710  0.39980  Biso   1.000  C
  H69      1.0000 0.75200  0.50670  0.46320  Biso   1.000  H
  C119     1.0000 0.72930  0.89600  0.39720  Biso   1.000  C
  H70      1.0000 0.83630  0.89200  0.35590  Biso   1.000  H
  H71      1.0000 0.62990  0.89130  0.46150  Biso   1.000  H
  C120     1.0000 0.94910  0.64540  0.08780  Biso   1.000  C
  H72      1.0000 0.00740  0.70170  0.13280  Biso   1.000  H
  H73      1.0000 0.88430  0.59730  0.02010  Biso   1.000  H
  H74      1.0000 0.75050  0.44670  0.35390  Biso   1.000  H
  H75      1.0000 0.71360  0.91800  0.35220  Biso   1.000  H
  H76      1.0000 0.97000  0.62450  0.13180  Biso   1.000  H
  Mn5      1.0000 0.99782  0.82481  0.39544  Biso   1.000  Mn
  O13      1.0000 0.96534  0.88529  0.31480  Biso   1.000  O
  N25      1.0000 0.04810  0.76863  0.49220  Biso   1.000  N
  N26      1.0000 0.89316  0.82641  0.48540  Biso   1.000  N
  O14      1.0000 0.09980  0.81300  0.32453  Biso   1.000  O
  O15      1.0000 0.93033  0.77753  0.31297  Biso   1.000  O
  N27      1.0000 0.05020  0.88308  0.48970  Biso   1.000  N
  C121     1.0000 0.11380  0.78756  0.25400  Biso   1.000  C
  C122     1.0000 0.19140  0.76812  0.25130  Biso   1.000  C
  C123     1.0000 0.02290  0.98180  0.17110  Biso   1.000  C
  C124     1.0000 0.21470  0.74520  0.17050  Biso   1.000  C
  C125     1.0000 0.24050  0.77263  0.32980  Biso   1.000  C
  H77      1.0000 0.03750  0.96550  0.11770  Biso   1.000  H
  C126     1.0000 0.02360  0.03049  0.17270  Biso   1.000  C
  H78      1.0000 0.18230  0.74230  0.11830  Biso   1.000  H
  C127     1.0000 0.28530  0.72693  0.16790  Biso   1.000  C
  H79      1.0000 0.22530  0.78790  0.38410  Biso   1.000  H
  C128     1.0000 0.31120  0.75431  0.32570  Biso   1.000  C
  N28      1.0000 0.04695  0.05667  0.09080  Biso   1.000  N
  N29      1.0000 0.31082  0.70200  0.08600  Biso   1.000  N
  C129     1.0000 0.33510  0.73031  0.24570  Biso   1.000  C
  N30      1.0000 0.36230  0.75692  0.40550  Biso   1.000  N
  C130     1.0000 0.01620  0.09818  0.06080  Biso   1.000  C
  C131     1.0000 0.10690  0.04805  0.03330  Biso   1.000  C
  C132     1.0000 0.27130  0.67042  0.02950  Biso   1.000  C
  C133     1.0000 0.38280  0.70141  0.05630  Biso   1.000  C
  H80      1.0000 0.38260  0.71700  0.24430  Biso   1.000  H
  C134     1.0000 0.40670  0.72099  0.43660  Biso   1.000  C
  C135     1.0000 0.38200  0.79476  0.46110  Biso   1.000  C
  H81      1.0000 0.97490  0.11180  0.08840  Biso   1.000  H
  C136     1.0000 0.10830  0.08614  0.97010  Biso   1.000  C
  C137     1.0000 0.15990  0.01199  0.03230  Biso   1.000  C
  C138     1.0000 0.32300  0.65299  0.96590  Biso   1.000  C
  C139     1.0000 0.19730  0.65490  0.02860  Biso   1.000  C
  H82      1.0000 0.42090  0.71930  0.08430  Biso   1.000  H
  H83      1.0000 0.40510  0.69130  0.40920  Biso   1.000  H
  C140     1.0000 0.43710  0.77837  0.52520  Biso   1.000  C
  C141     1.0000 0.36100  0.84100  0.45800  Biso   1.000  C
  C142     1.0000 0.16230  0.08880  0.90100  Biso   1.000  C
  C143     1.0000 0.21440  0.01590  0.96510  Biso   1.000  C
  H84      1.0000 0.15870  0.98690  0.07430  Biso   1.000  H
  C144     1.0000 0.30220  0.61947  0.89850  Biso   1.000  C
  C145     1.0000 0.17820  0.62080  0.96260  Biso   1.000  C
  H85      1.0000 0.16270  0.66670  0.07020  Biso   1.000  H
  C146     1.0000 0.47090  0.80880  0.58960  Biso   1.000  C
  H86      1.0000 0.32450  0.85170  0.41490  Biso   1.000  H
  C147     1.0000 0.39620  0.87090  0.52150  Biso   1.000  C
  H87      1.0000 0.16330  0.11350  0.85800  Biso   1.000  H
  C148     1.0000 0.21420  0.05290  0.89980  Biso   1.000  C
  H88      1.0000 0.25200  0.99330  0.96320  Biso   1.000  H
  C149     1.0000 0.22930  0.60400  0.89720  Biso   1.000  C
  H89      1.0000 0.33630  0.60800  0.85590  Biso   1.000  H
  H90      1.0000 0.12990  0.60870  0.96150  Biso   1.000  H
  C150     1.0000 0.44910  0.85460  0.58780  Biso   1.000  C
  H91      1.0000 0.50740  0.79830  0.63280  Biso   1.000  H
  H92      1.0000 0.38430  0.90270  0.52010  Biso   1.000  H
  H93      1.0000 0.25050  0.05330  0.85390  Biso   1.000  H
  H94      1.0000 0.21360  0.58200  0.85220  Biso   1.000  H
  H95      1.0000 0.47000  0.87550  0.63180  Biso   1.000  H
  Mn6      1.0000 0.49782  0.32481  0.39544  Biso   1.000  Mn
  O16      1.0000 0.46534  0.38529  0.31480  Biso   1.000  O
  N31      1.0000 0.54810  0.26863  0.49220  Biso   1.000  N
  N32      1.0000 0.39316  0.32641  0.48540  Biso   1.000  N
  O17      1.0000 0.59980  0.31300  0.32453  Biso   1.000  O
  O18      1.0000 0.43033  0.27753  0.31297  Biso   1.000  O
  N33      1.0000 0.55020  0.38308  0.48970  Biso   1.000  N
  C151     1.0000 0.61380  0.28756  0.25400  Biso   1.000  C
  C152     1.0000 0.69140  0.26812  0.25130  Biso   1.000  C
  C153     1.0000 0.52290  0.48180  0.17110  Biso   1.000  C
  C154     1.0000 0.71470  0.24520  0.17050  Biso   1.000  C
  C155     1.0000 0.74050  0.27263  0.32980  Biso   1.000  C
  H96      1.0000 0.53750  0.46550  0.11770  Biso   1.000  H
  C156     1.0000 0.52360  0.53049  0.17270  Biso   1.000  C
  H97      1.0000 0.68230  0.24230  0.11830  Biso   1.000  H
  C157     1.0000 0.78530  0.22693  0.16790  Biso   1.000  C
  H98      1.0000 0.72530  0.28790  0.38410  Biso   1.000  H
  C158     1.0000 0.81120  0.25431  0.32570  Biso   1.000  C
  N34      1.0000 0.54695  0.55667  0.09080  Biso   1.000  N
  N35      1.0000 0.81082  0.20200  0.08600  Biso   1.000  N
  C159     1.0000 0.83510  0.23031  0.24570  Biso   1.000  C
  N36      1.0000 0.86230  0.25692  0.40550  Biso   1.000  N
  C160     1.0000 0.51620  0.59818  0.06080  Biso   1.000  C
  C161     1.0000 0.60690  0.54805  0.03330  Biso   1.000  C
  C162     1.0000 0.77130  0.17042  0.02950  Biso   1.000  C
  C163     1.0000 0.88280  0.20141  0.05630  Biso   1.000  C
  H99      1.0000 0.88260  0.21700  0.24430  Biso   1.000  H
  C164     1.0000 0.90670  0.22099  0.43660  Biso   1.000  C
  C165     1.0000 0.88200  0.29476  0.46110  Biso   1.000  C
  H100     1.0000 0.47490  0.61180  0.08840  Biso   1.000  H
  C166     1.0000 0.60830  0.58614  0.97010  Biso   1.000  C
  C167     1.0000 0.65990  0.51199  0.03230  Biso   1.000  C
  C168     1.0000 0.82300  0.15299  0.96590  Biso   1.000  C
  C169     1.0000 0.69730  0.15490  0.02860  Biso   1.000  C
  H101     1.0000 0.92090  0.21930  0.08430  Biso   1.000  H
  H102     1.0000 0.90510  0.19130  0.40920  Biso   1.000  H
  C170     1.0000 0.93710  0.27837  0.52520  Biso   1.000  C
  C171     1.0000 0.86100  0.34100  0.45800  Biso   1.000  C
  C172     1.0000 0.66230  0.58880  0.90100  Biso   1.000  C
  C173     1.0000 0.71440  0.51590  0.96510  Biso   1.000  C
  H103     1.0000 0.65870  0.48690  0.07430  Biso   1.000  H
  C174     1.0000 0.80220  0.11947  0.89850  Biso   1.000  C
  C175     1.0000 0.67820  0.12080  0.96260  Biso   1.000  C
  H104     1.0000 0.66270  0.16670  0.07020  Biso   1.000  H
  C176     1.0000 0.97090  0.30880  0.58960  Biso   1.000  C
  H105     1.0000 0.82450  0.35170  0.41490  Biso   1.000  H
  C177     1.0000 0.89620  0.37090  0.52150  Biso   1.000  C
  H106     1.0000 0.66330  0.61350  0.85800  Biso   1.000  H
  C178     1.0000 0.71420  0.55290  0.89980  Biso   1.000  C
  H107     1.0000 0.75200  0.49330  0.96320  Biso   1.000  H
  C179     1.0000 0.72930  0.10400  0.89720  Biso   1.000  C
  H108     1.0000 0.83630  0.10800  0.85590  Biso   1.000  H
  H109     1.0000 0.62990  0.10870  0.96150  Biso   1.000  H
  C180     1.0000 0.94910  0.35460  0.58780  Biso   1.000  C
  H110     1.0000 0.00740  0.29830  0.63280  Biso   1.000  H
  H111     1.0000 0.88430  0.40270  0.52010  Biso   1.000  H
  H112     1.0000 0.75050  0.55330  0.85390  Biso   1.000  H
  H113     1.0000 0.71360  0.08200  0.85220  Biso   1.000  H
  H114     1.0000 0.97000  0.37550  0.63180  Biso   1.000  H
  Mn7      1.0000 0.00218  0.82481  0.10456  Biso   1.000  Mn
  O19      1.0000 0.03466  0.88529  0.18520  Biso   1.000  O
  N37      1.0000 0.95190  0.76863  0.00780  Biso   1.000  N
  N38      1.0000 0.10684  0.82641  0.01460  Biso   1.000  N
  O20      1.0000 0.90020  0.81300  0.17547  Biso   1.000  O
  O21      1.0000 0.06967  0.77753  0.18703  Biso   1.000  O
  N39      1.0000 0.94980  0.88308  0.01030  Biso   1.000  N
  C181     1.0000 0.88620  0.78756  0.24600  Biso   1.000  C
  C182     1.0000 0.80860  0.76812  0.24870  Biso   1.000  C
  C183     1.0000 0.97710  0.98180  0.32890  Biso   1.000  C
  C184     1.0000 0.78530  0.74520  0.32950  Biso   1.000  C
  C185     1.0000 0.75950  0.77263  0.17020  Biso   1.000  C
  H115     1.0000 0.96250  0.96550  0.38230  Biso   1.000  H
  C186     1.0000 0.97640  0.03049  0.32730  Biso   1.000  C
  H116     1.0000 0.81770  0.74230  0.38170  Biso   1.000  H
  C187     1.0000 0.71470  0.72693  0.33210  Biso   1.000  C
  H117     1.0000 0.77470  0.78790  0.11590  Biso   1.000  H
  C188     1.0000 0.68880  0.75431  0.17430  Biso   1.000  C
  N40      1.0000 0.95305  0.05667  0.40920  Biso   1.000  N
  N41      1.0000 0.68918  0.70200  0.41400  Biso   1.000  N
  C189     1.0000 0.66490  0.73031  0.25430  Biso   1.000  C
  N42      1.0000 0.63770  0.75692  0.09450  Biso   1.000  N
  C190     1.0000 0.98380  0.09818  0.43920  Biso   1.000  C
  C191     1.0000 0.89310  0.04805  0.46670  Biso   1.000  C
  C192     1.0000 0.72870  0.67042  0.47050  Biso   1.000  C
  C193     1.0000 0.61720  0.70141  0.44370  Biso   1.000  C
  H118     1.0000 0.61740  0.71700  0.25570  Biso   1.000  H
  C194     1.0000 0.59330  0.72099  0.06340  Biso   1.000  C
  C195     1.0000 0.61800  0.79476  0.03890  Biso   1.000  C
  H119     1.0000 0.02510  0.11180  0.41160  Biso   1.000  H
  C196     1.0000 0.89170  0.08614  0.52990  Biso   1.000  C
  C197     1.0000 0.84010  0.01199  0.46770  Biso   1.000  C
  C198     1.0000 0.67700  0.65299  0.53410  Biso   1.000  C
  C199     1.0000 0.80270  0.65490  0.47140  Biso   1.000  C
  H120     1.0000 0.57910  0.71930  0.41570  Biso   1.000  H
  H121     1.0000 0.59490  0.69130  0.09080  Biso   1.000  H
  C200     1.0000 0.56290  0.77837  0.97480  Biso   1.000  C
  C201     1.0000 0.63900  0.84100  0.04200  Biso   1.000  C
  C202     1.0000 0.83770  0.08880  0.59900  Biso   1.000  C
  C203     1.0000 0.78560  0.01590  0.53490  Biso   1.000  C
  H122     1.0000 0.84130  0.98690  0.42570  Biso   1.000  H
  C204     1.0000 0.69780  0.61947  0.60150  Biso   1.000  C
  C205     1.0000 0.82180  0.62080  0.53740  Biso   1.000  C
  H123     1.0000 0.83730  0.66670  0.42980  Biso   1.000  H
  C206     1.0000 0.52910  0.80880  0.91040  Biso   1.000  C
  H124     1.0000 0.67550  0.85170  0.08510  Biso   1.000  H
  C207     1.0000 0.60380  0.87090  0.97850  Biso   1.000  C
  H125     1.0000 0.83670  0.11350  0.64200  Biso   1.000  H
  C208     1.0000 0.78580  0.05290  0.60020  Biso   1.000  C
  H126     1.0000 0.74800  0.99330  0.53680  Biso   1.000  H
  C209     1.0000 0.77070  0.60400  0.60280  Biso   1.000  C
  H127     1.0000 0.66370  0.60800  0.64410  Biso   1.000  H
  H128     1.0000 0.87010  0.60870  0.53850  Biso   1.000  H
  C210     1.0000 0.55090  0.85460  0.91220  Biso   1.000  C
  H129     1.0000 0.49260  0.79830  0.86720  Biso   1.000  H
  H130     1.0000 0.61570  0.90270  0.97990  Biso   1.000  H
  H131     1.0000 0.74950  0.05330  0.64610  Biso   1.000  H
  H132     1.0000 0.78640  0.58200  0.64780  Biso   1.000  H
  H133     1.0000 0.53000  0.87550  0.86820  Biso   1.000  H
  Mn8      1.0000 0.50218  0.32481  0.10456  Biso   1.000  Mn
  O22      1.0000 0.53466  0.38529  0.18520  Biso   1.000  O
  N43      1.0000 0.45190  0.26863  0.00780  Biso   1.000  N
  N44      1.0000 0.60684  0.32641  0.01460  Biso   1.000  N
  O23      1.0000 0.40020  0.31300  0.17547  Biso   1.000  O
  O24      1.0000 0.56967  0.27753  0.18703  Biso   1.000  O
  N45      1.0000 0.44980  0.38308  0.01030  Biso   1.000  N
  C211     1.0000 0.38620  0.28756  0.24600  Biso   1.000  C
  C212     1.0000 0.30860  0.26812  0.24870  Biso   1.000  C
  C213     1.0000 0.47710  0.48180  0.32890  Biso   1.000  C
  C214     1.0000 0.28530  0.24520  0.32950  Biso   1.000  C
  C215     1.0000 0.25950  0.27263  0.17020  Biso   1.000  C
  H134     1.0000 0.46250  0.46550  0.38230  Biso   1.000  H
  C216     1.0000 0.47640  0.53049  0.32730  Biso   1.000  C
  H135     1.0000 0.31770  0.24230  0.38170  Biso   1.000  H
  C217     1.0000 0.21470  0.22693  0.33210  Biso   1.000  C
  H136     1.0000 0.27470  0.28790  0.11590  Biso   1.000  H
  C218     1.0000 0.18880  0.25431  0.17430  Biso   1.000  C
  N46      1.0000 0.45305  0.55667  0.40920  Biso   1.000  N
  N47      1.0000 0.18918  0.20200  0.41400  Biso   1.000  N
  C219     1.0000 0.16490  0.23031  0.25430  Biso   1.000  C
  N48      1.0000 0.13770  0.25692  0.09450  Biso   1.000  N
  C220     1.0000 0.48380  0.59818  0.43920  Biso   1.000  C
  C221     1.0000 0.39310  0.54805  0.46670  Biso   1.000  C
  C222     1.0000 0.22870  0.17042  0.47050  Biso   1.000  C
  C223     1.0000 0.11720  0.20141  0.44370  Biso   1.000  C
  H137     1.0000 0.11740  0.21700  0.25570  Biso   1.000  H
  C224     1.0000 0.09330  0.22099  0.06340  Biso   1.000  C
  C225     1.0000 0.11800  0.29476  0.03890  Biso   1.000  C
  H138     1.0000 0.52510  0.61180  0.41160  Biso   1.000  H
  C226     1.0000 0.39170  0.58614  0.52990  Biso   1.000  C
  C227     1.0000 0.34010  0.51199  0.46770  Biso   1.000  C
  C228     1.0000 0.17700  0.15299  0.53410  Biso   1.000  C
  C229     1.0000 0.30270  0.15490  0.47140  Biso   1.000  C
  H139     1.0000 0.07910  0.21930  0.41570  Biso   1.000  H
  H140     1.0000 0.09490  0.19130  0.09080  Biso   1.000  H
  C230     1.0000 0.06290  0.27837  0.97480  Biso   1.000  C
  C231     1.0000 0.13900  0.34100  0.04200  Biso   1.000  C
  C232     1.0000 0.33770  0.58880  0.59900  Biso   1.000  C
  C233     1.0000 0.28560  0.51590  0.53490  Biso   1.000  C
  H141     1.0000 0.34130  0.48690  0.42570  Biso   1.000  H
  C234     1.0000 0.19780  0.11947  0.60150  Biso   1.000  C
  C235     1.0000 0.32180  0.12080  0.53740  Biso   1.000  C
  H142     1.0000 0.33730  0.16670  0.42980  Biso   1.000  H
  C236     1.0000 0.02910  0.30880  0.91040  Biso   1.000  C
  H143     1.0000 0.17550  0.35170  0.08510  Biso   1.000  H
  C237     1.0000 0.10380  0.37090  0.97850  Biso   1.000  C
  H144     1.0000 0.33670  0.61350  0.64200  Biso   1.000  H
  C238     1.0000 0.28580  0.55290  0.60020  Biso   1.000  C
  H145     1.0000 0.24800  0.49330  0.53680  Biso   1.000  H
  C239     1.0000 0.27070  0.10400  0.60280  Biso   1.000  C
  H146     1.0000 0.16370  0.10800  0.64410  Biso   1.000  H
  H147     1.0000 0.37010  0.10870  0.53850  Biso   1.000  H
  C240     1.0000 0.05090  0.35460  0.91220  Biso   1.000  C
  H148     1.0000 0.99260  0.29830  0.86720  Biso   1.000  H
  H149     1.0000 0.11570  0.40270  0.97990  Biso   1.000  H
  H150     1.0000 0.24950  0.55330  0.64610  Biso   1.000  H
  H151     1.0000 0.28640  0.08200  0.64780  Biso   1.000  H
  H152     1.0000 0.03000  0.37550  0.86820  Biso   1.000  H
  C241     1.0000 0.00000  0.09460  0.75000  Biso   1.000  C
  C242     1.0000 0.00000  0.04220  0.75000  Biso   1.000  C
  C243     1.0000 0.00000  0.94450  0.75000  Biso   1.000  C
  H153     1.0000 0.00000  0.91180  0.75000  Biso   1.000  H
  C244     1.0000 0.50000  0.59460  0.75000  Biso   1.000  C
  C245     1.0000 0.50000  0.54220  0.75000  Biso   1.000  C
  C246     1.0000 0.50000  0.44450  0.75000  Biso   1.000  C
  H154     1.0000 0.50000  0.41180  0.75000  Biso   1.000  H
  C247     1.0000 0.00000  0.90540  0.25000  Biso   1.000  C
  C248     1.0000 0.00000  0.95780  0.25000  Biso   1.000  C
  C249     1.0000 0.00000  0.05550  0.25000  Biso   1.000  C
  H155     1.0000 0.00000  0.08820  0.25000  Biso   1.000  H
  C250     1.0000 0.50000  0.40540  0.25000  Biso   1.000  C
  C251     1.0000 0.50000  0.45780  0.25000  Biso   1.000  C
  C252     1.0000 0.50000  0.55550  0.25000  Biso   1.000  C
  H156     1.0000 0.50000  0.58820  0.25000  Biso   1.000  H
