data_image0
_cell_length_a       17.033
_cell_length_b       17.033
_cell_length_c       13.928
_cell_angle_alpha    90
_cell_angle_beta     90
_cell_angle_gamma    120

_symmetry_space_group_name_H-M    "P 1"
_symmetry_int_tables_number       1

loop_
  _symmetry_equiv_pos_as_xyz
  'x, y, z'

loop_
  _atom_site_label
  _atom_site_occupancy
  _atom_site_fract_x
  _atom_site_fract_y
  _atom_site_fract_z
  _atom_site_thermal_displace_type
  _atom_site_B_iso_or_equiv
  _atom_site_type_symbol
  N1       1.0000 0.77330  0.33490  0.38570  Biso   1.000  N
  C1       1.0000 0.81000  0.38400  0.45900  Biso   1.000  C
  C2       1.0000 0.83240  0.29890  0.36580  Biso   1.000  C
  N2       1.0000 0.88910  0.39440  0.48860  Biso   1.000  N
  H1       1.0000 0.78260  0.41180  0.49110  Biso   1.000  H
  C3       1.0000 0.82330  0.23890  0.29330  Biso   1.000  C
  C4       1.0000 0.90800  0.33670  0.43010  Biso   1.000  C
  C5       1.0000 0.94090  0.44710  0.56990  Biso   1.000  C
  H2       1.0000 0.78350  0.22190  0.24170  Biso   1.000  H
  C6       1.0000 0.88500  0.20830  0.31150  Biso   1.000  C
  C7       1.0000 0.96130  0.30790  0.43630  Biso   1.000  C
  C8       1.0000 0.03760  0.49630  0.57010  Biso   1.000  C
  C9       1.0000 0.89380  0.45080  0.65310  Biso   1.000  C
  H3       1.0000 0.87580  0.15660  0.27930  Biso   1.000  H
  C10      1.0000 0.95530  0.24780  0.37120  Biso   1.000  C
  H4       1.0000 0.00440  0.32750  0.48500  Biso   1.000  H
  H5       1.0000 0.06970  0.49870  0.51510  Biso   1.000  H
  C11      1.0000 0.08190  0.53920  0.65020  Biso   1.000  C
  C12      1.0000 0.94160  0.49560  0.73030  Biso   1.000  C
  H6       1.0000 0.83090  0.42250  0.65340  Biso   1.000  H
  H7       1.0000 0.00100  0.23310  0.36740  Biso   1.000  H
  C13      1.0000 0.18420  0.59150  0.65440  Biso   1.000  C
  C14      1.0000 0.03200  0.54040  0.73360  Biso   1.000  C
  N3       1.0000 0.89090  0.49310  0.81360  Biso   1.000  N
  O1       1.0000 0.22310  0.57690  0.58010  Biso   1.000  O
  O2       1.0000 0.22010  0.64450  0.71820  Biso   1.000  O
  H8       1.0000 0.06240  0.57190  0.78860  Biso   1.000  H
  C15      1.0000 0.81180  0.41760  0.84340  Biso   1.000  C
  C16      1.0000 0.90020  0.56100  0.87230  Biso   1.000  C
  N4       1.0000 0.22970  0.66950  0.41500  Biso   1.000  N
  H9       1.0000 0.78950  0.35960  0.81850  Biso   1.000  H
  C17      1.0000 0.82950  0.52810  0.93520  Biso   1.000  C
  C18      1.0000 0.98030  0.65750  0.87890  Biso   1.000  C
  C19      1.0000 0.82400  0.58630  0.00150  Biso   1.000  C
  C20      1.0000 0.97060  0.71080  0.95050  Biso   1.000  C
  H10      1.0000 0.03090  0.67930  0.83930  Biso   1.000  H
  H11      1.0000 0.77030  0.56630  0.03550  Biso   1.000  H
  C21      1.0000 0.89580  0.67350  0.01890  Biso   1.000  C
  H12      1.0000 0.01360  0.77210  0.95420  Biso   1.000  H
  H13      1.0000 0.89610  0.70650  0.07220  Biso   1.000  H
  N5       1.0000 0.66510  0.43840  0.38570  Biso   1.000  N
  C22      1.0000 0.61600  0.42600  0.45900  Biso   1.000  C
  C23      1.0000 0.70110  0.53350  0.36580  Biso   1.000  C
  N6       1.0000 0.60560  0.49470  0.48860  Biso   1.000  N
  H14      1.0000 0.58820  0.37080  0.49110  Biso   1.000  H
  C24      1.0000 0.76110  0.58440  0.29330  Biso   1.000  C
  C25      1.0000 0.66330  0.57130  0.43010  Biso   1.000  C
  C26      1.0000 0.55290  0.49380  0.56990  Biso   1.000  C
  H15      1.0000 0.77810  0.56160  0.24170  Biso   1.000  H
  C27      1.0000 0.79170  0.67670  0.31150  Biso   1.000  C
  C28      1.0000 0.69210  0.65340  0.43630  Biso   1.000  C
  C29      1.0000 0.50370  0.54130  0.57010  Biso   1.000  C
  C30      1.0000 0.54920  0.44300  0.65310  Biso   1.000  C
  H16      1.0000 0.84340  0.71920  0.27930  Biso   1.000  H
  C31      1.0000 0.75220  0.70750  0.37120  Biso   1.000  C
  H17      1.0000 0.67250  0.67690  0.48500  Biso   1.000  H
  H18      1.0000 0.50130  0.57100  0.51510  Biso   1.000  H
  C32      1.0000 0.46080  0.54270  0.65020  Biso   1.000  C
  C33      1.0000 0.50440  0.44600  0.73030  Biso   1.000  C
  H19      1.0000 0.57750  0.40840  0.65340  Biso   1.000  H
  H20      1.0000 0.76690  0.76790  0.36740  Biso   1.000  H
  C34      1.0000 0.40850  0.59270  0.65440  Biso   1.000  C
  C35      1.0000 0.45960  0.49160  0.73360  Biso   1.000  C
  N7       1.0000 0.50690  0.39780  0.81360  Biso   1.000  N
  O3       1.0000 0.42310  0.64620  0.58010  Biso   1.000  O
  O4       1.0000 0.35550  0.57560  0.71820  Biso   1.000  O
  H21      1.0000 0.42810  0.49050  0.78860  Biso   1.000  H
  C36      1.0000 0.58240  0.39420  0.84340  Biso   1.000  C
  C37      1.0000 0.43900  0.33920  0.87230  Biso   1.000  C
  N8       1.0000 0.33050  0.56020  0.41500  Biso   1.000  N
  H22      1.0000 0.64040  0.42990  0.81850  Biso   1.000  H
  C38      1.0000 0.47190  0.30140  0.93520  Biso   1.000  C
  C39      1.0000 0.34250  0.32280  0.87890  Biso   1.000  C
  C40      1.0000 0.41370  0.23770  0.00150  Biso   1.000  C
  C41      1.0000 0.28920  0.25980  0.95050  Biso   1.000  C
  H23      1.0000 0.32070  0.35160  0.83930  Biso   1.000  H
  H24      1.0000 0.43370  0.20400  0.03550  Biso   1.000  H
  C42      1.0000 0.32650  0.22230  0.01890  Biso   1.000  C
  H25      1.0000 0.22790  0.24150  0.95420  Biso   1.000  H
  H26      1.0000 0.29350  0.18960  0.07220  Biso   1.000  H
  N9       1.0000 0.56160  0.22670  0.38570  Biso   1.000  N
  C43      1.0000 0.57400  0.19000  0.45900  Biso   1.000  C
  C44      1.0000 0.46650  0.16760  0.36580  Biso   1.000  C
  N10      1.0000 0.50530  0.11090  0.48860  Biso   1.000  N
  H27      1.0000 0.62920  0.21740  0.49110  Biso   1.000  H
  C45      1.0000 0.41560  0.17670  0.29330  Biso   1.000  C
  C46      1.0000 0.42870  0.09200  0.43010  Biso   1.000  C
  C47      1.0000 0.50620  0.05910  0.56990  Biso   1.000  C
  H28      1.0000 0.43840  0.21650  0.24170  Biso   1.000  H
  C48      1.0000 0.32330  0.11500  0.31150  Biso   1.000  C
  C49      1.0000 0.34660  0.03870  0.43630  Biso   1.000  C
  C50      1.0000 0.45870  0.96240  0.57010  Biso   1.000  C
  C51      1.0000 0.55700  0.10620  0.65310  Biso   1.000  C
  H29      1.0000 0.28080  0.12420  0.27930  Biso   1.000  H
  C52      1.0000 0.29250  0.04470  0.37120  Biso   1.000  C
  H30      1.0000 0.32310  0.99560  0.48500  Biso   1.000  H
  H31      1.0000 0.42900  0.93030  0.51510  Biso   1.000  H
  C53      1.0000 0.45730  0.91810  0.65020  Biso   1.000  C
  C54      1.0000 0.55400  0.05840  0.73030  Biso   1.000  C
  H32      1.0000 0.59160  0.16910  0.65340  Biso   1.000  H
  H33      1.0000 0.23210  0.99900  0.36740  Biso   1.000  H
  C55      1.0000 0.40730  0.81580  0.65440  Biso   1.000  C
  C56      1.0000 0.50840  0.96800  0.73360  Biso   1.000  C
  N11      1.0000 0.60220  0.10910  0.81360  Biso   1.000  N
  O5       1.0000 0.35380  0.77690  0.58010  Biso   1.000  O
  O6       1.0000 0.42440  0.77990  0.71820  Biso   1.000  O
  H34      1.0000 0.50950  0.93760  0.78860  Biso   1.000  H
  C57      1.0000 0.60580  0.18820  0.84340  Biso   1.000  C
  C58      1.0000 0.66080  0.09980  0.87230  Biso   1.000  C
  N12      1.0000 0.43980  0.77030  0.41500  Biso   1.000  N
  H35      1.0000 0.57010  0.21050  0.81850  Biso   1.000  H
  C59      1.0000 0.69860  0.17050  0.93520  Biso   1.000  C
  C60      1.0000 0.67720  0.01970  0.87890  Biso   1.000  C
  C61      1.0000 0.76230  0.17600  0.00150  Biso   1.000  C
  C62      1.0000 0.74020  0.02940  0.95050  Biso   1.000  C
  H36      1.0000 0.64840  0.96910  0.83930  Biso   1.000  H
  H37      1.0000 0.79600  0.22970  0.03550  Biso   1.000  H
  C63      1.0000 0.77770  0.10420  0.01890  Biso   1.000  C
  H38      1.0000 0.75850  0.98640  0.95420  Biso   1.000  H
  H39      1.0000 0.81040  0.10390  0.07220  Biso   1.000  H
  N13      1.0000 0.33490  0.77330  0.88570  Biso   1.000  N
  C64      1.0000 0.38400  0.81000  0.95900  Biso   1.000  C
  C65      1.0000 0.29890  0.83240  0.86580  Biso   1.000  C
  N14      1.0000 0.39440  0.88910  0.98860  Biso   1.000  N
  H40      1.0000 0.41180  0.78260  0.99110  Biso   1.000  H
  C66      1.0000 0.23890  0.82330  0.79330  Biso   1.000  C
  C67      1.0000 0.33670  0.90800  0.93010  Biso   1.000  C
  C68      1.0000 0.44710  0.94090  0.06990  Biso   1.000  C
  H41      1.0000 0.22190  0.78350  0.74170  Biso   1.000  H
  C69      1.0000 0.20830  0.88500  0.81150  Biso   1.000  C
  C70      1.0000 0.30790  0.96130  0.93630  Biso   1.000  C
  C71      1.0000 0.49630  0.03760  0.07010  Biso   1.000  C
  C72      1.0000 0.45080  0.89380  0.15310  Biso   1.000  C
  H42      1.0000 0.15660  0.87580  0.77930  Biso   1.000  H
  C73      1.0000 0.24780  0.95530  0.87120  Biso   1.000  C
  H43      1.0000 0.32750  0.00440  0.98500  Biso   1.000  H
  H44      1.0000 0.49870  0.06970  0.01510  Biso   1.000  H
  C74      1.0000 0.53920  0.08190  0.15020  Biso   1.000  C
  C75      1.0000 0.49560  0.94160  0.23030  Biso   1.000  C
  H45      1.0000 0.42250  0.83090  0.15340  Biso   1.000  H
  H46      1.0000 0.23310  0.00100  0.86740  Biso   1.000  H
  C76      1.0000 0.59150  0.18420  0.15440  Biso   1.000  C
  C77      1.0000 0.54040  0.03200  0.23360  Biso   1.000  C
  N15      1.0000 0.49310  0.89090  0.31360  Biso   1.000  N
  O7       1.0000 0.57690  0.22310  0.08010  Biso   1.000  O
  O8       1.0000 0.64450  0.22010  0.21820  Biso   1.000  O
  H47      1.0000 0.57190  0.06240  0.28860  Biso   1.000  H
  C78      1.0000 0.41760  0.81180  0.34340  Biso   1.000  C
  C79      1.0000 0.56100  0.90020  0.37230  Biso   1.000  C
  N16      1.0000 0.66950  0.22970  0.91500  Biso   1.000  N
  H48      1.0000 0.35960  0.78950  0.31850  Biso   1.000  H
  C80      1.0000 0.52810  0.82950  0.43520  Biso   1.000  C
  C81      1.0000 0.65750  0.98030  0.37890  Biso   1.000  C
  C82      1.0000 0.58630  0.82400  0.50150  Biso   1.000  C
  C83      1.0000 0.71080  0.97060  0.45050  Biso   1.000  C
  H49      1.0000 0.67930  0.03090  0.33930  Biso   1.000  H
  H50      1.0000 0.56630  0.77030  0.53550  Biso   1.000  H
  C84      1.0000 0.67350  0.89580  0.51890  Biso   1.000  C
  H51      1.0000 0.77210  0.01360  0.45420  Biso   1.000  H
  H52      1.0000 0.70650  0.89610  0.57220  Biso   1.000  H
  N17      1.0000 0.43840  0.66510  0.88570  Biso   1.000  N
  C85      1.0000 0.42600  0.61600  0.95900  Biso   1.000  C
  C86      1.0000 0.53350  0.70110  0.86580  Biso   1.000  C
  N18      1.0000 0.49470  0.60560  0.98860  Biso   1.000  N
  H53      1.0000 0.37080  0.58820  0.99110  Biso   1.000  H
  C87      1.0000 0.58440  0.76110  0.79330  Biso   1.000  C
  C88      1.0000 0.57130  0.66330  0.93010  Biso   1.000  C
  C89      1.0000 0.49380  0.55290  0.06990  Biso   1.000  C
  H54      1.0000 0.56160  0.77810  0.74170  Biso   1.000  H
  C90      1.0000 0.67670  0.79170  0.81150  Biso   1.000  C
  C91      1.0000 0.65340  0.69210  0.93630  Biso   1.000  C
  C92      1.0000 0.54130  0.50370  0.07010  Biso   1.000  C
  C93      1.0000 0.44300  0.54920  0.15310  Biso   1.000  C
  H55      1.0000 0.71920  0.84340  0.77930  Biso   1.000  H
  C94      1.0000 0.70750  0.75220  0.87120  Biso   1.000  C
  H56      1.0000 0.67690  0.67250  0.98500  Biso   1.000  H
  H57      1.0000 0.57100  0.50130  0.01510  Biso   1.000  H
  C95      1.0000 0.54270  0.46080  0.15020  Biso   1.000  C
  C96      1.0000 0.44600  0.50440  0.23030  Biso   1.000  C
  H58      1.0000 0.40840  0.57750  0.15340  Biso   1.000  H
  H59      1.0000 0.76790  0.76690  0.86740  Biso   1.000  H
  C97      1.0000 0.59270  0.40850  0.15440  Biso   1.000  C
  C98      1.0000 0.49160  0.45960  0.23360  Biso   1.000  C
  N19      1.0000 0.39780  0.50690  0.31360  Biso   1.000  N
  O9       1.0000 0.64620  0.42310  0.08010  Biso   1.000  O
  O10      1.0000 0.57560  0.35550  0.21820  Biso   1.000  O
  H60      1.0000 0.49050  0.42810  0.28860  Biso   1.000  H
  C99      1.0000 0.39420  0.58240  0.34340  Biso   1.000  C
  C100     1.0000 0.33920  0.43900  0.37230  Biso   1.000  C
  N20      1.0000 0.56020  0.33050  0.91500  Biso   1.000  N
  H61      1.0000 0.42990  0.64040  0.31850  Biso   1.000  H
  C101     1.0000 0.30140  0.47190  0.43520  Biso   1.000  C
  C102     1.0000 0.32280  0.34250  0.37890  Biso   1.000  C
  C103     1.0000 0.23770  0.41370  0.50150  Biso   1.000  C
  C104     1.0000 0.25980  0.28920  0.45050  Biso   1.000  C
  H62      1.0000 0.35160  0.32070  0.33930  Biso   1.000  H
  H63      1.0000 0.20400  0.43370  0.53550  Biso   1.000  H
  C105     1.0000 0.22230  0.32650  0.51890  Biso   1.000  C
  H64      1.0000 0.24150  0.22790  0.45420  Biso   1.000  H
  H65      1.0000 0.18960  0.29350  0.57220  Biso   1.000  H
  N21      1.0000 0.22670  0.56160  0.88570  Biso   1.000  N
  C106     1.0000 0.19000  0.57400  0.95900  Biso   1.000  C
  C107     1.0000 0.16760  0.46650  0.86580  Biso   1.000  C
  N22      1.0000 0.11090  0.50530  0.98860  Biso   1.000  N
  H66      1.0000 0.21740  0.62920  0.99110  Biso   1.000  H
  C108     1.0000 0.17670  0.41560  0.79330  Biso   1.000  C
  C109     1.0000 0.09200  0.42870  0.93010  Biso   1.000  C
  C110     1.0000 0.05910  0.50620  0.06990  Biso   1.000  C
  H67      1.0000 0.21650  0.43840  0.74170  Biso   1.000  H
  C111     1.0000 0.11500  0.32330  0.81150  Biso   1.000  C
  C112     1.0000 0.03870  0.34660  0.93630  Biso   1.000  C
  C113     1.0000 0.96240  0.45870  0.07010  Biso   1.000  C
  C114     1.0000 0.10620  0.55700  0.15310  Biso   1.000  C
  H68      1.0000 0.12420  0.28080  0.77930  Biso   1.000  H
  C115     1.0000 0.04470  0.29250  0.87120  Biso   1.000  C
  H69      1.0000 0.99560  0.32310  0.98500  Biso   1.000  H
  H70      1.0000 0.93030  0.42900  0.01510  Biso   1.000  H
  C116     1.0000 0.91810  0.45730  0.15020  Biso   1.000  C
  C117     1.0000 0.05840  0.55400  0.23030  Biso   1.000  C
  H71      1.0000 0.16910  0.59160  0.15340  Biso   1.000  H
  H72      1.0000 0.99900  0.23210  0.86740  Biso   1.000  H
  C118     1.0000 0.81580  0.40730  0.15440  Biso   1.000  C
  C119     1.0000 0.96800  0.50840  0.23360  Biso   1.000  C
  N23      1.0000 0.10910  0.60220  0.31360  Biso   1.000  N
  O11      1.0000 0.77690  0.35380  0.08010  Biso   1.000  O
  O12      1.0000 0.77990  0.42440  0.21820  Biso   1.000  O
  H73      1.0000 0.93760  0.50950  0.28860  Biso   1.000  H
  C120     1.0000 0.18820  0.60580  0.34340  Biso   1.000  C
  C121     1.0000 0.09980  0.66080  0.37230  Biso   1.000  C
  N24      1.0000 0.77030  0.43980  0.91500  Biso   1.000  N
  H74      1.0000 0.21050  0.57010  0.31850  Biso   1.000  H
  C122     1.0000 0.17050  0.69860  0.43520  Biso   1.000  C
  C123     1.0000 0.01970  0.67720  0.37890  Biso   1.000  C
  C124     1.0000 0.17600  0.76230  0.50150  Biso   1.000  C
  C125     1.0000 0.02940  0.74020  0.45050  Biso   1.000  C
  H75      1.0000 0.96910  0.64840  0.33930  Biso   1.000  H
  H76      1.0000 0.22970  0.79600  0.53550  Biso   1.000  H
  C126     1.0000 0.10420  0.77770  0.51890  Biso   1.000  C
  H77      1.0000 0.98640  0.75850  0.45420  Biso   1.000  H
  H78      1.0000 0.10390  0.81040  0.57220  Biso   1.000  H
  Co1      1.0000 0.66667  0.33333  0.29820  Biso   1.000  Co
  Co2      1.0000 0.33333  0.66667  0.79820  Biso   1.000  Co
  Co3      1.0000 0.33333  0.66667  0.50328  Biso   1.000  Co
  Co4      1.0000 0.66667  0.33333  0.00328  Biso   1.000  Co
