data_image0
_cell_length_a       17.107
_cell_length_b       17.107
_cell_length_c       14.133
_cell_angle_alpha    90
_cell_angle_beta     90
_cell_angle_gamma    120

_symmetry_space_group_name_H-M    "P 1"
_symmetry_int_tables_number       1

loop_
  _symmetry_equiv_pos_as_xyz
  'x, y, z'

loop_
  _atom_site_label
  _atom_site_occupancy
  _atom_site_fract_x
  _atom_site_fract_y
  _atom_site_fract_z
  _atom_site_thermal_displace_type
  _atom_site_B_iso_or_equiv
  _atom_site_type_symbol
  O1       1.0000 0.78340  0.42690  0.18280  Biso   1.000  O
  N1       1.0000 0.11250  0.50310  0.40800  Biso   1.000  N
  N2       1.0000 0.22600  0.55690  0.51190  Biso   1.000  N
  C1       1.0000 0.96960  0.45790  0.32920  Biso   1.000  C
  H1       1.0000 0.93830  0.42470  0.38210  Biso   1.000  H
  C2       1.0000 0.06240  0.50420  0.32770  Biso   1.000  C
  C3       1.0000 0.18820  0.57570  0.44210  Biso   1.000  C
  H2       1.0000 0.21100  0.63360  0.41790  Biso   1.000  H
  C4       1.0000 0.10020  0.42890  0.46060  Biso   1.000  C
  C5       1.0000 0.03900  0.33730  0.45400  Biso   1.000  C
  H3       1.0000 0.99210  0.31470  0.41020  Biso   1.000  H
  C6       1.0000 0.05050  0.28150  0.51500  Biso   1.000  C
  H4       1.0000 0.01150  0.21950  0.51110  Biso   1.000  H
  C7       1.0000 0.11980  0.31550  0.58360  Biso   1.000  C
  H5       1.0000 0.12400  0.27610  0.62580  Biso   1.000  H
  C8       1.0000 0.18150  0.40700  0.58860  Biso   1.000  C
  H6       1.0000 0.22810  0.42940  0.63270  Biso   1.000  H
  C9       1.0000 0.17230  0.46430  0.52630  Biso   1.000  C
  O2       1.0000 0.57310  0.35650  0.18280  Biso   1.000  O
  N3       1.0000 0.49690  0.60940  0.40800  Biso   1.000  N
  N4       1.0000 0.44310  0.66910  0.51190  Biso   1.000  N
  C10      1.0000 0.54210  0.51170  0.32920  Biso   1.000  C
  H7       1.0000 0.57530  0.51360  0.38210  Biso   1.000  H
  C11      1.0000 0.49580  0.55820  0.32770  Biso   1.000  C
  C12      1.0000 0.42430  0.61250  0.44210  Biso   1.000  C
  H8       1.0000 0.36640  0.57740  0.41790  Biso   1.000  H
  C13      1.0000 0.57110  0.67130  0.46060  Biso   1.000  C
  C14      1.0000 0.66270  0.70170  0.45400  Biso   1.000  C
  H9       1.0000 0.68530  0.67740  0.41020  Biso   1.000  H
  C15      1.0000 0.71850  0.76900  0.51500  Biso   1.000  C
  H10      1.0000 0.78050  0.79200  0.51110  Biso   1.000  H
  C16      1.0000 0.68450  0.80430  0.58360  Biso   1.000  C
  H11      1.0000 0.72390  0.84790  0.62580  Biso   1.000  H
  C17      1.0000 0.59300  0.77450  0.58860  Biso   1.000  C
  H12      1.0000 0.57060  0.79870  0.63270  Biso   1.000  H
  C18      1.0000 0.53570  0.70800  0.52630  Biso   1.000  C
  O3       1.0000 0.64350  0.21660  0.18280  Biso   1.000  O
  N5       1.0000 0.39060  0.88750  0.40800  Biso   1.000  N
  N6       1.0000 0.33090  0.77400  0.51190  Biso   1.000  N
  C19      1.0000 0.48830  0.03040  0.32920  Biso   1.000  C
  H13      1.0000 0.48640  0.06170  0.38210  Biso   1.000  H
  C20      1.0000 0.44180  0.93760  0.32770  Biso   1.000  C
  C21      1.0000 0.38750  0.81180  0.44210  Biso   1.000  C
  H14      1.0000 0.42260  0.78900  0.41790  Biso   1.000  H
  C22      1.0000 0.32870  0.89980  0.46060  Biso   1.000  C
  C23      1.0000 0.29830  0.96100  0.45400  Biso   1.000  C
  H15      1.0000 0.32260  0.00790  0.41020  Biso   1.000  H
  C24      1.0000 0.23100  0.94950  0.51500  Biso   1.000  C
  H16      1.0000 0.20800  0.98850  0.51110  Biso   1.000  H
  C25      1.0000 0.19570  0.88020  0.58360  Biso   1.000  C
  H17      1.0000 0.15210  0.87600  0.62580  Biso   1.000  H
  C26      1.0000 0.22550  0.81850  0.58860  Biso   1.000  C
  H18      1.0000 0.20130  0.77190  0.63270  Biso   1.000  H
  C27      1.0000 0.29200  0.82770  0.52630  Biso   1.000  C
  O4       1.0000 0.57310  0.21660  0.31720  Biso   1.000  O
  N7       1.0000 0.49690  0.88750  0.09200  Biso   1.000  N
  N8       1.0000 0.44310  0.77400  0.98810  Biso   1.000  N
  C28      1.0000 0.54210  0.03040  0.17080  Biso   1.000  C
  H19      1.0000 0.57530  0.06170  0.11790  Biso   1.000  H
  C29      1.0000 0.49580  0.93760  0.17230  Biso   1.000  C
  C30      1.0000 0.42430  0.81180  0.05790  Biso   1.000  C
  H20      1.0000 0.36640  0.78900  0.08210  Biso   1.000  H
  C31      1.0000 0.57110  0.89980  0.03940  Biso   1.000  C
  C32      1.0000 0.66270  0.96100  0.04600  Biso   1.000  C
  H21      1.0000 0.68530  0.00790  0.08980  Biso   1.000  H
  C33      1.0000 0.71850  0.94950  0.98500  Biso   1.000  C
  H22      1.0000 0.78050  0.98850  0.98890  Biso   1.000  H
  C34      1.0000 0.68450  0.88020  0.91640  Biso   1.000  C
  H23      1.0000 0.72390  0.87600  0.87420  Biso   1.000  H
  C35      1.0000 0.59300  0.81850  0.91140  Biso   1.000  C
  H24      1.0000 0.57060  0.77190  0.86730  Biso   1.000  H
  C36      1.0000 0.53570  0.82770  0.97370  Biso   1.000  C
  O5       1.0000 0.64350  0.42690  0.31720  Biso   1.000  O
  N9       1.0000 0.39060  0.50310  0.09200  Biso   1.000  N
  N10      1.0000 0.33090  0.55690  0.98810  Biso   1.000  N
  C37      1.0000 0.48830  0.45790  0.17080  Biso   1.000  C
  H25      1.0000 0.48640  0.42470  0.11790  Biso   1.000  H
  C38      1.0000 0.44180  0.50420  0.17230  Biso   1.000  C
  C39      1.0000 0.38750  0.57570  0.05790  Biso   1.000  C
  H26      1.0000 0.42260  0.63360  0.08210  Biso   1.000  H
  C40      1.0000 0.32870  0.42890  0.03940  Biso   1.000  C
  C41      1.0000 0.29830  0.33730  0.04600  Biso   1.000  C
  H27      1.0000 0.32260  0.31470  0.08980  Biso   1.000  H
  C42      1.0000 0.23100  0.28150  0.98500  Biso   1.000  C
  H28      1.0000 0.20800  0.21950  0.98890  Biso   1.000  H
  C43      1.0000 0.19570  0.31550  0.91640  Biso   1.000  C
  H29      1.0000 0.15210  0.27610  0.87420  Biso   1.000  H
  C44      1.0000 0.22550  0.40700  0.91140  Biso   1.000  C
  H30      1.0000 0.20130  0.42940  0.86730  Biso   1.000  H
  C45      1.0000 0.29200  0.46430  0.97370  Biso   1.000  C
  O6       1.0000 0.78340  0.35650  0.31720  Biso   1.000  O
  N11      1.0000 0.11250  0.60940  0.09200  Biso   1.000  N
  N12      1.0000 0.22600  0.66910  0.98810  Biso   1.000  N
  C46      1.0000 0.96960  0.51170  0.17080  Biso   1.000  C
  H31      1.0000 0.93830  0.51360  0.11790  Biso   1.000  H
  C47      1.0000 0.06240  0.55820  0.17230  Biso   1.000  C
  C48      1.0000 0.18820  0.61250  0.05790  Biso   1.000  C
  H32      1.0000 0.21100  0.57740  0.08210  Biso   1.000  H
  C49      1.0000 0.10020  0.67130  0.03940  Biso   1.000  C
  C50      1.0000 0.03900  0.70170  0.04600  Biso   1.000  C
  H33      1.0000 0.99210  0.67740  0.08980  Biso   1.000  H
  C51      1.0000 0.05050  0.76900  0.98500  Biso   1.000  C
  H34      1.0000 0.01150  0.79200  0.98890  Biso   1.000  H
  C52      1.0000 0.11980  0.80430  0.91640  Biso   1.000  C
  H35      1.0000 0.12400  0.84790  0.87420  Biso   1.000  H
  C53      1.0000 0.18150  0.77450  0.91140  Biso   1.000  C
  H36      1.0000 0.22810  0.79870  0.86730  Biso   1.000  H
  C54      1.0000 0.17230  0.70800  0.97370  Biso   1.000  C
  O7       1.0000 0.21660  0.57310  0.81720  Biso   1.000  O
  N13      1.0000 0.88750  0.49690  0.59200  Biso   1.000  N
  N14      1.0000 0.77400  0.44310  0.48810  Biso   1.000  N
  C55      1.0000 0.03040  0.54210  0.67080  Biso   1.000  C
  H37      1.0000 0.06170  0.57530  0.61790  Biso   1.000  H
  C56      1.0000 0.93760  0.49580  0.67230  Biso   1.000  C
  C57      1.0000 0.81180  0.42430  0.55790  Biso   1.000  C
  H38      1.0000 0.78900  0.36640  0.58210  Biso   1.000  H
  C58      1.0000 0.89980  0.57110  0.53940  Biso   1.000  C
  C59      1.0000 0.96100  0.66270  0.54600  Biso   1.000  C
  H39      1.0000 0.00790  0.68530  0.58980  Biso   1.000  H
  C60      1.0000 0.94950  0.71850  0.48500  Biso   1.000  C
  H40      1.0000 0.98850  0.78050  0.48890  Biso   1.000  H
  C61      1.0000 0.88020  0.68450  0.41640  Biso   1.000  C
  H41      1.0000 0.87600  0.72390  0.37420  Biso   1.000  H
  C62      1.0000 0.81850  0.59300  0.41140  Biso   1.000  C
  H42      1.0000 0.77190  0.57060  0.36730  Biso   1.000  H
  C63      1.0000 0.82770  0.53570  0.47370  Biso   1.000  C
  O8       1.0000 0.42690  0.64350  0.81720  Biso   1.000  O
  N15      1.0000 0.50310  0.39060  0.59200  Biso   1.000  N
  N16      1.0000 0.55690  0.33090  0.48810  Biso   1.000  N
  C64      1.0000 0.45790  0.48830  0.67080  Biso   1.000  C
  H43      1.0000 0.42470  0.48640  0.61790  Biso   1.000  H
  C65      1.0000 0.50420  0.44180  0.67230  Biso   1.000  C
  C66      1.0000 0.57570  0.38750  0.55790  Biso   1.000  C
  H44      1.0000 0.63360  0.42260  0.58210  Biso   1.000  H
  C67      1.0000 0.42890  0.32870  0.53940  Biso   1.000  C
  C68      1.0000 0.33730  0.29830  0.54600  Biso   1.000  C
  H45      1.0000 0.31470  0.32260  0.58980  Biso   1.000  H
  C69      1.0000 0.28150  0.23100  0.48500  Biso   1.000  C
  H46      1.0000 0.21950  0.20800  0.48890  Biso   1.000  H
  C70      1.0000 0.31550  0.19570  0.41640  Biso   1.000  C
  H47      1.0000 0.27610  0.15210  0.37420  Biso   1.000  H
  C71      1.0000 0.40700  0.22550  0.41140  Biso   1.000  C
  H48      1.0000 0.42940  0.20130  0.36730  Biso   1.000  H
  C72      1.0000 0.46430  0.29200  0.47370  Biso   1.000  C
  O9       1.0000 0.35650  0.78340  0.81720  Biso   1.000  O
  N17      1.0000 0.60940  0.11250  0.59200  Biso   1.000  N
  N18      1.0000 0.66910  0.22600  0.48810  Biso   1.000  N
  C73      1.0000 0.51170  0.96960  0.67080  Biso   1.000  C
  H49      1.0000 0.51360  0.93830  0.61790  Biso   1.000  H
  C74      1.0000 0.55820  0.06240  0.67230  Biso   1.000  C
  C75      1.0000 0.61250  0.18820  0.55790  Biso   1.000  C
  H50      1.0000 0.57740  0.21100  0.58210  Biso   1.000  H
  C76      1.0000 0.67130  0.10020  0.53940  Biso   1.000  C
  C77      1.0000 0.70170  0.03900  0.54600  Biso   1.000  C
  H51      1.0000 0.67740  0.99210  0.58980  Biso   1.000  H
  C78      1.0000 0.76900  0.05050  0.48500  Biso   1.000  C
  H52      1.0000 0.79200  0.01150  0.48890  Biso   1.000  H
  C79      1.0000 0.80430  0.11980  0.41640  Biso   1.000  C
  H53      1.0000 0.84790  0.12400  0.37420  Biso   1.000  H
  C80      1.0000 0.77450  0.18150  0.41140  Biso   1.000  C
  H54      1.0000 0.79870  0.22810  0.36730  Biso   1.000  H
  C81      1.0000 0.70800  0.17230  0.47370  Biso   1.000  C
  O10      1.0000 0.42690  0.78340  0.68280  Biso   1.000  O
  N19      1.0000 0.50310  0.11250  0.90800  Biso   1.000  N
  N20      1.0000 0.55690  0.22600  0.01190  Biso   1.000  N
  C82      1.0000 0.45790  0.96960  0.82920  Biso   1.000  C
  H55      1.0000 0.42470  0.93830  0.88210  Biso   1.000  H
  C83      1.0000 0.50420  0.06240  0.82770  Biso   1.000  C
  C84      1.0000 0.57570  0.18820  0.94210  Biso   1.000  C
  H56      1.0000 0.63360  0.21100  0.91790  Biso   1.000  H
  C85      1.0000 0.42890  0.10020  0.96060  Biso   1.000  C
  C86      1.0000 0.33730  0.03900  0.95400  Biso   1.000  C
  H57      1.0000 0.31470  0.99210  0.91020  Biso   1.000  H
  C87      1.0000 0.28150  0.05050  0.01500  Biso   1.000  C
  H58      1.0000 0.21950  0.01150  0.01110  Biso   1.000  H
  C88      1.0000 0.31550  0.11980  0.08360  Biso   1.000  C
  H59      1.0000 0.27610  0.12400  0.12580  Biso   1.000  H
  C89      1.0000 0.40700  0.18150  0.08860  Biso   1.000  C
  H60      1.0000 0.42940  0.22810  0.13270  Biso   1.000  H
  C90      1.0000 0.46430  0.17230  0.02630  Biso   1.000  C
  O11      1.0000 0.35650  0.57310  0.68280  Biso   1.000  O
  N21      1.0000 0.60940  0.49690  0.90800  Biso   1.000  N
  N22      1.0000 0.66910  0.44310  0.01190  Biso   1.000  N
  C91      1.0000 0.51170  0.54210  0.82920  Biso   1.000  C
  H61      1.0000 0.51360  0.57530  0.88210  Biso   1.000  H
  C92      1.0000 0.55820  0.49580  0.82770  Biso   1.000  C
  C93      1.0000 0.61250  0.42430  0.94210  Biso   1.000  C
  H62      1.0000 0.57740  0.36640  0.91790  Biso   1.000  H
  C94      1.0000 0.67130  0.57110  0.96060  Biso   1.000  C
  C95      1.0000 0.70170  0.66270  0.95400  Biso   1.000  C
  H63      1.0000 0.67740  0.68530  0.91020  Biso   1.000  H
  C96      1.0000 0.76900  0.71850  0.01500  Biso   1.000  C
  H64      1.0000 0.79200  0.78050  0.01110  Biso   1.000  H
  C97      1.0000 0.80430  0.68450  0.08360  Biso   1.000  C
  H65      1.0000 0.84790  0.72390  0.12580  Biso   1.000  H
  C98      1.0000 0.77450  0.59300  0.08860  Biso   1.000  C
  H66      1.0000 0.79870  0.57060  0.13270  Biso   1.000  H
  C99      1.0000 0.70800  0.53570  0.02630  Biso   1.000  C
  O12      1.0000 0.21660  0.64350  0.68280  Biso   1.000  O
  N23      1.0000 0.88750  0.39060  0.90800  Biso   1.000  N
  N24      1.0000 0.77400  0.33090  0.01190  Biso   1.000  N
  C100     1.0000 0.03040  0.48830  0.82920  Biso   1.000  C
  H67      1.0000 0.06170  0.48640  0.88210  Biso   1.000  H
  C101     1.0000 0.93760  0.44180  0.82770  Biso   1.000  C
  C102     1.0000 0.81180  0.38750  0.94210  Biso   1.000  C
  H68      1.0000 0.78900  0.42260  0.91790  Biso   1.000  H
  C103     1.0000 0.89980  0.32870  0.96060  Biso   1.000  C
  C104     1.0000 0.96100  0.29830  0.95400  Biso   1.000  C
  H69      1.0000 0.00790  0.32260  0.91020  Biso   1.000  H
  C105     1.0000 0.94950  0.23100  0.01500  Biso   1.000  C
  H70      1.0000 0.98850  0.20800  0.01110  Biso   1.000  H
  C106     1.0000 0.88020  0.19570  0.08360  Biso   1.000  C
  H71      1.0000 0.87600  0.15210  0.12580  Biso   1.000  H
  C107     1.0000 0.81850  0.22550  0.08860  Biso   1.000  C
  H72      1.0000 0.77190  0.20130  0.13270  Biso   1.000  H
  C108     1.0000 0.82770  0.29200  0.02630  Biso   1.000  C
  Mn1      1.0000 0.66667  0.33333  0.10675  Biso   1.000  Mn
  Mn2      1.0000 0.66667  0.33333  0.39325  Biso   1.000  Mn
  Mn3      1.0000 0.33333  0.66667  0.89325  Biso   1.000  Mn
  Mn4      1.0000 0.33333  0.66667  0.60675  Biso   1.000  Mn
  C109     1.0000 0.82120  0.41060  0.25000  Biso   1.000  C
  C110     1.0000 0.92360  0.46180  0.25000  Biso   1.000  C
  C111     1.0000 0.11000  0.55500  0.25000  Biso   1.000  C
  H73      1.0000 0.17270  0.58635  0.25000  Biso   1.000  H
  C112     1.0000 0.58940  0.41060  0.25000  Biso   1.000  C
  C113     1.0000 0.53820  0.46180  0.25000  Biso   1.000  C
  C114     1.0000 0.44500  0.55500  0.25000  Biso   1.000  C
  H74      1.0000 0.41365  0.58635  0.25000  Biso   1.000  H
  C115     1.0000 0.58940  0.17880  0.25000  Biso   1.000  C
  C116     1.0000 0.53820  0.07640  0.25000  Biso   1.000  C
  C117     1.0000 0.44500  0.89000  0.25000  Biso   1.000  C
  H75      1.0000 0.41365  0.82730  0.25000  Biso   1.000  H
  C118     1.0000 0.17880  0.58940  0.75000  Biso   1.000  C
  C119     1.0000 0.07640  0.53820  0.75000  Biso   1.000  C
  C120     1.0000 0.89000  0.44500  0.75000  Biso   1.000  C
  H76      1.0000 0.82730  0.41365  0.75000  Biso   1.000  H
  C121     1.0000 0.41060  0.58940  0.75000  Biso   1.000  C
  C122     1.0000 0.46180  0.53820  0.75000  Biso   1.000  C
  C123     1.0000 0.55500  0.44500  0.75000  Biso   1.000  C
  H77      1.0000 0.58635  0.41365  0.75000  Biso   1.000  H
  C124     1.0000 0.41060  0.82120  0.75000  Biso   1.000  C
  C125     1.0000 0.46180  0.92360  0.75000  Biso   1.000  C
  C126     1.0000 0.55500  0.11000  0.75000  Biso   1.000  C
  H78      1.0000 0.58635  0.17270  0.75000  Biso   1.000  H
