data_image0
_cell_length_a       17.966
_cell_length_b       27.989
_cell_length_c       14.141
_cell_angle_alpha    90
_cell_angle_beta     92.381
_cell_angle_gamma    90

_symmetry_space_group_name_H-M    "P 1"
_symmetry_int_tables_number       1

loop_
  _symmetry_equiv_pos_as_xyz
  'x, y, z'

loop_
  _atom_site_label
  _atom_site_occupancy
  _atom_site_fract_x
  _atom_site_fract_y
  _atom_site_fract_z
  _atom_site_thermal_displace_type
  _atom_site_B_iso_or_equiv
  _atom_site_type_symbol
  Mn1      1.0000 0.00414  0.17825  0.10681  Biso   1.000  Mn
  O1       1.0000 0.03650  0.11650  0.18720  Biso   1.000  O
  N1       1.0000 0.95810  0.23590  0.00700  Biso   1.000  N
  N2       1.0000 0.10790  0.17580  0.01810  Biso   1.000  N
  O2       1.0000 0.89950  0.19040  0.16860  Biso   1.000  O
  O3       1.0000 0.07080  0.22590  0.19180  Biso   1.000  O
  N3       1.0000 0.95180  0.11930  0.01110  Biso   1.000  N
  C1       1.0000 0.88450  0.21470  0.24140  Biso   1.000  C
  C2       1.0000 0.80500  0.23120  0.24610  Biso   1.000  C
  C3       1.0000 0.02430  0.01740  0.17130  Biso   1.000  C
  C4       1.0000 0.75460  0.22490  0.16980  Biso   1.000  C
  C5       1.0000 0.78320  0.25480  0.32720  Biso   1.000  C
  H1       1.0000 0.04020  0.03400  0.11890  Biso   1.000  H
  C6       1.0000 0.02450  0.96810  0.17220  Biso   1.000  C
  C7       1.0000 0.68270  0.24150  0.17640  Biso   1.000  C
  H2       1.0000 0.76920  0.20980  0.11500  Biso   1.000  H
  C8       1.0000 0.71120  0.27140  0.33160  Biso   1.000  C
  H3       1.0000 0.81700  0.25930  0.37810  Biso   1.000  H
  N4       1.0000 0.04680  0.94160  0.09280  Biso   1.000  N
  N5       1.0000 0.63050  0.23800  0.09780  Biso   1.000  N
  C9       1.0000 0.66060  0.26500  0.25560  Biso   1.000  C
  N6       1.0000 0.68800  0.29610  0.41380  Biso   1.000  N
  C10      1.0000 0.01460  0.90030  0.06020  Biso   1.000  C
  C11      1.0000 0.10850  0.94960  0.03740  Biso   1.000  C
  C12      1.0000 0.60750  0.19820  0.04540  Biso   1.000  C
  C13      1.0000 0.58890  0.27540  0.06350  Biso   1.000  C
  H4       1.0000 0.61220  0.27660  0.25850  Biso   1.000  H
  C14      1.0000 0.72640  0.33100  0.46620  Biso   1.000  C
  C15      1.0000 0.61840  0.29410  0.44750  Biso   1.000  C
  H5       1.0000 0.97250  0.88720  0.08610  Biso   1.000  H
  C16      1.0000 0.10820  0.91130  0.97220  Biso   1.000  C
  C17      1.0000 0.16430  0.98350  0.04100  Biso   1.000  C
  C18      1.0000 0.62780  0.15050  0.05090  Biso   1.000  C
  C19      1.0000 0.55280  0.21510  0.97940  Biso   1.000  C
  H6       1.0000 0.59320  0.30620  0.08770  Biso   1.000  H
  C20      1.0000 0.79700  0.35090  0.46000  Biso   1.000  C
  C21      1.0000 0.67560  0.34800  0.53130  Biso   1.000  C
  H7       1.0000 0.58160  0.27360  0.42340  Biso   1.000  H
  C22      1.0000 0.16310  0.90830  0.90640  Biso   1.000  C
  C23      1.0000 0.21840  0.98020  0.97610  Biso   1.000  C
  H8       1.0000 0.16500  0.00780  0.08580  Biso   1.000  H
  H9       1.0000 0.66370  0.13970  0.09500  Biso   1.000  H
  C24      1.0000 0.59180  0.12000  0.98730  Biso   1.000  C
  C25      1.0000 0.51840  0.18400  0.91440  Biso   1.000  C
  H10      1.0000 0.83010  0.33990  0.41610  Biso   1.000  H
  C26      1.0000 0.81600  0.38740  0.52100  Biso   1.000  C
  C27      1.0000 0.69640  0.38390  0.59490  Biso   1.000  C
  H11      1.0000 0.16330  0.88380  0.86210  Biso   1.000  H
  C28      1.0000 0.21760  0.94340  0.90900  Biso   1.000  C
  H12      1.0000 0.25640  0.00270  0.97660  Biso   1.000  H
  C29      1.0000 0.53770  0.13620  0.91960  Biso   1.000  C
  H13      1.0000 0.60370  0.08760  0.98920  Biso   1.000  H
  H14      1.0000 0.48370  0.19500  0.86890  Biso   1.000  H
  C30      1.0000 0.76700  0.40350  0.58840  Biso   1.000  C
  H15      1.0000 0.86250  0.40180  0.51750  Biso   1.000  H
  H16      1.0000 0.66410  0.39450  0.64020  Biso   1.000  H
  H17      1.0000 0.25460  0.94240  0.86510  Biso   1.000  H
  H18      1.0000 0.51470  0.11450  0.87800  Biso   1.000  H
  H19      1.0000 0.78200  0.42780  0.62970  Biso   1.000  H
  Mn2      1.0000 0.50414  0.67825  0.10681  Biso   1.000  Mn
  O4       1.0000 0.53650  0.61650  0.18720  Biso   1.000  O
  N7       1.0000 0.45810  0.73590  0.00700  Biso   1.000  N
  N8       1.0000 0.60790  0.67580  0.01810  Biso   1.000  N
  O5       1.0000 0.39950  0.69040  0.16860  Biso   1.000  O
  O6       1.0000 0.57080  0.72590  0.19180  Biso   1.000  O
  N9       1.0000 0.45180  0.61930  0.01110  Biso   1.000  N
  C31      1.0000 0.38450  0.71470  0.24140  Biso   1.000  C
  C32      1.0000 0.30500  0.73120  0.24610  Biso   1.000  C
  C33      1.0000 0.52430  0.51740  0.17130  Biso   1.000  C
  C34      1.0000 0.25460  0.72490  0.16980  Biso   1.000  C
  C35      1.0000 0.28320  0.75480  0.32720  Biso   1.000  C
  H20      1.0000 0.54020  0.53400  0.11890  Biso   1.000  H
  C36      1.0000 0.52450  0.46810  0.17220  Biso   1.000  C
  C37      1.0000 0.18270  0.74150  0.17640  Biso   1.000  C
  H21      1.0000 0.26920  0.70980  0.11500  Biso   1.000  H
  C38      1.0000 0.21120  0.77140  0.33160  Biso   1.000  C
  H22      1.0000 0.31700  0.75930  0.37810  Biso   1.000  H
  N10      1.0000 0.54680  0.44160  0.09280  Biso   1.000  N
  N11      1.0000 0.13050  0.73800  0.09780  Biso   1.000  N
  C39      1.0000 0.16060  0.76500  0.25560  Biso   1.000  C
  N12      1.0000 0.18800  0.79610  0.41380  Biso   1.000  N
  C40      1.0000 0.51460  0.40030  0.06020  Biso   1.000  C
  C41      1.0000 0.60850  0.44960  0.03740  Biso   1.000  C
  C42      1.0000 0.10750  0.69820  0.04540  Biso   1.000  C
  C43      1.0000 0.08890  0.77540  0.06350  Biso   1.000  C
  H23      1.0000 0.11220  0.77660  0.25850  Biso   1.000  H
  C44      1.0000 0.22640  0.83100  0.46620  Biso   1.000  C
  C45      1.0000 0.11840  0.79410  0.44750  Biso   1.000  C
  H24      1.0000 0.47250  0.38720  0.08610  Biso   1.000  H
  C46      1.0000 0.60820  0.41130  0.97220  Biso   1.000  C
  C47      1.0000 0.66430  0.48350  0.04100  Biso   1.000  C
  C48      1.0000 0.12780  0.65050  0.05090  Biso   1.000  C
  C49      1.0000 0.05280  0.71510  0.97940  Biso   1.000  C
  H25      1.0000 0.09320  0.80620  0.08770  Biso   1.000  H
  C50      1.0000 0.29700  0.85090  0.46000  Biso   1.000  C
  C51      1.0000 0.17560  0.84800  0.53130  Biso   1.000  C
  H26      1.0000 0.08160  0.77360  0.42340  Biso   1.000  H
  C52      1.0000 0.66310  0.40830  0.90640  Biso   1.000  C
  C53      1.0000 0.71840  0.48020  0.97610  Biso   1.000  C
  H27      1.0000 0.66500  0.50780  0.08580  Biso   1.000  H
  H28      1.0000 0.16370  0.63970  0.09500  Biso   1.000  H
  C54      1.0000 0.09180  0.62000  0.98730  Biso   1.000  C
  C55      1.0000 0.01840  0.68400  0.91440  Biso   1.000  C
  H29      1.0000 0.33010  0.83990  0.41610  Biso   1.000  H
  C56      1.0000 0.31600  0.88740  0.52100  Biso   1.000  C
  C57      1.0000 0.19640  0.88390  0.59490  Biso   1.000  C
  H30      1.0000 0.66330  0.38380  0.86210  Biso   1.000  H
  C58      1.0000 0.71760  0.44340  0.90900  Biso   1.000  C
  H31      1.0000 0.75640  0.50270  0.97660  Biso   1.000  H
  C59      1.0000 0.03770  0.63620  0.91960  Biso   1.000  C
  H32      1.0000 0.10370  0.58760  0.98920  Biso   1.000  H
  H33      1.0000 0.98370  0.69500  0.86890  Biso   1.000  H
  C60      1.0000 0.26700  0.90350  0.58840  Biso   1.000  C
  H34      1.0000 0.36250  0.90180  0.51750  Biso   1.000  H
  H35      1.0000 0.16410  0.89450  0.64020  Biso   1.000  H
  H36      1.0000 0.75460  0.44240  0.86510  Biso   1.000  H
  H37      1.0000 0.01470  0.61450  0.87800  Biso   1.000  H
  H38      1.0000 0.28200  0.92780  0.62970  Biso   1.000  H
  Mn3      1.0000 0.99586  0.17825  0.39319  Biso   1.000  Mn
  O7       1.0000 0.96350  0.11650  0.31280  Biso   1.000  O
  N13      1.0000 0.04190  0.23590  0.49300  Biso   1.000  N
  N14      1.0000 0.89210  0.17580  0.48190  Biso   1.000  N
  O8       1.0000 0.10050  0.19040  0.33140  Biso   1.000  O
  O9       1.0000 0.92920  0.22590  0.30820  Biso   1.000  O
  N15      1.0000 0.04820  0.11930  0.48890  Biso   1.000  N
  C61      1.0000 0.11550  0.21470  0.25860  Biso   1.000  C
  C62      1.0000 0.19500  0.23120  0.25390  Biso   1.000  C
  C63      1.0000 0.97570  0.01740  0.32870  Biso   1.000  C
  C64      1.0000 0.24540  0.22490  0.33020  Biso   1.000  C
  C65      1.0000 0.21680  0.25480  0.17280  Biso   1.000  C
  H39      1.0000 0.95980  0.03400  0.38110  Biso   1.000  H
  C66      1.0000 0.97550  0.96810  0.32780  Biso   1.000  C
  C67      1.0000 0.31730  0.24150  0.32360  Biso   1.000  C
  H40      1.0000 0.23080  0.20980  0.38500  Biso   1.000  H
  C68      1.0000 0.28880  0.27140  0.16840  Biso   1.000  C
  H41      1.0000 0.18300  0.25930  0.12190  Biso   1.000  H
  N16      1.0000 0.95320  0.94160  0.40720  Biso   1.000  N
  N17      1.0000 0.36950  0.23800  0.40220  Biso   1.000  N
  C69      1.0000 0.33940  0.26500  0.24440  Biso   1.000  C
  N18      1.0000 0.31200  0.29610  0.08620  Biso   1.000  N
  C70      1.0000 0.98540  0.90030  0.43980  Biso   1.000  C
  C71      1.0000 0.89150  0.94960  0.46260  Biso   1.000  C
  C72      1.0000 0.39250  0.19820  0.45460  Biso   1.000  C
  C73      1.0000 0.41110  0.27540  0.43650  Biso   1.000  C
  H42      1.0000 0.38780  0.27660  0.24150  Biso   1.000  H
  C74      1.0000 0.27360  0.33100  0.03380  Biso   1.000  C
  C75      1.0000 0.38160  0.29410  0.05250  Biso   1.000  C
  H43      1.0000 0.02750  0.88720  0.41390  Biso   1.000  H
  C76      1.0000 0.89180  0.91130  0.52780  Biso   1.000  C
  C77      1.0000 0.83570  0.98350  0.45900  Biso   1.000  C
  C78      1.0000 0.37220  0.15050  0.44910  Biso   1.000  C
  C79      1.0000 0.44720  0.21510  0.52060  Biso   1.000  C
  H44      1.0000 0.40680  0.30620  0.41230  Biso   1.000  H
  C80      1.0000 0.20300  0.35090  0.04000  Biso   1.000  C
  C81      1.0000 0.32440  0.34800  0.96870  Biso   1.000  C
  H45      1.0000 0.41840  0.27360  0.07660  Biso   1.000  H
  C82      1.0000 0.83690  0.90830  0.59360  Biso   1.000  C
  C83      1.0000 0.78160  0.98020  0.52390  Biso   1.000  C
  H46      1.0000 0.83500  0.00780  0.41420  Biso   1.000  H
  H47      1.0000 0.33630  0.13970  0.40500  Biso   1.000  H
  C84      1.0000 0.40820  0.12000  0.51270  Biso   1.000  C
  C85      1.0000 0.48160  0.18400  0.58560  Biso   1.000  C
  H48      1.0000 0.16990  0.33990  0.08390  Biso   1.000  H
  C86      1.0000 0.18400  0.38740  0.97900  Biso   1.000  C
  C87      1.0000 0.30360  0.38390  0.90510  Biso   1.000  C
  H49      1.0000 0.83670  0.88380  0.63790  Biso   1.000  H
  C88      1.0000 0.78240  0.94340  0.59100  Biso   1.000  C
  H50      1.0000 0.74360  0.00270  0.52340  Biso   1.000  H
  C89      1.0000 0.46230  0.13620  0.58040  Biso   1.000  C
  H51      1.0000 0.39630  0.08760  0.51080  Biso   1.000  H
  H52      1.0000 0.51630  0.19500  0.63110  Biso   1.000  H
  C90      1.0000 0.23300  0.40350  0.91160  Biso   1.000  C
  H53      1.0000 0.13750  0.40180  0.98250  Biso   1.000  H
  H54      1.0000 0.33590  0.39450  0.85980  Biso   1.000  H
  H55      1.0000 0.74540  0.94240  0.63490  Biso   1.000  H
  H56      1.0000 0.48530  0.11450  0.62200  Biso   1.000  H
  H57      1.0000 0.21800  0.42780  0.87030  Biso   1.000  H
  Mn4      1.0000 0.49586  0.67825  0.39319  Biso   1.000  Mn
  O10      1.0000 0.46350  0.61650  0.31280  Biso   1.000  O
  N19      1.0000 0.54190  0.73590  0.49300  Biso   1.000  N
  N20      1.0000 0.39210  0.67580  0.48190  Biso   1.000  N
  O11      1.0000 0.60050  0.69040  0.33140  Biso   1.000  O
  O12      1.0000 0.42920  0.72590  0.30820  Biso   1.000  O
  N21      1.0000 0.54820  0.61930  0.48890  Biso   1.000  N
  C91      1.0000 0.61550  0.71470  0.25860  Biso   1.000  C
  C92      1.0000 0.69500  0.73120  0.25390  Biso   1.000  C
  C93      1.0000 0.47570  0.51740  0.32870  Biso   1.000  C
  C94      1.0000 0.74540  0.72490  0.33020  Biso   1.000  C
  C95      1.0000 0.71680  0.75480  0.17280  Biso   1.000  C
  H58      1.0000 0.45980  0.53400  0.38110  Biso   1.000  H
  C96      1.0000 0.47550  0.46810  0.32780  Biso   1.000  C
  C97      1.0000 0.81730  0.74150  0.32360  Biso   1.000  C
  H59      1.0000 0.73080  0.70980  0.38500  Biso   1.000  H
  C98      1.0000 0.78880  0.77140  0.16840  Biso   1.000  C
  H60      1.0000 0.68300  0.75930  0.12190  Biso   1.000  H
  N22      1.0000 0.45320  0.44160  0.40720  Biso   1.000  N
  N23      1.0000 0.86950  0.73800  0.40220  Biso   1.000  N
  C99      1.0000 0.83940  0.76500  0.24440  Biso   1.000  C
  N24      1.0000 0.81200  0.79610  0.08620  Biso   1.000  N
  C100     1.0000 0.48540  0.40030  0.43980  Biso   1.000  C
  C101     1.0000 0.39150  0.44960  0.46260  Biso   1.000  C
  C102     1.0000 0.89250  0.69820  0.45460  Biso   1.000  C
  C103     1.0000 0.91110  0.77540  0.43650  Biso   1.000  C
  H61      1.0000 0.88780  0.77660  0.24150  Biso   1.000  H
  C104     1.0000 0.77360  0.83100  0.03380  Biso   1.000  C
  C105     1.0000 0.88160  0.79410  0.05250  Biso   1.000  C
  H62      1.0000 0.52750  0.38720  0.41390  Biso   1.000  H
  C106     1.0000 0.39180  0.41130  0.52780  Biso   1.000  C
  C107     1.0000 0.33570  0.48350  0.45900  Biso   1.000  C
  C108     1.0000 0.87220  0.65050  0.44910  Biso   1.000  C
  C109     1.0000 0.94720  0.71510  0.52060  Biso   1.000  C
  H63      1.0000 0.90680  0.80620  0.41230  Biso   1.000  H
  C110     1.0000 0.70300  0.85090  0.04000  Biso   1.000  C
  C111     1.0000 0.82440  0.84800  0.96870  Biso   1.000  C
  H64      1.0000 0.91840  0.77360  0.07660  Biso   1.000  H
  C112     1.0000 0.33690  0.40830  0.59360  Biso   1.000  C
  C113     1.0000 0.28160  0.48020  0.52390  Biso   1.000  C
  H65      1.0000 0.33500  0.50780  0.41420  Biso   1.000  H
  H66      1.0000 0.83630  0.63970  0.40500  Biso   1.000  H
  C114     1.0000 0.90820  0.62000  0.51270  Biso   1.000  C
  C115     1.0000 0.98160  0.68400  0.58560  Biso   1.000  C
  H67      1.0000 0.66990  0.83990  0.08390  Biso   1.000  H
  C116     1.0000 0.68400  0.88740  0.97900  Biso   1.000  C
  C117     1.0000 0.80360  0.88390  0.90510  Biso   1.000  C
  H68      1.0000 0.33670  0.38380  0.63790  Biso   1.000  H
  C118     1.0000 0.28240  0.44340  0.59100  Biso   1.000  C
  H69      1.0000 0.24360  0.50270  0.52340  Biso   1.000  H
  C119     1.0000 0.96230  0.63620  0.58040  Biso   1.000  C
  H70      1.0000 0.89630  0.58760  0.51080  Biso   1.000  H
  H71      1.0000 0.01630  0.69500  0.63110  Biso   1.000  H
  C120     1.0000 0.73300  0.90350  0.91160  Biso   1.000  C
  H72      1.0000 0.63750  0.90180  0.98250  Biso   1.000  H
  H73      1.0000 0.83590  0.89450  0.85980  Biso   1.000  H
  H74      1.0000 0.24540  0.44240  0.63490  Biso   1.000  H
  H75      1.0000 0.98530  0.61450  0.62200  Biso   1.000  H
  H76      1.0000 0.71800  0.92780  0.87030  Biso   1.000  H
  Mn5      1.0000 0.99586  0.82175  0.89319  Biso   1.000  Mn
  O13      1.0000 0.96350  0.88350  0.81280  Biso   1.000  O
  N25      1.0000 0.04190  0.76410  0.99300  Biso   1.000  N
  N26      1.0000 0.89210  0.82420  0.98190  Biso   1.000  N
  O14      1.0000 0.10050  0.80960  0.83140  Biso   1.000  O
  O15      1.0000 0.92920  0.77410  0.80820  Biso   1.000  O
  N27      1.0000 0.04820  0.88070  0.98890  Biso   1.000  N
  C121     1.0000 0.11550  0.78530  0.75860  Biso   1.000  C
  C122     1.0000 0.19500  0.76880  0.75390  Biso   1.000  C
  C123     1.0000 0.97570  0.98260  0.82870  Biso   1.000  C
  C124     1.0000 0.24540  0.77510  0.83020  Biso   1.000  C
  C125     1.0000 0.21680  0.74520  0.67280  Biso   1.000  C
  H77      1.0000 0.95980  0.96600  0.88110  Biso   1.000  H
  C126     1.0000 0.97550  0.03190  0.82780  Biso   1.000  C
  C127     1.0000 0.31730  0.75850  0.82360  Biso   1.000  C
  H78      1.0000 0.23080  0.79020  0.88500  Biso   1.000  H
  C128     1.0000 0.28880  0.72860  0.66840  Biso   1.000  C
  H79      1.0000 0.18300  0.74070  0.62190  Biso   1.000  H
  N28      1.0000 0.95320  0.05840  0.90720  Biso   1.000  N
  N29      1.0000 0.36950  0.76200  0.90220  Biso   1.000  N
  C129     1.0000 0.33940  0.73500  0.74440  Biso   1.000  C
  N30      1.0000 0.31200  0.70390  0.58620  Biso   1.000  N
  C130     1.0000 0.98540  0.09970  0.93980  Biso   1.000  C
  C131     1.0000 0.89150  0.05040  0.96260  Biso   1.000  C
  C132     1.0000 0.39250  0.80180  0.95460  Biso   1.000  C
  C133     1.0000 0.41110  0.72460  0.93650  Biso   1.000  C
  H80      1.0000 0.38780  0.72340  0.74150  Biso   1.000  H
  C134     1.0000 0.27360  0.66900  0.53380  Biso   1.000  C
  C135     1.0000 0.38160  0.70590  0.55250  Biso   1.000  C
  H81      1.0000 0.02750  0.11280  0.91390  Biso   1.000  H
  C136     1.0000 0.89180  0.08870  0.02780  Biso   1.000  C
  C137     1.0000 0.83570  0.01650  0.95900  Biso   1.000  C
  C138     1.0000 0.37220  0.84950  0.94910  Biso   1.000  C
  C139     1.0000 0.44720  0.78490  0.02060  Biso   1.000  C
  H82      1.0000 0.40680  0.69380  0.91230  Biso   1.000  H
  C140     1.0000 0.20300  0.64910  0.54000  Biso   1.000  C
  C141     1.0000 0.32440  0.65200  0.46870  Biso   1.000  C
  H83      1.0000 0.41840  0.72640  0.57660  Biso   1.000  H
  C142     1.0000 0.83690  0.09170  0.09360  Biso   1.000  C
  C143     1.0000 0.78160  0.01980  0.02390  Biso   1.000  C
  H84      1.0000 0.83500  0.99220  0.91420  Biso   1.000  H
  H85      1.0000 0.33630  0.86030  0.90500  Biso   1.000  H
  C144     1.0000 0.40820  0.88000  0.01270  Biso   1.000  C
  C145     1.0000 0.48160  0.81600  0.08560  Biso   1.000  C
  H86      1.0000 0.16990  0.66010  0.58390  Biso   1.000  H
  C146     1.0000 0.18400  0.61260  0.47900  Biso   1.000  C
  C147     1.0000 0.30360  0.61610  0.40510  Biso   1.000  C
  H87      1.0000 0.83670  0.11620  0.13790  Biso   1.000  H
  C148     1.0000 0.78240  0.05660  0.09100  Biso   1.000  C
  H88      1.0000 0.74360  0.99730  0.02340  Biso   1.000  H
  C149     1.0000 0.46230  0.86380  0.08040  Biso   1.000  C
  H89      1.0000 0.39630  0.91240  0.01080  Biso   1.000  H
  H90      1.0000 0.51630  0.80500  0.13110  Biso   1.000  H
  C150     1.0000 0.23300  0.59650  0.41160  Biso   1.000  C
  H91      1.0000 0.13750  0.59820  0.48250  Biso   1.000  H
  H92      1.0000 0.33590  0.60550  0.35980  Biso   1.000  H
  H93      1.0000 0.74540  0.05760  0.13490  Biso   1.000  H
  H94      1.0000 0.48530  0.88550  0.12200  Biso   1.000  H
  H95      1.0000 0.21800  0.57220  0.37030  Biso   1.000  H
  Mn6      1.0000 0.49586  0.32175  0.89319  Biso   1.000  Mn
  O16      1.0000 0.46350  0.38350  0.81280  Biso   1.000  O
  N31      1.0000 0.54190  0.26410  0.99300  Biso   1.000  N
  N32      1.0000 0.39210  0.32420  0.98190  Biso   1.000  N
  O17      1.0000 0.60050  0.30960  0.83140  Biso   1.000  O
  O18      1.0000 0.42920  0.27410  0.80820  Biso   1.000  O
  N33      1.0000 0.54820  0.38070  0.98890  Biso   1.000  N
  C151     1.0000 0.61550  0.28530  0.75860  Biso   1.000  C
  C152     1.0000 0.69500  0.26880  0.75390  Biso   1.000  C
  C153     1.0000 0.47570  0.48260  0.82870  Biso   1.000  C
  C154     1.0000 0.74540  0.27510  0.83020  Biso   1.000  C
  C155     1.0000 0.71680  0.24520  0.67280  Biso   1.000  C
  H96      1.0000 0.45980  0.46600  0.88110  Biso   1.000  H
  C156     1.0000 0.47550  0.53190  0.82780  Biso   1.000  C
  C157     1.0000 0.81730  0.25850  0.82360  Biso   1.000  C
  H97      1.0000 0.73080  0.29020  0.88500  Biso   1.000  H
  C158     1.0000 0.78880  0.22860  0.66840  Biso   1.000  C
  H98      1.0000 0.68300  0.24070  0.62190  Biso   1.000  H
  N34      1.0000 0.45320  0.55840  0.90720  Biso   1.000  N
  N35      1.0000 0.86950  0.26200  0.90220  Biso   1.000  N
  C159     1.0000 0.83940  0.23500  0.74440  Biso   1.000  C
  N36      1.0000 0.81200  0.20390  0.58620  Biso   1.000  N
  C160     1.0000 0.48540  0.59970  0.93980  Biso   1.000  C
  C161     1.0000 0.39150  0.55040  0.96260  Biso   1.000  C
  C162     1.0000 0.89250  0.30180  0.95460  Biso   1.000  C
  C163     1.0000 0.91110  0.22460  0.93650  Biso   1.000  C
  H99      1.0000 0.88780  0.22340  0.74150  Biso   1.000  H
  C164     1.0000 0.77360  0.16900  0.53380  Biso   1.000  C
  C165     1.0000 0.88160  0.20590  0.55250  Biso   1.000  C
  H100     1.0000 0.52750  0.61280  0.91390  Biso   1.000  H
  C166     1.0000 0.39180  0.58870  0.02780  Biso   1.000  C
  C167     1.0000 0.33570  0.51650  0.95900  Biso   1.000  C
  C168     1.0000 0.87220  0.34950  0.94910  Biso   1.000  C
  C169     1.0000 0.94720  0.28490  0.02060  Biso   1.000  C
  H101     1.0000 0.90680  0.19380  0.91230  Biso   1.000  H
  C170     1.0000 0.70300  0.14910  0.54000  Biso   1.000  C
  C171     1.0000 0.82440  0.15200  0.46870  Biso   1.000  C
  H102     1.0000 0.91840  0.22640  0.57660  Biso   1.000  H
  C172     1.0000 0.33690  0.59170  0.09360  Biso   1.000  C
  C173     1.0000 0.28160  0.51980  0.02390  Biso   1.000  C
  H103     1.0000 0.33500  0.49220  0.91420  Biso   1.000  H
  H104     1.0000 0.83630  0.36030  0.90500  Biso   1.000  H
  C174     1.0000 0.90820  0.38000  0.01270  Biso   1.000  C
  C175     1.0000 0.98160  0.31600  0.08560  Biso   1.000  C
  H105     1.0000 0.66990  0.16010  0.58390  Biso   1.000  H
  C176     1.0000 0.68400  0.11260  0.47900  Biso   1.000  C
  C177     1.0000 0.80360  0.11610  0.40510  Biso   1.000  C
  H106     1.0000 0.33670  0.61620  0.13790  Biso   1.000  H
  C178     1.0000 0.28240  0.55660  0.09100  Biso   1.000  C
  H107     1.0000 0.24360  0.49730  0.02340  Biso   1.000  H
  C179     1.0000 0.96230  0.36380  0.08040  Biso   1.000  C
  H108     1.0000 0.89630  0.41240  0.01080  Biso   1.000  H
  H109     1.0000 0.01630  0.30500  0.13110  Biso   1.000  H
  C180     1.0000 0.73300  0.09650  0.41160  Biso   1.000  C
  H110     1.0000 0.63750  0.09820  0.48250  Biso   1.000  H
  H111     1.0000 0.83590  0.10550  0.35980  Biso   1.000  H
  H112     1.0000 0.24540  0.55760  0.13490  Biso   1.000  H
  H113     1.0000 0.98530  0.38550  0.12200  Biso   1.000  H
  H114     1.0000 0.71800  0.07220  0.37030  Biso   1.000  H
  Mn7      1.0000 0.00414  0.82175  0.60681  Biso   1.000  Mn
  O19      1.0000 0.03650  0.88350  0.68720  Biso   1.000  O
  N37      1.0000 0.95810  0.76410  0.50700  Biso   1.000  N
  N38      1.0000 0.10790  0.82420  0.51810  Biso   1.000  N
  O20      1.0000 0.89950  0.80960  0.66860  Biso   1.000  O
  O21      1.0000 0.07080  0.77410  0.69180  Biso   1.000  O
  N39      1.0000 0.95180  0.88070  0.51110  Biso   1.000  N
  C181     1.0000 0.88450  0.78530  0.74140  Biso   1.000  C
  C182     1.0000 0.80500  0.76880  0.74610  Biso   1.000  C
  C183     1.0000 0.02430  0.98260  0.67130  Biso   1.000  C
  C184     1.0000 0.75460  0.77510  0.66980  Biso   1.000  C
  C185     1.0000 0.78320  0.74520  0.82720  Biso   1.000  C
  H115     1.0000 0.04020  0.96600  0.61890  Biso   1.000  H
  C186     1.0000 0.02450  0.03190  0.67220  Biso   1.000  C
  C187     1.0000 0.68270  0.75850  0.67640  Biso   1.000  C
  H116     1.0000 0.76920  0.79020  0.61500  Biso   1.000  H
  C188     1.0000 0.71120  0.72860  0.83160  Biso   1.000  C
  H117     1.0000 0.81700  0.74070  0.87810  Biso   1.000  H
  N40      1.0000 0.04680  0.05840  0.59280  Biso   1.000  N
  N41      1.0000 0.63050  0.76200  0.59780  Biso   1.000  N
  C189     1.0000 0.66060  0.73500  0.75560  Biso   1.000  C
  N42      1.0000 0.68800  0.70390  0.91380  Biso   1.000  N
  C190     1.0000 0.01460  0.09970  0.56020  Biso   1.000  C
  C191     1.0000 0.10850  0.05040  0.53740  Biso   1.000  C
  C192     1.0000 0.60750  0.80180  0.54540  Biso   1.000  C
  C193     1.0000 0.58890  0.72460  0.56350  Biso   1.000  C
  H118     1.0000 0.61220  0.72340  0.75850  Biso   1.000  H
  C194     1.0000 0.72640  0.66900  0.96620  Biso   1.000  C
  C195     1.0000 0.61840  0.70590  0.94750  Biso   1.000  C
  H119     1.0000 0.97250  0.11280  0.58610  Biso   1.000  H
  C196     1.0000 0.10820  0.08870  0.47220  Biso   1.000  C
  C197     1.0000 0.16430  0.01650  0.54100  Biso   1.000  C
  C198     1.0000 0.62780  0.84950  0.55090  Biso   1.000  C
  C199     1.0000 0.55280  0.78490  0.47940  Biso   1.000  C
  H120     1.0000 0.59320  0.69380  0.58770  Biso   1.000  H
  C200     1.0000 0.79700  0.64910  0.96000  Biso   1.000  C
  C201     1.0000 0.67560  0.65200  0.03130  Biso   1.000  C
  H121     1.0000 0.58160  0.72640  0.92340  Biso   1.000  H
  C202     1.0000 0.16310  0.09170  0.40640  Biso   1.000  C
  C203     1.0000 0.21840  0.01980  0.47610  Biso   1.000  C
  H122     1.0000 0.16500  0.99220  0.58580  Biso   1.000  H
  H123     1.0000 0.66370  0.86030  0.59500  Biso   1.000  H
  C204     1.0000 0.59180  0.88000  0.48730  Biso   1.000  C
  C205     1.0000 0.51840  0.81600  0.41440  Biso   1.000  C
  H124     1.0000 0.83010  0.66010  0.91610  Biso   1.000  H
  C206     1.0000 0.81600  0.61260  0.02100  Biso   1.000  C
  C207     1.0000 0.69640  0.61610  0.09490  Biso   1.000  C
  H125     1.0000 0.16330  0.11620  0.36210  Biso   1.000  H
  C208     1.0000 0.21760  0.05660  0.40900  Biso   1.000  C
  H126     1.0000 0.25640  0.99730  0.47660  Biso   1.000  H
  C209     1.0000 0.53770  0.86380  0.41960  Biso   1.000  C
  H127     1.0000 0.60370  0.91240  0.48920  Biso   1.000  H
  H128     1.0000 0.48370  0.80500  0.36890  Biso   1.000  H
  C210     1.0000 0.76700  0.59650  0.08840  Biso   1.000  C
  H129     1.0000 0.86250  0.59820  0.01750  Biso   1.000  H
  H130     1.0000 0.66410  0.60550  0.14020  Biso   1.000  H
  H131     1.0000 0.25460  0.05760  0.36510  Biso   1.000  H
  H132     1.0000 0.51470  0.88550  0.37800  Biso   1.000  H
  H133     1.0000 0.78200  0.57220  0.12970  Biso   1.000  H
  Mn8      1.0000 0.50414  0.32175  0.60681  Biso   1.000  Mn
  O22      1.0000 0.53650  0.38350  0.68720  Biso   1.000  O
  N43      1.0000 0.45810  0.26410  0.50700  Biso   1.000  N
  N44      1.0000 0.60790  0.32420  0.51810  Biso   1.000  N
  O23      1.0000 0.39950  0.30960  0.66860  Biso   1.000  O
  O24      1.0000 0.57080  0.27410  0.69180  Biso   1.000  O
  N45      1.0000 0.45180  0.38070  0.51110  Biso   1.000  N
  C211     1.0000 0.38450  0.28530  0.74140  Biso   1.000  C
  C212     1.0000 0.30500  0.26880  0.74610  Biso   1.000  C
  C213     1.0000 0.52430  0.48260  0.67130  Biso   1.000  C
  C214     1.0000 0.25460  0.27510  0.66980  Biso   1.000  C
  C215     1.0000 0.28320  0.24520  0.82720  Biso   1.000  C
  H134     1.0000 0.54020  0.46600  0.61890  Biso   1.000  H
  C216     1.0000 0.52450  0.53190  0.67220  Biso   1.000  C
  C217     1.0000 0.18270  0.25850  0.67640  Biso   1.000  C
  H135     1.0000 0.26920  0.29020  0.61500  Biso   1.000  H
  C218     1.0000 0.21120  0.22860  0.83160  Biso   1.000  C
  H136     1.0000 0.31700  0.24070  0.87810  Biso   1.000  H
  N46      1.0000 0.54680  0.55840  0.59280  Biso   1.000  N
  N47      1.0000 0.13050  0.26200  0.59780  Biso   1.000  N
  C219     1.0000 0.16060  0.23500  0.75560  Biso   1.000  C
  N48      1.0000 0.18800  0.20390  0.91380  Biso   1.000  N
  C220     1.0000 0.51460  0.59970  0.56020  Biso   1.000  C
  C221     1.0000 0.60850  0.55040  0.53740  Biso   1.000  C
  C222     1.0000 0.10750  0.30180  0.54540  Biso   1.000  C
  C223     1.0000 0.08890  0.22460  0.56350  Biso   1.000  C
  H137     1.0000 0.11220  0.22340  0.75850  Biso   1.000  H
  C224     1.0000 0.22640  0.16900  0.96620  Biso   1.000  C
  C225     1.0000 0.11840  0.20590  0.94750  Biso   1.000  C
  H138     1.0000 0.47250  0.61280  0.58610  Biso   1.000  H
  C226     1.0000 0.60820  0.58870  0.47220  Biso   1.000  C
  C227     1.0000 0.66430  0.51650  0.54100  Biso   1.000  C
  C228     1.0000 0.12780  0.34950  0.55090  Biso   1.000  C
  C229     1.0000 0.05280  0.28490  0.47940  Biso   1.000  C
  H139     1.0000 0.09320  0.19380  0.58770  Biso   1.000  H
  C230     1.0000 0.29700  0.14910  0.96000  Biso   1.000  C
  C231     1.0000 0.17560  0.15200  0.03130  Biso   1.000  C
  H140     1.0000 0.08160  0.22640  0.92340  Biso   1.000  H
  C232     1.0000 0.66310  0.59170  0.40640  Biso   1.000  C
  C233     1.0000 0.71840  0.51980  0.47610  Biso   1.000  C
  H141     1.0000 0.66500  0.49220  0.58580  Biso   1.000  H
  H142     1.0000 0.16370  0.36030  0.59500  Biso   1.000  H
  C234     1.0000 0.09180  0.38000  0.48730  Biso   1.000  C
  C235     1.0000 0.01840  0.31600  0.41440  Biso   1.000  C
  H143     1.0000 0.33010  0.16010  0.91610  Biso   1.000  H
  C236     1.0000 0.31600  0.11260  0.02100  Biso   1.000  C
  C237     1.0000 0.19640  0.11610  0.09490  Biso   1.000  C
  H144     1.0000 0.66330  0.61620  0.36210  Biso   1.000  H
  C238     1.0000 0.71760  0.55660  0.40900  Biso   1.000  C
  H145     1.0000 0.75640  0.49730  0.47660  Biso   1.000  H
  C239     1.0000 0.03770  0.36380  0.41960  Biso   1.000  C
  H146     1.0000 0.10370  0.41240  0.48920  Biso   1.000  H
  H147     1.0000 0.98370  0.30500  0.36890  Biso   1.000  H
  C240     1.0000 0.26700  0.09650  0.08840  Biso   1.000  C
  H148     1.0000 0.36250  0.09820  0.01750  Biso   1.000  H
  H149     1.0000 0.16410  0.10550  0.14020  Biso   1.000  H
  H150     1.0000 0.75460  0.55760  0.36510  Biso   1.000  H
  H151     1.0000 0.01470  0.38550  0.37800  Biso   1.000  H
  H152     1.0000 0.28200  0.07220  0.12970  Biso   1.000  H
  C241     1.0000 0.00000  0.09590  0.25000  Biso   1.000  C
  C242     1.0000 0.00000  0.04230  0.25000  Biso   1.000  C
  C243     1.0000 0.00000  0.94280  0.25000  Biso   1.000  C
  H153     1.0000 0.00000  0.90960  0.25000  Biso   1.000  H
  C244     1.0000 0.50000  0.59590  0.25000  Biso   1.000  C
  C245     1.0000 0.50000  0.54230  0.25000  Biso   1.000  C
  C246     1.0000 0.50000  0.44280  0.25000  Biso   1.000  C
  H154     1.0000 0.50000  0.40960  0.25000  Biso   1.000  H
  C247     1.0000 0.00000  0.90410  0.75000  Biso   1.000  C
  C248     1.0000 0.00000  0.95770  0.75000  Biso   1.000  C
  C249     1.0000 0.00000  0.05720  0.75000  Biso   1.000  C
  H155     1.0000 0.00000  0.09040  0.75000  Biso   1.000  H
  C250     1.0000 0.50000  0.40410  0.75000  Biso   1.000  C
  C251     1.0000 0.50000  0.45770  0.75000  Biso   1.000  C
  C252     1.0000 0.50000  0.55720  0.75000  Biso   1.000  C
  H156     1.0000 0.50000  0.59040  0.75000  Biso   1.000  H
