data_image0
_cell_length_a       16.975
_cell_length_b       16.975
_cell_length_c       13.917
_cell_angle_alpha    90
_cell_angle_beta     90
_cell_angle_gamma    120

_symmetry_space_group_name_H-M    "P 1"
_symmetry_int_tables_number       1

loop_
  _symmetry_equiv_pos_as_xyz
  'x, y, z'

loop_
  _atom_site_label
  _atom_site_occupancy
  _atom_site_fract_x
  _atom_site_fract_y
  _atom_site_fract_z
  _atom_site_thermal_displace_type
  _atom_site_B_iso_or_equiv
  _atom_site_type_symbol
  O1       1.0000 0.77960  0.42450  0.68110  Biso   1.000  O
  N1       1.0000 0.11190  0.50380  0.91160  Biso   1.000  N
  N2       1.0000 0.22830  0.55980  0.01480  Biso   1.000  N
  C1       1.0000 0.96600  0.45640  0.83090  Biso   1.000  C
  H1       1.0000 0.93430  0.42320  0.88480  Biso   1.000  H
  C2       1.0000 0.06060  0.50350  0.83010  Biso   1.000  C
  C3       1.0000 0.18940  0.57790  0.94360  Biso   1.000  C
  H2       1.0000 0.21240  0.63570  0.91740  Biso   1.000  H
  C4       1.0000 0.17420  0.46620  0.03110  Biso   1.000  C
  C5       1.0000 0.18390  0.40910  0.09550  Biso   1.000  C
  H3       1.0000 0.23100  0.43220  0.14010  Biso   1.000  H
  C6       1.0000 0.12200  0.31740  0.09130  Biso   1.000  C
  H4       1.0000 0.12710  0.27820  0.13410  Biso   1.000  H
  C7       1.0000 0.05100  0.28200  0.02330  Biso   1.000  C
  H5       1.0000 0.01150  0.21950  0.02070  Biso   1.000  H
  C8       1.0000 0.03870  0.33780  0.96050  Biso   1.000  C
  H6       1.0000 0.99080  0.31430  0.91690  Biso   1.000  H
  C9       1.0000 0.10100  0.43040  0.96500  Biso   1.000  C
  O2       1.0000 0.57550  0.35510  0.68110  Biso   1.000  O
  N3       1.0000 0.49620  0.60810  0.91160  Biso   1.000  N
  N4       1.0000 0.44020  0.66850  0.01480  Biso   1.000  N
  C10      1.0000 0.54360  0.50960  0.83090  Biso   1.000  C
  H7       1.0000 0.57680  0.51110  0.88480  Biso   1.000  H
  C11      1.0000 0.49650  0.55710  0.83010  Biso   1.000  C
  C12      1.0000 0.42210  0.61150  0.94360  Biso   1.000  C
  H8       1.0000 0.36430  0.57670  0.91740  Biso   1.000  H
  C13      1.0000 0.53380  0.70800  0.03110  Biso   1.000  C
  C14      1.0000 0.59090  0.77480  0.09550  Biso   1.000  C
  H9       1.0000 0.56780  0.79880  0.14010  Biso   1.000  H
  C15      1.0000 0.68260  0.80460  0.09130  Biso   1.000  C
  H10      1.0000 0.72180  0.84890  0.13410  Biso   1.000  H
  C16      1.0000 0.71800  0.76900  0.02330  Biso   1.000  C
  H11      1.0000 0.78050  0.79200  0.02070  Biso   1.000  H
  C17      1.0000 0.66220  0.70090  0.96050  Biso   1.000  C
  H12      1.0000 0.68570  0.67650  0.91690  Biso   1.000  H
  C18      1.0000 0.56960  0.67060  0.96500  Biso   1.000  C
  O3       1.0000 0.64490  0.22040  0.68110  Biso   1.000  O
  N5       1.0000 0.39190  0.88810  0.91160  Biso   1.000  N
  N6       1.0000 0.33150  0.77170  0.01480  Biso   1.000  N
  C19      1.0000 0.49040  0.03400  0.83090  Biso   1.000  C
  H13      1.0000 0.48890  0.06570  0.88480  Biso   1.000  H
  C20      1.0000 0.44290  0.93940  0.83010  Biso   1.000  C
  C21      1.0000 0.38850  0.81060  0.94360  Biso   1.000  C
  H14      1.0000 0.42330  0.78760  0.91740  Biso   1.000  H
  C22      1.0000 0.29200  0.82580  0.03110  Biso   1.000  C
  C23      1.0000 0.22520  0.81610  0.09550  Biso   1.000  C
  H15      1.0000 0.20120  0.76900  0.14010  Biso   1.000  H
  C24      1.0000 0.19540  0.87800  0.09130  Biso   1.000  C
  H16      1.0000 0.15110  0.87290  0.13410  Biso   1.000  H
  C25      1.0000 0.23100  0.94900  0.02330  Biso   1.000  C
  H17      1.0000 0.20800  0.98850  0.02070  Biso   1.000  H
  C26      1.0000 0.29910  0.96130  0.96050  Biso   1.000  C
  H18      1.0000 0.32350  0.00920  0.91690  Biso   1.000  H
  C27      1.0000 0.32940  0.89900  0.96500  Biso   1.000  C
  O4       1.0000 0.57550  0.22040  0.81890  Biso   1.000  O
  N7       1.0000 0.49620  0.88810  0.58840  Biso   1.000  N
  N8       1.0000 0.44020  0.77170  0.48520  Biso   1.000  N
  C28      1.0000 0.54360  0.03400  0.66910  Biso   1.000  C
  H19      1.0000 0.57680  0.06570  0.61520  Biso   1.000  H
  C29      1.0000 0.49650  0.93940  0.66990  Biso   1.000  C
  C30      1.0000 0.42210  0.81060  0.55640  Biso   1.000  C
  H20      1.0000 0.36430  0.78760  0.58260  Biso   1.000  H
  C31      1.0000 0.53380  0.82580  0.46890  Biso   1.000  C
  C32      1.0000 0.59090  0.81610  0.40450  Biso   1.000  C
  H21      1.0000 0.56780  0.76900  0.35990  Biso   1.000  H
  C33      1.0000 0.68260  0.87800  0.40870  Biso   1.000  C
  H22      1.0000 0.72180  0.87290  0.36590  Biso   1.000  H
  C34      1.0000 0.71800  0.94900  0.47670  Biso   1.000  C
  H23      1.0000 0.78050  0.98850  0.47930  Biso   1.000  H
  C35      1.0000 0.66220  0.96130  0.53950  Biso   1.000  C
  H24      1.0000 0.68570  0.00920  0.58310  Biso   1.000  H
  C36      1.0000 0.56960  0.89900  0.53500  Biso   1.000  C
  O5       1.0000 0.64490  0.42450  0.81890  Biso   1.000  O
  N9       1.0000 0.39190  0.50380  0.58840  Biso   1.000  N
  N10      1.0000 0.33150  0.55980  0.48520  Biso   1.000  N
  C37      1.0000 0.49040  0.45640  0.66910  Biso   1.000  C
  H25      1.0000 0.48890  0.42320  0.61520  Biso   1.000  H
  C38      1.0000 0.44290  0.50350  0.66990  Biso   1.000  C
  C39      1.0000 0.38850  0.57790  0.55640  Biso   1.000  C
  H26      1.0000 0.42330  0.63570  0.58260  Biso   1.000  H
  C40      1.0000 0.29200  0.46620  0.46890  Biso   1.000  C
  C41      1.0000 0.22520  0.40910  0.40450  Biso   1.000  C
  H27      1.0000 0.20120  0.43220  0.35990  Biso   1.000  H
  C42      1.0000 0.19540  0.31740  0.40870  Biso   1.000  C
  H28      1.0000 0.15110  0.27820  0.36590  Biso   1.000  H
  C43      1.0000 0.23100  0.28200  0.47670  Biso   1.000  C
  H29      1.0000 0.20800  0.21950  0.47930  Biso   1.000  H
  C44      1.0000 0.29910  0.33780  0.53950  Biso   1.000  C
  H30      1.0000 0.32350  0.31430  0.58310  Biso   1.000  H
  C45      1.0000 0.32940  0.43040  0.53500  Biso   1.000  C
  O6       1.0000 0.77960  0.35510  0.81890  Biso   1.000  O
  N11      1.0000 0.11190  0.60810  0.58840  Biso   1.000  N
  N12      1.0000 0.22830  0.66850  0.48520  Biso   1.000  N
  C46      1.0000 0.96600  0.50960  0.66910  Biso   1.000  C
  H31      1.0000 0.93430  0.51110  0.61520  Biso   1.000  H
  C47      1.0000 0.06060  0.55710  0.66990  Biso   1.000  C
  C48      1.0000 0.18940  0.61150  0.55640  Biso   1.000  C
  H32      1.0000 0.21240  0.57670  0.58260  Biso   1.000  H
  C49      1.0000 0.17420  0.70800  0.46890  Biso   1.000  C
  C50      1.0000 0.18390  0.77480  0.40450  Biso   1.000  C
  H33      1.0000 0.23100  0.79880  0.35990  Biso   1.000  H
  C51      1.0000 0.12200  0.80460  0.40870  Biso   1.000  C
  H34      1.0000 0.12710  0.84890  0.36590  Biso   1.000  H
  C52      1.0000 0.05100  0.76900  0.47670  Biso   1.000  C
  H35      1.0000 0.01150  0.79200  0.47930  Biso   1.000  H
  C53      1.0000 0.03870  0.70090  0.53950  Biso   1.000  C
  H36      1.0000 0.99080  0.67650  0.58310  Biso   1.000  H
  C54      1.0000 0.10100  0.67060  0.53500  Biso   1.000  C
  O7       1.0000 0.22040  0.57550  0.31890  Biso   1.000  O
  N13      1.0000 0.88810  0.49620  0.08840  Biso   1.000  N
  N14      1.0000 0.77170  0.44020  0.98520  Biso   1.000  N
  C55      1.0000 0.03400  0.54360  0.16910  Biso   1.000  C
  H37      1.0000 0.06570  0.57680  0.11520  Biso   1.000  H
  C56      1.0000 0.93940  0.49650  0.16990  Biso   1.000  C
  C57      1.0000 0.81060  0.42210  0.05640  Biso   1.000  C
  H38      1.0000 0.78760  0.36430  0.08260  Biso   1.000  H
  C58      1.0000 0.82580  0.53380  0.96890  Biso   1.000  C
  C59      1.0000 0.81610  0.59090  0.90450  Biso   1.000  C
  H39      1.0000 0.76900  0.56780  0.85990  Biso   1.000  H
  C60      1.0000 0.87800  0.68260  0.90870  Biso   1.000  C
  H40      1.0000 0.87290  0.72180  0.86590  Biso   1.000  H
  C61      1.0000 0.94900  0.71800  0.97670  Biso   1.000  C
  H41      1.0000 0.98850  0.78050  0.97930  Biso   1.000  H
  C62      1.0000 0.96130  0.66220  0.03950  Biso   1.000  C
  H42      1.0000 0.00920  0.68570  0.08310  Biso   1.000  H
  C63      1.0000 0.89900  0.56960  0.03500  Biso   1.000  C
  O8       1.0000 0.42450  0.64490  0.31890  Biso   1.000  O
  N15      1.0000 0.50380  0.39190  0.08840  Biso   1.000  N
  N16      1.0000 0.55980  0.33150  0.98520  Biso   1.000  N
  C64      1.0000 0.45640  0.49040  0.16910  Biso   1.000  C
  H43      1.0000 0.42320  0.48890  0.11520  Biso   1.000  H
  C65      1.0000 0.50350  0.44290  0.16990  Biso   1.000  C
  C66      1.0000 0.57790  0.38850  0.05640  Biso   1.000  C
  H44      1.0000 0.63570  0.42330  0.08260  Biso   1.000  H
  C67      1.0000 0.46620  0.29200  0.96890  Biso   1.000  C
  C68      1.0000 0.40910  0.22520  0.90450  Biso   1.000  C
  H45      1.0000 0.43220  0.20120  0.85990  Biso   1.000  H
  C69      1.0000 0.31740  0.19540  0.90870  Biso   1.000  C
  H46      1.0000 0.27820  0.15110  0.86590  Biso   1.000  H
  C70      1.0000 0.28200  0.23100  0.97670  Biso   1.000  C
  H47      1.0000 0.21950  0.20800  0.97930  Biso   1.000  H
  C71      1.0000 0.33780  0.29910  0.03950  Biso   1.000  C
  H48      1.0000 0.31430  0.32350  0.08310  Biso   1.000  H
  C72      1.0000 0.43040  0.32940  0.03500  Biso   1.000  C
  O9       1.0000 0.35510  0.77960  0.31890  Biso   1.000  O
  N17      1.0000 0.60810  0.11190  0.08840  Biso   1.000  N
  N18      1.0000 0.66850  0.22830  0.98520  Biso   1.000  N
  C73      1.0000 0.50960  0.96600  0.16910  Biso   1.000  C
  H49      1.0000 0.51110  0.93430  0.11520  Biso   1.000  H
  C74      1.0000 0.55710  0.06060  0.16990  Biso   1.000  C
  C75      1.0000 0.61150  0.18940  0.05640  Biso   1.000  C
  H50      1.0000 0.57670  0.21240  0.08260  Biso   1.000  H
  C76      1.0000 0.70800  0.17420  0.96890  Biso   1.000  C
  C77      1.0000 0.77480  0.18390  0.90450  Biso   1.000  C
  H51      1.0000 0.79880  0.23100  0.85990  Biso   1.000  H
  C78      1.0000 0.80460  0.12200  0.90870  Biso   1.000  C
  H52      1.0000 0.84890  0.12710  0.86590  Biso   1.000  H
  C79      1.0000 0.76900  0.05100  0.97670  Biso   1.000  C
  H53      1.0000 0.79200  0.01150  0.97930  Biso   1.000  H
  C80      1.0000 0.70090  0.03870  0.03950  Biso   1.000  C
  H54      1.0000 0.67650  0.99080  0.08310  Biso   1.000  H
  C81      1.0000 0.67060  0.10100  0.03500  Biso   1.000  C
  O10      1.0000 0.42450  0.77960  0.18110  Biso   1.000  O
  N19      1.0000 0.50380  0.11190  0.41160  Biso   1.000  N
  N20      1.0000 0.55980  0.22830  0.51480  Biso   1.000  N
  C82      1.0000 0.45640  0.96600  0.33090  Biso   1.000  C
  H55      1.0000 0.42320  0.93430  0.38480  Biso   1.000  H
  C83      1.0000 0.50350  0.06060  0.33010  Biso   1.000  C
  C84      1.0000 0.57790  0.18940  0.44360  Biso   1.000  C
  H56      1.0000 0.63570  0.21240  0.41740  Biso   1.000  H
  C85      1.0000 0.46620  0.17420  0.53110  Biso   1.000  C
  C86      1.0000 0.40910  0.18390  0.59550  Biso   1.000  C
  H57      1.0000 0.43220  0.23100  0.64010  Biso   1.000  H
  C87      1.0000 0.31740  0.12200  0.59130  Biso   1.000  C
  H58      1.0000 0.27820  0.12710  0.63410  Biso   1.000  H
  C88      1.0000 0.28200  0.05100  0.52330  Biso   1.000  C
  H59      1.0000 0.21950  0.01150  0.52070  Biso   1.000  H
  C89      1.0000 0.33780  0.03870  0.46050  Biso   1.000  C
  H60      1.0000 0.31430  0.99080  0.41690  Biso   1.000  H
  C90      1.0000 0.43040  0.10100  0.46500  Biso   1.000  C
  O11      1.0000 0.35510  0.57550  0.18110  Biso   1.000  O
  N21      1.0000 0.60810  0.49620  0.41160  Biso   1.000  N
  N22      1.0000 0.66850  0.44020  0.51480  Biso   1.000  N
  C91      1.0000 0.50960  0.54360  0.33090  Biso   1.000  C
  H61      1.0000 0.51110  0.57680  0.38480  Biso   1.000  H
  C92      1.0000 0.55710  0.49650  0.33010  Biso   1.000  C
  C93      1.0000 0.61150  0.42210  0.44360  Biso   1.000  C
  H62      1.0000 0.57670  0.36430  0.41740  Biso   1.000  H
  C94      1.0000 0.70800  0.53380  0.53110  Biso   1.000  C
  C95      1.0000 0.77480  0.59090  0.59550  Biso   1.000  C
  H63      1.0000 0.79880  0.56780  0.64010  Biso   1.000  H
  C96      1.0000 0.80460  0.68260  0.59130  Biso   1.000  C
  H64      1.0000 0.84890  0.72180  0.63410  Biso   1.000  H
  C97      1.0000 0.76900  0.71800  0.52330  Biso   1.000  C
  H65      1.0000 0.79200  0.78050  0.52070  Biso   1.000  H
  C98      1.0000 0.70090  0.66220  0.46050  Biso   1.000  C
  H66      1.0000 0.67650  0.68570  0.41690  Biso   1.000  H
  C99      1.0000 0.67060  0.56960  0.46500  Biso   1.000  C
  O12      1.0000 0.22040  0.64490  0.18110  Biso   1.000  O
  N23      1.0000 0.88810  0.39190  0.41160  Biso   1.000  N
  N24      1.0000 0.77170  0.33150  0.51480  Biso   1.000  N
  C100     1.0000 0.03400  0.49040  0.33090  Biso   1.000  C
  H67      1.0000 0.06570  0.48890  0.38480  Biso   1.000  H
  C101     1.0000 0.93940  0.44290  0.33010  Biso   1.000  C
  C102     1.0000 0.81060  0.38850  0.44360  Biso   1.000  C
  H68      1.0000 0.78760  0.42330  0.41740  Biso   1.000  H
  C103     1.0000 0.82580  0.29200  0.53110  Biso   1.000  C
  C104     1.0000 0.81610  0.22520  0.59550  Biso   1.000  C
  H69      1.0000 0.76900  0.20120  0.64010  Biso   1.000  H
  C105     1.0000 0.87800  0.19540  0.59130  Biso   1.000  C
  H70      1.0000 0.87290  0.15110  0.63410  Biso   1.000  H
  C106     1.0000 0.94900  0.23100  0.52330  Biso   1.000  C
  H71      1.0000 0.98850  0.20800  0.52070  Biso   1.000  H
  C107     1.0000 0.96130  0.29910  0.46050  Biso   1.000  C
  H72      1.0000 0.00920  0.32350  0.41690  Biso   1.000  H
  C108     1.0000 0.89900  0.32940  0.46500  Biso   1.000  C
  Co1      1.0000 0.66667  0.33333  0.60339  Biso   1.000  Co
  Co2      1.0000 0.66667  0.33333  0.89661  Biso   1.000  Co
  Co3      1.0000 0.33333  0.66667  0.39661  Biso   1.000  Co
  Co4      1.0000 0.33333  0.66667  0.10339  Biso   1.000  Co
  C109     1.0000 0.81770  0.40885  0.75000  Biso   1.000  C
  C110     1.0000 0.91920  0.45960  0.75000  Biso   1.000  C
  C111     1.0000 0.10830  0.55415  0.75000  Biso   1.000  C
  H73      1.0000 0.17160  0.58580  0.75000  Biso   1.000  H
  C112     1.0000 0.59115  0.40885  0.75000  Biso   1.000  C
  C113     1.0000 0.54040  0.45960  0.75000  Biso   1.000  C
  C114     1.0000 0.44585  0.55415  0.75000  Biso   1.000  C
  H74      1.0000 0.41420  0.58580  0.75000  Biso   1.000  H
  C115     1.0000 0.59115  0.18230  0.75000  Biso   1.000  C
  C116     1.0000 0.54040  0.08080  0.75000  Biso   1.000  C
  C117     1.0000 0.44585  0.89170  0.75000  Biso   1.000  C
  H75      1.0000 0.41420  0.82840  0.75000  Biso   1.000  H
  C118     1.0000 0.18230  0.59115  0.25000  Biso   1.000  C
  C119     1.0000 0.08080  0.54040  0.25000  Biso   1.000  C
  C120     1.0000 0.89170  0.44585  0.25000  Biso   1.000  C
  H76      1.0000 0.82840  0.41420  0.25000  Biso   1.000  H
  C121     1.0000 0.40885  0.59115  0.25000  Biso   1.000  C
  C122     1.0000 0.45960  0.54040  0.25000  Biso   1.000  C
  C123     1.0000 0.55415  0.44585  0.25000  Biso   1.000  C
  H77      1.0000 0.58580  0.41420  0.25000  Biso   1.000  H
  C124     1.0000 0.40885  0.81770  0.25000  Biso   1.000  C
  C125     1.0000 0.45960  0.91920  0.25000  Biso   1.000  C
  C126     1.0000 0.55415  0.10830  0.25000  Biso   1.000  C
  H78      1.0000 0.58580  0.17160  0.25000  Biso   1.000  H
