data_image0
_cell_length_a       17.485
_cell_length_b       17.485
_cell_length_c       14.019
_cell_angle_alpha    90
_cell_angle_beta     90
_cell_angle_gamma    120

_symmetry_space_group_name_H-M    "P 1"
_symmetry_int_tables_number       1

loop_
  _symmetry_equiv_pos_as_xyz
  'x, y, z'

loop_
  _atom_site_label
  _atom_site_occupancy
  _atom_site_fract_x
  _atom_site_fract_y
  _atom_site_fract_z
  _atom_site_thermal_displace_type
  _atom_site_B_iso_or_equiv
  _atom_site_type_symbol
  O1       1.0000 0.64231  0.42297  0.68097  Biso   1.000  O
  N1       1.0000 0.40154  0.50610  0.91160  Biso   1.000  N
  N2       1.0000 0.33668  0.55960  0.00725  Biso   1.000  N
  C1       1.0000 0.49540  0.45860  0.83100  Biso   1.000  C
  H1       1.0000 0.49570  0.42840  0.88550  Biso   1.000  H
  C2       1.0000 0.44950  0.50330  0.83000  Biso   1.000  C
  C3       1.0000 0.39300  0.57570  0.93780  Biso   1.000  C
  H2       1.0000 0.42450  0.63080  0.90880  Biso   1.000  H
  C4       1.0000 0.34500  0.43640  0.97020  Biso   1.000  C
  C5       1.0000 0.32480  0.34960  0.97640  Biso   1.000  C
  H3       1.0000 0.35140  0.32700  0.93680  Biso   1.000  H
  C6       1.0000 0.26340  0.29800  0.04410  Biso   1.000  C
  H4       1.0000 0.24740  0.23880  0.04960  Biso   1.000  H
  C7       1.0000 0.22480  0.33230  0.10450  Biso   1.000  C
  H5       1.0000 0.18470  0.29580  0.15040  Biso   1.000  H
  C8       1.0000 0.24420  0.41860  0.09820  Biso   1.000  C
  H6       1.0000 0.21780  0.44110  0.13830  Biso   1.000  H
  C9       1.0000 0.30510  0.47080  0.02930  Biso   1.000  C
  O2       1.0000 0.57703  0.21934  0.68097  Biso   1.000  O
  N3       1.0000 0.49390  0.89544  0.91160  Biso   1.000  N
  N4       1.0000 0.44040  0.77708  0.00725  Biso   1.000  N
  C10      1.0000 0.54140  0.03680  0.83100  Biso   1.000  C
  H7       1.0000 0.57160  0.06730  0.88550  Biso   1.000  H
  C11      1.0000 0.49670  0.94620  0.83000  Biso   1.000  C
  C12      1.0000 0.42430  0.81730  0.93780  Biso   1.000  C
  H8       1.0000 0.36920  0.79370  0.90880  Biso   1.000  H
  C13      1.0000 0.56360  0.90860  0.97020  Biso   1.000  C
  C14      1.0000 0.65040  0.97520  0.97640  Biso   1.000  C
  H9       1.0000 0.67300  0.02440  0.93680  Biso   1.000  H
  C15      1.0000 0.70200  0.96540  0.04410  Biso   1.000  C
  H10      1.0000 0.76120  0.00860  0.04960  Biso   1.000  H
  C16      1.0000 0.66770  0.89250  0.10450  Biso   1.000  C
  H11      1.0000 0.70420  0.88890  0.15040  Biso   1.000  H
  C17      1.0000 0.58140  0.82560  0.09820  Biso   1.000  C
  H12      1.0000 0.55890  0.77670  0.13830  Biso   1.000  H
  C18      1.0000 0.52920  0.83430  0.02930  Biso   1.000  C
  O3       1.0000 0.78066  0.35769  0.68097  Biso   1.000  O
  N5       1.0000 0.10456  0.59846  0.91160  Biso   1.000  N
  N6       1.0000 0.22292  0.66332  0.00725  Biso   1.000  N
  C19      1.0000 0.96320  0.50460  0.83100  Biso   1.000  C
  H13      1.0000 0.93270  0.50430  0.88550  Biso   1.000  H
  C20      1.0000 0.05380  0.55050  0.83000  Biso   1.000  C
  C21      1.0000 0.18270  0.60700  0.93780  Biso   1.000  C
  H14      1.0000 0.20630  0.57550  0.90880  Biso   1.000  H
  C22      1.0000 0.09140  0.65500  0.97020  Biso   1.000  C
  C23      1.0000 0.02480  0.67520  0.97640  Biso   1.000  C
  H15      1.0000 0.97560  0.64860  0.93680  Biso   1.000  H
  C24      1.0000 0.03460  0.73660  0.04410  Biso   1.000  C
  H16      1.0000 0.99140  0.75260  0.04960  Biso   1.000  H
  C25      1.0000 0.10750  0.77520  0.10450  Biso   1.000  C
  H17      1.0000 0.11110  0.81530  0.15040  Biso   1.000  H
  C26      1.0000 0.17440  0.75580  0.09820  Biso   1.000  C
  H18      1.0000 0.22330  0.78220  0.13830  Biso   1.000  H
  C27      1.0000 0.16570  0.69490  0.02930  Biso   1.000  C
  O4       1.0000 0.57703  0.35769  0.81903  Biso   1.000  O
  N7       1.0000 0.49390  0.59846  0.58840  Biso   1.000  N
  N8       1.0000 0.44040  0.66332  0.49275  Biso   1.000  N
  C28      1.0000 0.54140  0.50460  0.66900  Biso   1.000  C
  H19      1.0000 0.57160  0.50430  0.61450  Biso   1.000  H
  C29      1.0000 0.49670  0.55050  0.67000  Biso   1.000  C
  C30      1.0000 0.42430  0.60700  0.56220  Biso   1.000  C
  H20      1.0000 0.36920  0.57550  0.59120  Biso   1.000  H
  C31      1.0000 0.56360  0.65500  0.52980  Biso   1.000  C
  C32      1.0000 0.65040  0.67520  0.52360  Biso   1.000  C
  H21      1.0000 0.67300  0.64860  0.56320  Biso   1.000  H
  C33      1.0000 0.70200  0.73660  0.45590  Biso   1.000  C
  H22      1.0000 0.76120  0.75260  0.45040  Biso   1.000  H
  C34      1.0000 0.66770  0.77520  0.39550  Biso   1.000  C
  H23      1.0000 0.70420  0.81530  0.34960  Biso   1.000  H
  C35      1.0000 0.58140  0.75580  0.40180  Biso   1.000  C
  H24      1.0000 0.55890  0.78220  0.36170  Biso   1.000  H
  C36      1.0000 0.52920  0.69490  0.47070  Biso   1.000  C
  O5       1.0000 0.78066  0.42297  0.81903  Biso   1.000  O
  N9       1.0000 0.10456  0.50610  0.58840  Biso   1.000  N
  N10      1.0000 0.22292  0.55960  0.49275  Biso   1.000  N
  C37      1.0000 0.96320  0.45860  0.66900  Biso   1.000  C
  H25      1.0000 0.93270  0.42840  0.61450  Biso   1.000  H
  C38      1.0000 0.05380  0.50330  0.67000  Biso   1.000  C
  C39      1.0000 0.18270  0.57570  0.56220  Biso   1.000  C
  H26      1.0000 0.20630  0.63080  0.59120  Biso   1.000  H
  C40      1.0000 0.09140  0.43640  0.52980  Biso   1.000  C
  C41      1.0000 0.02480  0.34960  0.52360  Biso   1.000  C
  H27      1.0000 0.97560  0.32700  0.56320  Biso   1.000  H
  C42      1.0000 0.03460  0.29800  0.45590  Biso   1.000  C
  H28      1.0000 0.99140  0.23880  0.45040  Biso   1.000  H
  C43      1.0000 0.10750  0.33230  0.39550  Biso   1.000  C
  H29      1.0000 0.11110  0.29580  0.34960  Biso   1.000  H
  C44      1.0000 0.17440  0.41860  0.40180  Biso   1.000  C
  H30      1.0000 0.22330  0.44110  0.36170  Biso   1.000  H
  C45      1.0000 0.16570  0.47080  0.47070  Biso   1.000  C
  O6       1.0000 0.64231  0.21934  0.81903  Biso   1.000  O
  N11      1.0000 0.40154  0.89544  0.58840  Biso   1.000  N
  N12      1.0000 0.33668  0.77708  0.49275  Biso   1.000  N
  C46      1.0000 0.49540  0.03680  0.66900  Biso   1.000  C
  H31      1.0000 0.49570  0.06730  0.61450  Biso   1.000  H
  C47      1.0000 0.44950  0.94620  0.67000  Biso   1.000  C
  C48      1.0000 0.39300  0.81730  0.56220  Biso   1.000  C
  H32      1.0000 0.42450  0.79370  0.59120  Biso   1.000  H
  C49      1.0000 0.34500  0.90860  0.52980  Biso   1.000  C
  C50      1.0000 0.32480  0.97520  0.52360  Biso   1.000  C
  H33      1.0000 0.35140  0.02440  0.56320  Biso   1.000  H
  C51      1.0000 0.26340  0.96540  0.45590  Biso   1.000  C
  H34      1.0000 0.24740  0.00860  0.45040  Biso   1.000  H
  C52      1.0000 0.22480  0.89250  0.39550  Biso   1.000  C
  H35      1.0000 0.18470  0.88890  0.34960  Biso   1.000  H
  C53      1.0000 0.24420  0.82560  0.40180  Biso   1.000  C
  H36      1.0000 0.21780  0.77670  0.36170  Biso   1.000  H
  C54      1.0000 0.30510  0.83430  0.47070  Biso   1.000  C
  O7       1.0000 0.35769  0.57703  0.31903  Biso   1.000  O
  N13      1.0000 0.59846  0.49390  0.08840  Biso   1.000  N
  N14      1.0000 0.66332  0.44040  0.99275  Biso   1.000  N
  C55      1.0000 0.50460  0.54140  0.16900  Biso   1.000  C
  H37      1.0000 0.50430  0.57160  0.11450  Biso   1.000  H
  C56      1.0000 0.55050  0.49670  0.17000  Biso   1.000  C
  C57      1.0000 0.60700  0.42430  0.06220  Biso   1.000  C
  H38      1.0000 0.57550  0.36920  0.09120  Biso   1.000  H
  C58      1.0000 0.65500  0.56360  0.02980  Biso   1.000  C
  C59      1.0000 0.67520  0.65040  0.02360  Biso   1.000  C
  H39      1.0000 0.64860  0.67300  0.06320  Biso   1.000  H
  C60      1.0000 0.73660  0.70200  0.95590  Biso   1.000  C
  H40      1.0000 0.75260  0.76120  0.95040  Biso   1.000  H
  C61      1.0000 0.77520  0.66770  0.89550  Biso   1.000  C
  H41      1.0000 0.81530  0.70420  0.84960  Biso   1.000  H
  C62      1.0000 0.75580  0.58140  0.90180  Biso   1.000  C
  H42      1.0000 0.78220  0.55890  0.86170  Biso   1.000  H
  C63      1.0000 0.69490  0.52920  0.97070  Biso   1.000  C
  O8       1.0000 0.42297  0.78066  0.31903  Biso   1.000  O
  N15      1.0000 0.50610  0.10456  0.08840  Biso   1.000  N
  N16      1.0000 0.55960  0.22292  0.99275  Biso   1.000  N
  C64      1.0000 0.45860  0.96320  0.16900  Biso   1.000  C
  H43      1.0000 0.42840  0.93270  0.11450  Biso   1.000  H
  C65      1.0000 0.50330  0.05380  0.17000  Biso   1.000  C
  C66      1.0000 0.57570  0.18270  0.06220  Biso   1.000  C
  H44      1.0000 0.63080  0.20630  0.09120  Biso   1.000  H
  C67      1.0000 0.43640  0.09140  0.02980  Biso   1.000  C
  C68      1.0000 0.34960  0.02480  0.02360  Biso   1.000  C
  H45      1.0000 0.32700  0.97560  0.06320  Biso   1.000  H
  C69      1.0000 0.29800  0.03460  0.95590  Biso   1.000  C
  H46      1.0000 0.23880  0.99140  0.95040  Biso   1.000  H
  C70      1.0000 0.33230  0.10750  0.89550  Biso   1.000  C
  H47      1.0000 0.29580  0.11110  0.84960  Biso   1.000  H
  C71      1.0000 0.41860  0.17440  0.90180  Biso   1.000  C
  H48      1.0000 0.44110  0.22330  0.86170  Biso   1.000  H
  C72      1.0000 0.47080  0.16570  0.97070  Biso   1.000  C
  O9       1.0000 0.21934  0.64231  0.31903  Biso   1.000  O
  N17      1.0000 0.89544  0.40154  0.08840  Biso   1.000  N
  N18      1.0000 0.77708  0.33668  0.99275  Biso   1.000  N
  C73      1.0000 0.03680  0.49540  0.16900  Biso   1.000  C
  H49      1.0000 0.06730  0.49570  0.11450  Biso   1.000  H
  C74      1.0000 0.94620  0.44950  0.17000  Biso   1.000  C
  C75      1.0000 0.81730  0.39300  0.06220  Biso   1.000  C
  H50      1.0000 0.79370  0.42450  0.09120  Biso   1.000  H
  C76      1.0000 0.90860  0.34500  0.02980  Biso   1.000  C
  C77      1.0000 0.97520  0.32480  0.02360  Biso   1.000  C
  H51      1.0000 0.02440  0.35140  0.06320  Biso   1.000  H
  C78      1.0000 0.96540  0.26340  0.95590  Biso   1.000  C
  H52      1.0000 0.00860  0.24740  0.95040  Biso   1.000  H
  C79      1.0000 0.89250  0.22480  0.89550  Biso   1.000  C
  H53      1.0000 0.88890  0.18470  0.84960  Biso   1.000  H
  C80      1.0000 0.82560  0.24420  0.90180  Biso   1.000  C
  H54      1.0000 0.77670  0.21780  0.86170  Biso   1.000  H
  C81      1.0000 0.83430  0.30510  0.97070  Biso   1.000  C
  O10      1.0000 0.42297  0.64231  0.18097  Biso   1.000  O
  N19      1.0000 0.50610  0.40154  0.41160  Biso   1.000  N
  N20      1.0000 0.55960  0.33668  0.50725  Biso   1.000  N
  C82      1.0000 0.45860  0.49540  0.33100  Biso   1.000  C
  H55      1.0000 0.42840  0.49570  0.38550  Biso   1.000  H
  C83      1.0000 0.50330  0.44950  0.33000  Biso   1.000  C
  C84      1.0000 0.57570  0.39300  0.43780  Biso   1.000  C
  H56      1.0000 0.63080  0.42450  0.40880  Biso   1.000  H
  C85      1.0000 0.43640  0.34500  0.47020  Biso   1.000  C
  C86      1.0000 0.34960  0.32480  0.47640  Biso   1.000  C
  H57      1.0000 0.32700  0.35140  0.43680  Biso   1.000  H
  C87      1.0000 0.29800  0.26340  0.54410  Biso   1.000  C
  H58      1.0000 0.23880  0.24740  0.54960  Biso   1.000  H
  C88      1.0000 0.33230  0.22480  0.60450  Biso   1.000  C
  H59      1.0000 0.29580  0.18470  0.65040  Biso   1.000  H
  C89      1.0000 0.41860  0.24420  0.59820  Biso   1.000  C
  H60      1.0000 0.44110  0.21780  0.63830  Biso   1.000  H
  C90      1.0000 0.47080  0.30510  0.52930  Biso   1.000  C
  O11      1.0000 0.21934  0.57703  0.18097  Biso   1.000  O
  N21      1.0000 0.89544  0.49390  0.41160  Biso   1.000  N
  N22      1.0000 0.77708  0.44040  0.50725  Biso   1.000  N
  C91      1.0000 0.03680  0.54140  0.33100  Biso   1.000  C
  H61      1.0000 0.06730  0.57160  0.38550  Biso   1.000  H
  C92      1.0000 0.94620  0.49670  0.33000  Biso   1.000  C
  C93      1.0000 0.81730  0.42430  0.43780  Biso   1.000  C
  H62      1.0000 0.79370  0.36920  0.40880  Biso   1.000  H
  C94      1.0000 0.90860  0.56360  0.47020  Biso   1.000  C
  C95      1.0000 0.97520  0.65040  0.47640  Biso   1.000  C
  H63      1.0000 0.02440  0.67300  0.43680  Biso   1.000  H
  C96      1.0000 0.96540  0.70200  0.54410  Biso   1.000  C
  H64      1.0000 0.00860  0.76120  0.54960  Biso   1.000  H
  C97      1.0000 0.89250  0.66770  0.60450  Biso   1.000  C
  H65      1.0000 0.88890  0.70420  0.65040  Biso   1.000  H
  C98      1.0000 0.82560  0.58140  0.59820  Biso   1.000  C
  H66      1.0000 0.77670  0.55890  0.63830  Biso   1.000  H
  C99      1.0000 0.83430  0.52920  0.52930  Biso   1.000  C
  O12      1.0000 0.35769  0.78066  0.18097  Biso   1.000  O
  N23      1.0000 0.59846  0.10456  0.41160  Biso   1.000  N
  N24      1.0000 0.66332  0.22292  0.50725  Biso   1.000  N
  C100     1.0000 0.50460  0.96320  0.33100  Biso   1.000  C
  H67      1.0000 0.50430  0.93270  0.38550  Biso   1.000  H
  C101     1.0000 0.55050  0.05380  0.33000  Biso   1.000  C
  C102     1.0000 0.60700  0.18270  0.43780  Biso   1.000  C
  H68      1.0000 0.57550  0.20630  0.40880  Biso   1.000  H
  C103     1.0000 0.65500  0.09140  0.47020  Biso   1.000  C
  C104     1.0000 0.67520  0.02480  0.47640  Biso   1.000  C
  H69      1.0000 0.64860  0.97560  0.43680  Biso   1.000  H
  C105     1.0000 0.73660  0.03460  0.54410  Biso   1.000  C
  H70      1.0000 0.75260  0.99140  0.54960  Biso   1.000  H
  C106     1.0000 0.77520  0.10750  0.60450  Biso   1.000  C
  H71      1.0000 0.81530  0.11110  0.65040  Biso   1.000  H
  C107     1.0000 0.75580  0.17440  0.59820  Biso   1.000  C
  H72      1.0000 0.78220  0.22330  0.63830  Biso   1.000  H
  C108     1.0000 0.69490  0.16570  0.52930  Biso   1.000  C
  Mn1      1.0000 0.66667  0.33333  0.60147  Biso   1.000  Mn
  Mn2      1.0000 0.66667  0.33333  0.89853  Biso   1.000  Mn
  Mn3      1.0000 0.33333  0.66667  0.39853  Biso   1.000  Mn
  Mn4      1.0000 0.33333  0.66667  0.10147  Biso   1.000  Mn
  C109     1.0000 0.59097  0.40903  0.75000  Biso   1.000  C
  C110     1.0000 0.54143  0.45857  0.75000  Biso   1.000  C
  C111     1.0000 0.45026  0.54974  0.75000  Biso   1.000  C
  H73      1.0000 0.41960  0.58040  0.75000  Biso   1.000  H
  C112     1.0000 0.59097  0.18194  0.75000  Biso   1.000  C
  C113     1.0000 0.54143  0.08286  0.75000  Biso   1.000  C
  C114     1.0000 0.45026  0.90052  0.75000  Biso   1.000  C
  H74      1.0000 0.41960  0.83920  0.75000  Biso   1.000  H
  C115     1.0000 0.81806  0.40903  0.75000  Biso   1.000  C
  C116     1.0000 0.91714  0.45857  0.75000  Biso   1.000  C
  C117     1.0000 0.09948  0.54974  0.75000  Biso   1.000  C
  H75      1.0000 0.16080  0.58040  0.75000  Biso   1.000  H
  C118     1.0000 0.40903  0.59097  0.25000  Biso   1.000  C
  C119     1.0000 0.45857  0.54143  0.25000  Biso   1.000  C
  C120     1.0000 0.54974  0.45026  0.25000  Biso   1.000  C
  H76      1.0000 0.58040  0.41960  0.25000  Biso   1.000  H
  C121     1.0000 0.40903  0.81806  0.25000  Biso   1.000  C
  C122     1.0000 0.45857  0.91714  0.25000  Biso   1.000  C
  C123     1.0000 0.54974  0.09948  0.25000  Biso   1.000  C
  H77      1.0000 0.58040  0.16080  0.25000  Biso   1.000  H
  C124     1.0000 0.18194  0.59097  0.25000  Biso   1.000  C
  C125     1.0000 0.08286  0.54143  0.25000  Biso   1.000  C
  C126     1.0000 0.90052  0.45026  0.25000  Biso   1.000  C
  H78      1.0000 0.83920  0.41960  0.25000  Biso   1.000  H
