data_image0
_cell_length_a       17.246
_cell_length_b       17.246
_cell_length_c       14.135
_cell_angle_alpha    90
_cell_angle_beta     90
_cell_angle_gamma    120

_symmetry_space_group_name_H-M    "P 1"
_symmetry_int_tables_number       1

loop_
  _symmetry_equiv_pos_as_xyz
  'x, y, z'

loop_
  _atom_site_label
  _atom_site_occupancy
  _atom_site_fract_x
  _atom_site_fract_y
  _atom_site_fract_z
  _atom_site_thermal_displace_type
  _atom_site_B_iso_or_equiv
  _atom_site_type_symbol
  O1       1.0000 0.64270  0.42470  0.18270  Biso   1.000  O
  N1       1.0000 0.49440  0.60360  0.08950  Biso   1.000  N
  N2       1.0000 0.44200  0.66730  0.98950  Biso   1.000  N
  C1       1.0000 0.54070  0.50800  0.16980  Biso   1.000  C
  H1       1.0000 0.57190  0.50880  0.11570  Biso   1.000  H
  C2       1.0000 0.49550  0.55340  0.17150  Biso   1.000  C
  C3       1.0000 0.42370  0.61220  0.06190  Biso   1.000  C
  H2       1.0000 0.36790  0.58240  0.09100  Biso   1.000  H
  C4       1.0000 0.56530  0.65760  0.02890  Biso   1.000  C
  C5       1.0000 0.65150  0.67540  0.02450  Biso   1.000  C
  H3       1.0000 0.67350  0.64980  0.06680  Biso   1.000  H
  C6       1.0000 0.70520  0.73350  0.95380  Biso   1.000  C
  H4       1.0000 0.76450  0.74730  0.94790  Biso   1.000  H
  C7       1.0000 0.67000  0.77140  0.89110  Biso   1.000  C
  H5       1.0000 0.70700  0.81060  0.84470  Biso   1.000  H
  C8       1.0000 0.58510  0.75300  0.89600  Biso   1.000  C
  H6       1.0000 0.56270  0.77770  0.85310  Biso   1.000  H
  C9       1.0000 0.53090  0.69540  0.96780  Biso   1.000  C
  O2       1.0000 0.57530  0.21800  0.18270  Biso   1.000  O
  N3       1.0000 0.39640  0.89080  0.08950  Biso   1.000  N
  N4       1.0000 0.33270  0.77470  0.98950  Biso   1.000  N
  C10      1.0000 0.49200  0.03270  0.16980  Biso   1.000  C
  H7       1.0000 0.49120  0.06310  0.11570  Biso   1.000  H
  C11      1.0000 0.44660  0.94210  0.17150  Biso   1.000  C
  C12      1.0000 0.38780  0.81150  0.06190  Biso   1.000  C
  H8       1.0000 0.41760  0.78550  0.09100  Biso   1.000  H
  C13      1.0000 0.34240  0.90770  0.02890  Biso   1.000  C
  C14      1.0000 0.32460  0.97610  0.02450  Biso   1.000  C
  H9       1.0000 0.35020  0.02370  0.06680  Biso   1.000  H
  C15      1.0000 0.26650  0.97170  0.95380  Biso   1.000  C
  H10      1.0000 0.25270  0.01720  0.94790  Biso   1.000  H
  C16      1.0000 0.22860  0.89860  0.89110  Biso   1.000  C
  H11      1.0000 0.18940  0.89640  0.84470  Biso   1.000  H
  C17      1.0000 0.24700  0.83210  0.89600  Biso   1.000  C
  H12      1.0000 0.22230  0.78500  0.85310  Biso   1.000  H
  C18      1.0000 0.30460  0.83550  0.96780  Biso   1.000  C
  O3       1.0000 0.78200  0.35730  0.18270  Biso   1.000  O
  N5       1.0000 0.10920  0.50560  0.08950  Biso   1.000  N
  N6       1.0000 0.22530  0.55800  0.98950  Biso   1.000  N
  C19      1.0000 0.96730  0.45930  0.16980  Biso   1.000  C
  H13      1.0000 0.93690  0.42810  0.11570  Biso   1.000  H
  C20      1.0000 0.05790  0.50450  0.17150  Biso   1.000  C
  C21      1.0000 0.18850  0.57630  0.06190  Biso   1.000  C
  H14      1.0000 0.21450  0.63210  0.09100  Biso   1.000  H
  C22      1.0000 0.09230  0.43470  0.02890  Biso   1.000  C
  C23      1.0000 0.02390  0.34850  0.02450  Biso   1.000  C
  H15      1.0000 0.97630  0.32650  0.06680  Biso   1.000  H
  C24      1.0000 0.02830  0.29480  0.95380  Biso   1.000  C
  H16      1.0000 0.98280  0.23550  0.94790  Biso   1.000  H
  C25      1.0000 0.10140  0.33000  0.89110  Biso   1.000  C
  H17      1.0000 0.10360  0.29300  0.84470  Biso   1.000  H
  C26      1.0000 0.16790  0.41490  0.89600  Biso   1.000  C
  H18      1.0000 0.21500  0.43730  0.85310  Biso   1.000  H
  C27      1.0000 0.16450  0.46910  0.96780  Biso   1.000  C
  O4       1.0000 0.57530  0.35730  0.31730  Biso   1.000  O
  N7       1.0000 0.39640  0.50560  0.41050  Biso   1.000  N
  N8       1.0000 0.33270  0.55800  0.51050  Biso   1.000  N
  C28      1.0000 0.49200  0.45930  0.33020  Biso   1.000  C
  H19      1.0000 0.49120  0.42810  0.38430  Biso   1.000  H
  C29      1.0000 0.44660  0.50450  0.32850  Biso   1.000  C
  C30      1.0000 0.38780  0.57630  0.43810  Biso   1.000  C
  H20      1.0000 0.41760  0.63210  0.40900  Biso   1.000  H
  C31      1.0000 0.34240  0.43470  0.47110  Biso   1.000  C
  C32      1.0000 0.32460  0.34850  0.47550  Biso   1.000  C
  H21      1.0000 0.35020  0.32650  0.43320  Biso   1.000  H
  C33      1.0000 0.26650  0.29480  0.54620  Biso   1.000  C
  H22      1.0000 0.25270  0.23550  0.55210  Biso   1.000  H
  C34      1.0000 0.22860  0.33000  0.60890  Biso   1.000  C
  H23      1.0000 0.18940  0.29300  0.65530  Biso   1.000  H
  C35      1.0000 0.24700  0.41490  0.60400  Biso   1.000  C
  H24      1.0000 0.22230  0.43730  0.64690  Biso   1.000  H
  C36      1.0000 0.30460  0.46910  0.53220  Biso   1.000  C
  O5       1.0000 0.78200  0.42470  0.31730  Biso   1.000  O
  N9       1.0000 0.10920  0.60360  0.41050  Biso   1.000  N
  N10      1.0000 0.22530  0.66730  0.51050  Biso   1.000  N
  C37      1.0000 0.96730  0.50800  0.33020  Biso   1.000  C
  H25      1.0000 0.93690  0.50880  0.38430  Biso   1.000  H
  C38      1.0000 0.05790  0.55340  0.32850  Biso   1.000  C
  C39      1.0000 0.18850  0.61220  0.43810  Biso   1.000  C
  H26      1.0000 0.21450  0.58240  0.40900  Biso   1.000  H
  C40      1.0000 0.09230  0.65760  0.47110  Biso   1.000  C
  C41      1.0000 0.02390  0.67540  0.47550  Biso   1.000  C
  H27      1.0000 0.97630  0.64980  0.43320  Biso   1.000  H
  C42      1.0000 0.02830  0.73350  0.54620  Biso   1.000  C
  H28      1.0000 0.98280  0.74730  0.55210  Biso   1.000  H
  C43      1.0000 0.10140  0.77140  0.60890  Biso   1.000  C
  H29      1.0000 0.10360  0.81060  0.65530  Biso   1.000  H
  C44      1.0000 0.16790  0.75300  0.60400  Biso   1.000  C
  H30      1.0000 0.21500  0.77770  0.64690  Biso   1.000  H
  C45      1.0000 0.16450  0.69540  0.53220  Biso   1.000  C
  O6       1.0000 0.64270  0.21800  0.31730  Biso   1.000  O
  N11      1.0000 0.49440  0.89080  0.41050  Biso   1.000  N
  N12      1.0000 0.44200  0.77470  0.51050  Biso   1.000  N
  C46      1.0000 0.54070  0.03270  0.33020  Biso   1.000  C
  H31      1.0000 0.57190  0.06310  0.38430  Biso   1.000  H
  C47      1.0000 0.49550  0.94210  0.32850  Biso   1.000  C
  C48      1.0000 0.42370  0.81150  0.43810  Biso   1.000  C
  H32      1.0000 0.36790  0.78550  0.40900  Biso   1.000  H
  C49      1.0000 0.56530  0.90770  0.47110  Biso   1.000  C
  C50      1.0000 0.65150  0.97610  0.47550  Biso   1.000  C
  H33      1.0000 0.67350  0.02370  0.43320  Biso   1.000  H
  C51      1.0000 0.70520  0.97170  0.54620  Biso   1.000  C
  H34      1.0000 0.76450  0.01720  0.55210  Biso   1.000  H
  C52      1.0000 0.67000  0.89860  0.60890  Biso   1.000  C
  H35      1.0000 0.70700  0.89640  0.65530  Biso   1.000  H
  C53      1.0000 0.58510  0.83210  0.60400  Biso   1.000  C
  H36      1.0000 0.56270  0.78500  0.64690  Biso   1.000  H
  C54      1.0000 0.53090  0.83550  0.53220  Biso   1.000  C
  O7       1.0000 0.35730  0.57530  0.81730  Biso   1.000  O
  N13      1.0000 0.50560  0.39640  0.91050  Biso   1.000  N
  N14      1.0000 0.55800  0.33270  0.01050  Biso   1.000  N
  C55      1.0000 0.45930  0.49200  0.83020  Biso   1.000  C
  H37      1.0000 0.42810  0.49120  0.88430  Biso   1.000  H
  C56      1.0000 0.50450  0.44660  0.82850  Biso   1.000  C
  C57      1.0000 0.57630  0.38780  0.93810  Biso   1.000  C
  H38      1.0000 0.63210  0.41760  0.90900  Biso   1.000  H
  C58      1.0000 0.43470  0.34240  0.97110  Biso   1.000  C
  C59      1.0000 0.34850  0.32460  0.97550  Biso   1.000  C
  H39      1.0000 0.32650  0.35020  0.93320  Biso   1.000  H
  C60      1.0000 0.29480  0.26650  0.04620  Biso   1.000  C
  H40      1.0000 0.23550  0.25270  0.05210  Biso   1.000  H
  C61      1.0000 0.33000  0.22860  0.10890  Biso   1.000  C
  H41      1.0000 0.29300  0.18940  0.15530  Biso   1.000  H
  C62      1.0000 0.41490  0.24700  0.10400  Biso   1.000  C
  H42      1.0000 0.43730  0.22230  0.14690  Biso   1.000  H
  C63      1.0000 0.46910  0.30460  0.03220  Biso   1.000  C
  O8       1.0000 0.42470  0.78200  0.81730  Biso   1.000  O
  N15      1.0000 0.60360  0.10920  0.91050  Biso   1.000  N
  N16      1.0000 0.66730  0.22530  0.01050  Biso   1.000  N
  C64      1.0000 0.50800  0.96730  0.83020  Biso   1.000  C
  H43      1.0000 0.50880  0.93690  0.88430  Biso   1.000  H
  C65      1.0000 0.55340  0.05790  0.82850  Biso   1.000  C
  C66      1.0000 0.61220  0.18850  0.93810  Biso   1.000  C
  H44      1.0000 0.58240  0.21450  0.90900  Biso   1.000  H
  C67      1.0000 0.65760  0.09230  0.97110  Biso   1.000  C
  C68      1.0000 0.67540  0.02390  0.97550  Biso   1.000  C
  H45      1.0000 0.64980  0.97630  0.93320  Biso   1.000  H
  C69      1.0000 0.73350  0.02830  0.04620  Biso   1.000  C
  H46      1.0000 0.74730  0.98280  0.05210  Biso   1.000  H
  C70      1.0000 0.77140  0.10140  0.10890  Biso   1.000  C
  H47      1.0000 0.81060  0.10360  0.15530  Biso   1.000  H
  C71      1.0000 0.75300  0.16790  0.10400  Biso   1.000  C
  H48      1.0000 0.77770  0.21500  0.14690  Biso   1.000  H
  C72      1.0000 0.69540  0.16450  0.03220  Biso   1.000  C
  O9       1.0000 0.21800  0.64270  0.81730  Biso   1.000  O
  N17      1.0000 0.89080  0.49440  0.91050  Biso   1.000  N
  N18      1.0000 0.77470  0.44200  0.01050  Biso   1.000  N
  C73      1.0000 0.03270  0.54070  0.83020  Biso   1.000  C
  H49      1.0000 0.06310  0.57190  0.88430  Biso   1.000  H
  C74      1.0000 0.94210  0.49550  0.82850  Biso   1.000  C
  C75      1.0000 0.81150  0.42370  0.93810  Biso   1.000  C
  H50      1.0000 0.78550  0.36790  0.90900  Biso   1.000  H
  C76      1.0000 0.90770  0.56530  0.97110  Biso   1.000  C
  C77      1.0000 0.97610  0.65150  0.97550  Biso   1.000  C
  H51      1.0000 0.02370  0.67350  0.93320  Biso   1.000  H
  C78      1.0000 0.97170  0.70520  0.04620  Biso   1.000  C
  H52      1.0000 0.01720  0.76450  0.05210  Biso   1.000  H
  C79      1.0000 0.89860  0.67000  0.10890  Biso   1.000  C
  H53      1.0000 0.89640  0.70700  0.15530  Biso   1.000  H
  C80      1.0000 0.83210  0.58510  0.10400  Biso   1.000  C
  H54      1.0000 0.78500  0.56270  0.14690  Biso   1.000  H
  C81      1.0000 0.83550  0.53090  0.03220  Biso   1.000  C
  O10      1.0000 0.42470  0.64270  0.68270  Biso   1.000  O
  N19      1.0000 0.60360  0.49440  0.58950  Biso   1.000  N
  N20      1.0000 0.66730  0.44200  0.48950  Biso   1.000  N
  C82      1.0000 0.50800  0.54070  0.66980  Biso   1.000  C
  H55      1.0000 0.50880  0.57190  0.61570  Biso   1.000  H
  C83      1.0000 0.55340  0.49550  0.67150  Biso   1.000  C
  C84      1.0000 0.61220  0.42370  0.56190  Biso   1.000  C
  H56      1.0000 0.58240  0.36790  0.59100  Biso   1.000  H
  C85      1.0000 0.65760  0.56530  0.52890  Biso   1.000  C
  C86      1.0000 0.67540  0.65150  0.52450  Biso   1.000  C
  H57      1.0000 0.64980  0.67350  0.56680  Biso   1.000  H
  C87      1.0000 0.73350  0.70520  0.45380  Biso   1.000  C
  H58      1.0000 0.74730  0.76450  0.44790  Biso   1.000  H
  C88      1.0000 0.77140  0.67000  0.39110  Biso   1.000  C
  H59      1.0000 0.81060  0.70700  0.34470  Biso   1.000  H
  C89      1.0000 0.75300  0.58510  0.39600  Biso   1.000  C
  H60      1.0000 0.77770  0.56270  0.35310  Biso   1.000  H
  C90      1.0000 0.69540  0.53090  0.46780  Biso   1.000  C
  O11      1.0000 0.21800  0.57530  0.68270  Biso   1.000  O
  N21      1.0000 0.89080  0.39640  0.58950  Biso   1.000  N
  N22      1.0000 0.77470  0.33270  0.48950  Biso   1.000  N
  C91      1.0000 0.03270  0.49200  0.66980  Biso   1.000  C
  H61      1.0000 0.06310  0.49120  0.61570  Biso   1.000  H
  C92      1.0000 0.94210  0.44660  0.67150  Biso   1.000  C
  C93      1.0000 0.81150  0.38780  0.56190  Biso   1.000  C
  H62      1.0000 0.78550  0.41760  0.59100  Biso   1.000  H
  C94      1.0000 0.90770  0.34240  0.52890  Biso   1.000  C
  C95      1.0000 0.97610  0.32460  0.52450  Biso   1.000  C
  H63      1.0000 0.02370  0.35020  0.56680  Biso   1.000  H
  C96      1.0000 0.97170  0.26650  0.45380  Biso   1.000  C
  H64      1.0000 0.01720  0.25270  0.44790  Biso   1.000  H
  C97      1.0000 0.89860  0.22860  0.39110  Biso   1.000  C
  H65      1.0000 0.89640  0.18940  0.34470  Biso   1.000  H
  C98      1.0000 0.83210  0.24700  0.39600  Biso   1.000  C
  H66      1.0000 0.78500  0.22230  0.35310  Biso   1.000  H
  C99      1.0000 0.83550  0.30460  0.46780  Biso   1.000  C
  O12      1.0000 0.35730  0.78200  0.68270  Biso   1.000  O
  N23      1.0000 0.50560  0.10920  0.58950  Biso   1.000  N
  N24      1.0000 0.55800  0.22530  0.48950  Biso   1.000  N
  C100     1.0000 0.45930  0.96730  0.66980  Biso   1.000  C
  H67      1.0000 0.42810  0.93690  0.61570  Biso   1.000  H
  C101     1.0000 0.50450  0.05790  0.67150  Biso   1.000  C
  C102     1.0000 0.57630  0.18850  0.56190  Biso   1.000  C
  H68      1.0000 0.63210  0.21450  0.59100  Biso   1.000  H
  C103     1.0000 0.43470  0.09230  0.52890  Biso   1.000  C
  C104     1.0000 0.34850  0.02390  0.52450  Biso   1.000  C
  H69      1.0000 0.32650  0.97630  0.56680  Biso   1.000  H
  C105     1.0000 0.29480  0.02830  0.45380  Biso   1.000  C
  H70      1.0000 0.23550  0.98280  0.44790  Biso   1.000  H
  C106     1.0000 0.33000  0.10140  0.39110  Biso   1.000  C
  H71      1.0000 0.29300  0.10360  0.34470  Biso   1.000  H
  C107     1.0000 0.41490  0.16790  0.39600  Biso   1.000  C
  H72      1.0000 0.43730  0.21500  0.35310  Biso   1.000  H
  C108     1.0000 0.46910  0.16450  0.46780  Biso   1.000  C
  Mn1      1.0000 0.66667  0.33333  0.10400  Biso   1.000  Mn
  Mn2      1.0000 0.66667  0.33333  0.39600  Biso   1.000  Mn
  Mn3      1.0000 0.33333  0.66667  0.89600  Biso   1.000  Mn
  Mn4      1.0000 0.33333  0.66667  0.60400  Biso   1.000  Mn
  C109     1.0000 0.59030  0.40970  0.25000  Biso   1.000  C
  C110     1.0000 0.54030  0.45970  0.25000  Biso   1.000  C
  C111     1.0000 0.44640  0.55360  0.25000  Biso   1.000  C
  H73      1.0000 0.41530  0.58470  0.25000  Biso   1.000  H
  C112     1.0000 0.59030  0.18060  0.25000  Biso   1.000  C
  C113     1.0000 0.54030  0.08060  0.25000  Biso   1.000  C
  C114     1.0000 0.44640  0.89280  0.25000  Biso   1.000  C
  H74      1.0000 0.41530  0.83060  0.25000  Biso   1.000  H
  C115     1.0000 0.81940  0.40970  0.25000  Biso   1.000  C
  C116     1.0000 0.91940  0.45970  0.25000  Biso   1.000  C
  C117     1.0000 0.10720  0.55360  0.25000  Biso   1.000  C
  H75      1.0000 0.16940  0.58470  0.25000  Biso   1.000  H
  C118     1.0000 0.40970  0.59030  0.75000  Biso   1.000  C
  C119     1.0000 0.45970  0.54030  0.75000  Biso   1.000  C
  C120     1.0000 0.55360  0.44640  0.75000  Biso   1.000  C
  H76      1.0000 0.58470  0.41530  0.75000  Biso   1.000  H
  C121     1.0000 0.40970  0.81940  0.75000  Biso   1.000  C
  C122     1.0000 0.45970  0.91940  0.75000  Biso   1.000  C
  C123     1.0000 0.55360  0.10720  0.75000  Biso   1.000  C
  H77      1.0000 0.58470  0.16940  0.75000  Biso   1.000  H
  C124     1.0000 0.18060  0.59030  0.75000  Biso   1.000  C
  C125     1.0000 0.08060  0.54030  0.75000  Biso   1.000  C
  C126     1.0000 0.89280  0.44640  0.75000  Biso   1.000  C
  H78      1.0000 0.83060  0.41530  0.75000  Biso   1.000  H
