data_image0
_cell_length_a       17.203
_cell_length_b       17.203
_cell_length_c       14.045
_cell_angle_alpha    90
_cell_angle_beta     90
_cell_angle_gamma    120

_symmetry_space_group_name_H-M    "P 1"
_symmetry_int_tables_number       1

loop_
  _symmetry_equiv_pos_as_xyz
  'x, y, z'

loop_
  _atom_site_label
  _atom_site_occupancy
  _atom_site_fract_x
  _atom_site_fract_y
  _atom_site_fract_z
  _atom_site_thermal_displace_type
  _atom_site_B_iso_or_equiv
  _atom_site_type_symbol
  O1       1.0000 0.78342  0.42654  0.18241  Biso   1.000  O
  N1       1.0000 0.11140  0.50260  0.40810  Biso   1.000  N
  N2       1.0000 0.22680  0.55680  0.51120  Biso   1.000  N
  C1       1.0000 0.96900  0.45770  0.32950  Biso   1.000  C
  H1       1.0000 0.93800  0.42440  0.38280  Biso   1.000  H
  C2       1.0000 0.06180  0.50410  0.32860  Biso   1.000  C
  C3       1.0000 0.18800  0.57550  0.44130  Biso   1.000  C
  H2       1.0000 0.21050  0.63300  0.41670  Biso   1.000  H
  C4       1.0000 0.09990  0.42900  0.46180  Biso   1.000  C
  C5       1.0000 0.03730  0.33770  0.45720  Biso   1.000  C
  H3       1.0000 0.99020  0.31490  0.41380  Biso   1.000  H
  C6       1.0000 0.04870  0.28250  0.52030  Biso   1.000  C
  H4       1.0000 0.00850  0.22100  0.51890  Biso   1.000  H
  C7       1.0000 0.11890  0.31690  0.58600  Biso   1.000  C
  H5       1.0000 0.12350  0.27790  0.62850  Biso   1.000  H
  C8       1.0000 0.18210  0.40760  0.58980  Biso   1.000  C
  H6       1.0000 0.22900  0.42990  0.63340  Biso   1.000  H
  C9       1.0000 0.17240  0.46420  0.52560  Biso   1.000  C
  O2       1.0000 0.57346  0.35688  0.18241  Biso   1.000  O
  N3       1.0000 0.49740  0.60880  0.40810  Biso   1.000  N
  N4       1.0000 0.44320  0.67000  0.51120  Biso   1.000  N
  C10      1.0000 0.54230  0.51130  0.32950  Biso   1.000  C
  H7       1.0000 0.57560  0.51360  0.38280  Biso   1.000  H
  C11      1.0000 0.49590  0.55770  0.32860  Biso   1.000  C
  C12      1.0000 0.42450  0.61250  0.44130  Biso   1.000  C
  H8       1.0000 0.36700  0.57750  0.41670  Biso   1.000  H
  C13      1.0000 0.57100  0.67090  0.46180  Biso   1.000  C
  C14      1.0000 0.66230  0.69960  0.45720  Biso   1.000  C
  H9       1.0000 0.68510  0.67530  0.41380  Biso   1.000  H
  C15      1.0000 0.71750  0.76620  0.52030  Biso   1.000  C
  H10      1.0000 0.77900  0.78750  0.51890  Biso   1.000  H
  C16      1.0000 0.68310  0.80200  0.58600  Biso   1.000  C
  H11      1.0000 0.72210  0.84560  0.62850  Biso   1.000  H
  C17      1.0000 0.59240  0.77450  0.58980  Biso   1.000  C
  H12      1.0000 0.57010  0.79910  0.63340  Biso   1.000  H
  C18      1.0000 0.53580  0.70820  0.52560  Biso   1.000  C
  O3       1.0000 0.64312  0.21658  0.18241  Biso   1.000  O
  N5       1.0000 0.39120  0.88860  0.40810  Biso   1.000  N
  N6       1.0000 0.33000  0.77320  0.51120  Biso   1.000  N
  C19      1.0000 0.48870  0.03100  0.32950  Biso   1.000  C
  H13      1.0000 0.48640  0.06200  0.38280  Biso   1.000  H
  C20      1.0000 0.44230  0.93820  0.32860  Biso   1.000  C
  C21      1.0000 0.38750  0.81200  0.44130  Biso   1.000  C
  H14      1.0000 0.42250  0.78950  0.41670  Biso   1.000  H
  C22      1.0000 0.32910  0.90010  0.46180  Biso   1.000  C
  C23      1.0000 0.30040  0.96270  0.45720  Biso   1.000  C
  H15      1.0000 0.32470  0.00980  0.41380  Biso   1.000  H
  C24      1.0000 0.23380  0.95130  0.52030  Biso   1.000  C
  H16      1.0000 0.21250  0.99150  0.51890  Biso   1.000  H
  C25      1.0000 0.19800  0.88110  0.58600  Biso   1.000  C
  H17      1.0000 0.15440  0.87650  0.62850  Biso   1.000  H
  C26      1.0000 0.22550  0.81790  0.58980  Biso   1.000  C
  H18      1.0000 0.20090  0.77100  0.63340  Biso   1.000  H
  C27      1.0000 0.29180  0.82760  0.52560  Biso   1.000  C
  O4       1.0000 0.57346  0.21658  0.31759  Biso   1.000  O
  N7       1.0000 0.49740  0.88860  0.09190  Biso   1.000  N
  N8       1.0000 0.44320  0.77320  0.98880  Biso   1.000  N
  C28      1.0000 0.54230  0.03100  0.17050  Biso   1.000  C
  H19      1.0000 0.57560  0.06200  0.11720  Biso   1.000  H
  C29      1.0000 0.49590  0.93820  0.17140  Biso   1.000  C
  C30      1.0000 0.42450  0.81200  0.05870  Biso   1.000  C
  H20      1.0000 0.36700  0.78950  0.08330  Biso   1.000  H
  C31      1.0000 0.57100  0.90010  0.03820  Biso   1.000  C
  C32      1.0000 0.66230  0.96270  0.04280  Biso   1.000  C
  H21      1.0000 0.68510  0.00980  0.08620  Biso   1.000  H
  C33      1.0000 0.71750  0.95130  0.97970  Biso   1.000  C
  H22      1.0000 0.77900  0.99150  0.98110  Biso   1.000  H
  C34      1.0000 0.68310  0.88110  0.91400  Biso   1.000  C
  H23      1.0000 0.72210  0.87650  0.87150  Biso   1.000  H
  C35      1.0000 0.59240  0.81790  0.91020  Biso   1.000  C
  H24      1.0000 0.57010  0.77100  0.86660  Biso   1.000  H
  C36      1.0000 0.53580  0.82760  0.97440  Biso   1.000  C
  O5       1.0000 0.64312  0.42654  0.31759  Biso   1.000  O
  N9       1.0000 0.39120  0.50260  0.09190  Biso   1.000  N
  N10      1.0000 0.33000  0.55680  0.98880  Biso   1.000  N
  C37      1.0000 0.48870  0.45770  0.17050  Biso   1.000  C
  H25      1.0000 0.48640  0.42440  0.11720  Biso   1.000  H
  C38      1.0000 0.44230  0.50410  0.17140  Biso   1.000  C
  C39      1.0000 0.38750  0.57550  0.05870  Biso   1.000  C
  H26      1.0000 0.42250  0.63300  0.08330  Biso   1.000  H
  C40      1.0000 0.32910  0.42900  0.03820  Biso   1.000  C
  C41      1.0000 0.30040  0.33770  0.04280  Biso   1.000  C
  H27      1.0000 0.32470  0.31490  0.08620  Biso   1.000  H
  C42      1.0000 0.23380  0.28250  0.97970  Biso   1.000  C
  H28      1.0000 0.21250  0.22100  0.98110  Biso   1.000  H
  C43      1.0000 0.19800  0.31690  0.91400  Biso   1.000  C
  H29      1.0000 0.15440  0.27790  0.87150  Biso   1.000  H
  C44      1.0000 0.22550  0.40760  0.91020  Biso   1.000  C
  H30      1.0000 0.20090  0.42990  0.86660  Biso   1.000  H
  C45      1.0000 0.29180  0.46420  0.97440  Biso   1.000  C
  O6       1.0000 0.78342  0.35688  0.31759  Biso   1.000  O
  N11      1.0000 0.11140  0.60880  0.09190  Biso   1.000  N
  N12      1.0000 0.22680  0.67000  0.98880  Biso   1.000  N
  C46      1.0000 0.96900  0.51130  0.17050  Biso   1.000  C
  H31      1.0000 0.93800  0.51360  0.11720  Biso   1.000  H
  C47      1.0000 0.06180  0.55770  0.17140  Biso   1.000  C
  C48      1.0000 0.18800  0.61250  0.05870  Biso   1.000  C
  H32      1.0000 0.21050  0.57750  0.08330  Biso   1.000  H
  C49      1.0000 0.09990  0.67090  0.03820  Biso   1.000  C
  C50      1.0000 0.03730  0.69960  0.04280  Biso   1.000  C
  H33      1.0000 0.99020  0.67530  0.08620  Biso   1.000  H
  C51      1.0000 0.04870  0.76620  0.97970  Biso   1.000  C
  H34      1.0000 0.00850  0.78750  0.98110  Biso   1.000  H
  C52      1.0000 0.11890  0.80200  0.91400  Biso   1.000  C
  H35      1.0000 0.12350  0.84560  0.87150  Biso   1.000  H
  C53      1.0000 0.18210  0.77450  0.91020  Biso   1.000  C
  H36      1.0000 0.22900  0.79910  0.86660  Biso   1.000  H
  C54      1.0000 0.17240  0.70820  0.97440  Biso   1.000  C
  O7       1.0000 0.21658  0.57346  0.81759  Biso   1.000  O
  N13      1.0000 0.88860  0.49740  0.59190  Biso   1.000  N
  N14      1.0000 0.77320  0.44320  0.48880  Biso   1.000  N
  C55      1.0000 0.03100  0.54230  0.67050  Biso   1.000  C
  H37      1.0000 0.06200  0.57560  0.61720  Biso   1.000  H
  C56      1.0000 0.93820  0.49590  0.67140  Biso   1.000  C
  C57      1.0000 0.81200  0.42450  0.55870  Biso   1.000  C
  H38      1.0000 0.78950  0.36700  0.58330  Biso   1.000  H
  C58      1.0000 0.90010  0.57100  0.53820  Biso   1.000  C
  C59      1.0000 0.96270  0.66230  0.54280  Biso   1.000  C
  H39      1.0000 0.00980  0.68510  0.58620  Biso   1.000  H
  C60      1.0000 0.95130  0.71750  0.47970  Biso   1.000  C
  H40      1.0000 0.99150  0.77900  0.48110  Biso   1.000  H
  C61      1.0000 0.88110  0.68310  0.41400  Biso   1.000  C
  H41      1.0000 0.87650  0.72210  0.37150  Biso   1.000  H
  C62      1.0000 0.81790  0.59240  0.41020  Biso   1.000  C
  H42      1.0000 0.77100  0.57010  0.36660  Biso   1.000  H
  C63      1.0000 0.82760  0.53580  0.47440  Biso   1.000  C
  O8       1.0000 0.42654  0.64312  0.81759  Biso   1.000  O
  N15      1.0000 0.50260  0.39120  0.59190  Biso   1.000  N
  N16      1.0000 0.55680  0.33000  0.48880  Biso   1.000  N
  C64      1.0000 0.45770  0.48870  0.67050  Biso   1.000  C
  H43      1.0000 0.42440  0.48640  0.61720  Biso   1.000  H
  C65      1.0000 0.50410  0.44230  0.67140  Biso   1.000  C
  C66      1.0000 0.57550  0.38750  0.55870  Biso   1.000  C
  H44      1.0000 0.63300  0.42250  0.58330  Biso   1.000  H
  C67      1.0000 0.42900  0.32910  0.53820  Biso   1.000  C
  C68      1.0000 0.33770  0.30040  0.54280  Biso   1.000  C
  H45      1.0000 0.31490  0.32470  0.58620  Biso   1.000  H
  C69      1.0000 0.28250  0.23380  0.47970  Biso   1.000  C
  H46      1.0000 0.22100  0.21250  0.48110  Biso   1.000  H
  C70      1.0000 0.31690  0.19800  0.41400  Biso   1.000  C
  H47      1.0000 0.27790  0.15440  0.37150  Biso   1.000  H
  C71      1.0000 0.40760  0.22550  0.41020  Biso   1.000  C
  H48      1.0000 0.42990  0.20090  0.36660  Biso   1.000  H
  C72      1.0000 0.46420  0.29180  0.47440  Biso   1.000  C
  O9       1.0000 0.35688  0.78342  0.81759  Biso   1.000  O
  N17      1.0000 0.60880  0.11140  0.59190  Biso   1.000  N
  N18      1.0000 0.67000  0.22680  0.48880  Biso   1.000  N
  C73      1.0000 0.51130  0.96900  0.67050  Biso   1.000  C
  H49      1.0000 0.51360  0.93800  0.61720  Biso   1.000  H
  C74      1.0000 0.55770  0.06180  0.67140  Biso   1.000  C
  C75      1.0000 0.61250  0.18800  0.55870  Biso   1.000  C
  H50      1.0000 0.57750  0.21050  0.58330  Biso   1.000  H
  C76      1.0000 0.67090  0.09990  0.53820  Biso   1.000  C
  C77      1.0000 0.69960  0.03730  0.54280  Biso   1.000  C
  H51      1.0000 0.67530  0.99020  0.58620  Biso   1.000  H
  C78      1.0000 0.76620  0.04870  0.47970  Biso   1.000  C
  H52      1.0000 0.78750  0.00850  0.48110  Biso   1.000  H
  C79      1.0000 0.80200  0.11890  0.41400  Biso   1.000  C
  H53      1.0000 0.84560  0.12350  0.37150  Biso   1.000  H
  C80      1.0000 0.77450  0.18210  0.41020  Biso   1.000  C
  H54      1.0000 0.79910  0.22900  0.36660  Biso   1.000  H
  C81      1.0000 0.70820  0.17240  0.47440  Biso   1.000  C
  O10      1.0000 0.42654  0.78342  0.68241  Biso   1.000  O
  N19      1.0000 0.50260  0.11140  0.90810  Biso   1.000  N
  N20      1.0000 0.55680  0.22680  0.01120  Biso   1.000  N
  C82      1.0000 0.45770  0.96900  0.82950  Biso   1.000  C
  H55      1.0000 0.42440  0.93800  0.88280  Biso   1.000  H
  C83      1.0000 0.50410  0.06180  0.82860  Biso   1.000  C
  C84      1.0000 0.57550  0.18800  0.94130  Biso   1.000  C
  H56      1.0000 0.63300  0.21050  0.91670  Biso   1.000  H
  C85      1.0000 0.42900  0.09990  0.96180  Biso   1.000  C
  C86      1.0000 0.33770  0.03730  0.95720  Biso   1.000  C
  H57      1.0000 0.31490  0.99020  0.91380  Biso   1.000  H
  C87      1.0000 0.28250  0.04870  0.02030  Biso   1.000  C
  H58      1.0000 0.22100  0.00850  0.01890  Biso   1.000  H
  C88      1.0000 0.31690  0.11890  0.08600  Biso   1.000  C
  H59      1.0000 0.27790  0.12350  0.12850  Biso   1.000  H
  C89      1.0000 0.40760  0.18210  0.08980  Biso   1.000  C
  H60      1.0000 0.42990  0.22900  0.13340  Biso   1.000  H
  C90      1.0000 0.46420  0.17240  0.02560  Biso   1.000  C
  O11      1.0000 0.35688  0.57346  0.68241  Biso   1.000  O
  N21      1.0000 0.60880  0.49740  0.90810  Biso   1.000  N
  N22      1.0000 0.67000  0.44320  0.01120  Biso   1.000  N
  C91      1.0000 0.51130  0.54230  0.82950  Biso   1.000  C
  H61      1.0000 0.51360  0.57560  0.88280  Biso   1.000  H
  C92      1.0000 0.55770  0.49590  0.82860  Biso   1.000  C
  C93      1.0000 0.61250  0.42450  0.94130  Biso   1.000  C
  H62      1.0000 0.57750  0.36700  0.91670  Biso   1.000  H
  C94      1.0000 0.67090  0.57100  0.96180  Biso   1.000  C
  C95      1.0000 0.69960  0.66230  0.95720  Biso   1.000  C
  H63      1.0000 0.67530  0.68510  0.91380  Biso   1.000  H
  C96      1.0000 0.76620  0.71750  0.02030  Biso   1.000  C
  H64      1.0000 0.78750  0.77900  0.01890  Biso   1.000  H
  C97      1.0000 0.80200  0.68310  0.08600  Biso   1.000  C
  H65      1.0000 0.84560  0.72210  0.12850  Biso   1.000  H
  C98      1.0000 0.77450  0.59240  0.08980  Biso   1.000  C
  H66      1.0000 0.79910  0.57010  0.13340  Biso   1.000  H
  C99      1.0000 0.70820  0.53580  0.02560  Biso   1.000  C
  O12      1.0000 0.21658  0.64312  0.68241  Biso   1.000  O
  N23      1.0000 0.88860  0.39120  0.90810  Biso   1.000  N
  N24      1.0000 0.77320  0.33000  0.01120  Biso   1.000  N
  C100     1.0000 0.03100  0.48870  0.82950  Biso   1.000  C
  H67      1.0000 0.06200  0.48640  0.88280  Biso   1.000  H
  C101     1.0000 0.93820  0.44230  0.82860  Biso   1.000  C
  C102     1.0000 0.81200  0.38750  0.94130  Biso   1.000  C
  H68      1.0000 0.78950  0.42250  0.91670  Biso   1.000  H
  C103     1.0000 0.90010  0.32910  0.96180  Biso   1.000  C
  C104     1.0000 0.96270  0.30040  0.95720  Biso   1.000  C
  H69      1.0000 0.00980  0.32470  0.91380  Biso   1.000  H
  C105     1.0000 0.95130  0.23380  0.02030  Biso   1.000  C
  H70      1.0000 0.99150  0.21250  0.01890  Biso   1.000  H
  C106     1.0000 0.88110  0.19800  0.08600  Biso   1.000  C
  H71      1.0000 0.87650  0.15440  0.12850  Biso   1.000  H
  C107     1.0000 0.81790  0.22550  0.08980  Biso   1.000  C
  H72      1.0000 0.77100  0.20090  0.13340  Biso   1.000  H
  C108     1.0000 0.82760  0.29180  0.02560  Biso   1.000  C
  Mn1      1.0000 0.66667  0.33333  0.10599  Biso   1.000  Mn
  Mn2      1.0000 0.66667  0.33333  0.39401  Biso   1.000  Mn
  Mn3      1.0000 0.33333  0.66667  0.89401  Biso   1.000  Mn
  Mn4      1.0000 0.33333  0.66667  0.60599  Biso   1.000  Mn
  C109     1.0000 0.82090  0.41045  0.25000  Biso   1.000  C
  C110     1.0000 0.92210  0.46105  0.25000  Biso   1.000  C
  C111     1.0000 0.10850  0.55425  0.25000  Biso   1.000  C
  H73      1.0000 0.17090  0.58545  0.25000  Biso   1.000  H
  C112     1.0000 0.58955  0.41045  0.25000  Biso   1.000  C
  C113     1.0000 0.53895  0.46105  0.25000  Biso   1.000  C
  C114     1.0000 0.44575  0.55425  0.25000  Biso   1.000  C
  H74      1.0000 0.41455  0.58545  0.25000  Biso   1.000  H
  C115     1.0000 0.58955  0.17910  0.25000  Biso   1.000  C
  C116     1.0000 0.53895  0.07790  0.25000  Biso   1.000  C
  C117     1.0000 0.44575  0.89150  0.25000  Biso   1.000  C
  H75      1.0000 0.41455  0.82910  0.25000  Biso   1.000  H
  C118     1.0000 0.17910  0.58955  0.75000  Biso   1.000  C
  C119     1.0000 0.07790  0.53895  0.75000  Biso   1.000  C
  C120     1.0000 0.89150  0.44575  0.75000  Biso   1.000  C
  H76      1.0000 0.82910  0.41455  0.75000  Biso   1.000  H
  C121     1.0000 0.41045  0.58955  0.75000  Biso   1.000  C
  C122     1.0000 0.46105  0.53895  0.75000  Biso   1.000  C
  C123     1.0000 0.55425  0.44575  0.75000  Biso   1.000  C
  H77      1.0000 0.58545  0.41455  0.75000  Biso   1.000  H
  C124     1.0000 0.41045  0.82090  0.75000  Biso   1.000  C
  C125     1.0000 0.46105  0.92210  0.75000  Biso   1.000  C
  C126     1.0000 0.55425  0.10850  0.75000  Biso   1.000  C
  H78      1.0000 0.58545  0.17090  0.75000  Biso   1.000  H
