data_image0
_cell_length_a       26.2003
_cell_length_b       26.2003
_cell_length_c       9.8014
_cell_angle_alpha    90
_cell_angle_beta     90
_cell_angle_gamma    120

_symmetry_space_group_name_H-M    "P 1"
_symmetry_int_tables_number       1

loop_
  _symmetry_equiv_pos_as_xyz
  'x, y, z'

loop_
  _atom_site_label
  _atom_site_occupancy
  _atom_site_fract_x
  _atom_site_fract_y
  _atom_site_fract_z
  _atom_site_thermal_displace_type
  _atom_site_B_iso_or_equiv
  _atom_site_type_symbol
  N1       1.0000 0.44740  0.00330  0.13780  Biso   1.000  N
  C1       1.0000 0.39640  0.88140  0.01040  Biso   1.000  C
  H1       1.0000 0.37590  0.90190  0.01200  Biso   1.000  H
  C2       1.0000 0.36520  0.82140  0.00910  Biso   1.000  C
  H2       1.0000 0.32420  0.80180  0.00930  Biso   1.000  H
  C3       1.0000 0.41520  0.00870  0.21010  Biso   1.000  C
  N2       1.0000 0.11407  0.33663  0.47113  Biso   1.000  N
  C4       1.0000 0.06307  0.21473  0.34373  Biso   1.000  C
  H3       1.0000 0.04257  0.23523  0.34533  Biso   1.000  H
  C5       1.0000 0.03187  0.15473  0.34243  Biso   1.000  C
  H4       1.0000 0.99087  0.13513  0.34263  Biso   1.000  H
  C6       1.0000 0.08187  0.34203  0.54343  Biso   1.000  C
  N3       1.0000 0.78073  0.66997  0.80447  Biso   1.000  N
  C7       1.0000 0.72973  0.54807  0.67707  Biso   1.000  C
  H5       1.0000 0.70923  0.56857  0.67867  Biso   1.000  H
  C8       1.0000 0.69853  0.48807  0.67577  Biso   1.000  C
  H6       1.0000 0.65753  0.46847  0.67597  Biso   1.000  H
  C9       1.0000 0.74853  0.67537  0.87677  Biso   1.000  C
  N4       1.0000 0.99670  0.44410  0.13780  Biso   1.000  N
  C10      1.0000 0.11860  0.51500  0.01040  Biso   1.000  C
  H7       1.0000 0.09810  0.47400  0.01200  Biso   1.000  H
  C11      1.0000 0.17860  0.54380  0.00910  Biso   1.000  C
  H8       1.0000 0.19820  0.52240  0.00930  Biso   1.000  H
  C12      1.0000 0.99130  0.40650  0.21010  Biso   1.000  C
  N5       1.0000 0.66337  0.77743  0.47113  Biso   1.000  N
  C13      1.0000 0.78527  0.84833  0.34373  Biso   1.000  C
  H9       1.0000 0.76477  0.80733  0.34533  Biso   1.000  H
  C14      1.0000 0.84527  0.87713  0.34243  Biso   1.000  C
  H10      1.0000 0.86487  0.85573  0.34263  Biso   1.000  H
  C15      1.0000 0.65797  0.73983  0.54343  Biso   1.000  C
  N6       1.0000 0.33003  0.11077  0.80447  Biso   1.000  N
  C16      1.0000 0.45193  0.18167  0.67707  Biso   1.000  C
  H11      1.0000 0.43143  0.14067  0.67867  Biso   1.000  H
  C17      1.0000 0.51193  0.21047  0.67577  Biso   1.000  C
  H12      1.0000 0.53153  0.18907  0.67597  Biso   1.000  H
  C18      1.0000 0.32463  0.07317  0.87677  Biso   1.000  C
  N7       1.0000 0.55590  0.55260  0.13780  Biso   1.000  N
  C19      1.0000 0.48500  0.60360  0.01040  Biso   1.000  C
  H13      1.0000 0.52600  0.62410  0.01200  Biso   1.000  H
  C20      1.0000 0.45620  0.63480  0.00910  Biso   1.000  C
  H14      1.0000 0.47760  0.67580  0.00930  Biso   1.000  H
  C21      1.0000 0.59350  0.58480  0.21010  Biso   1.000  C
  N8       1.0000 0.22257  0.88593  0.47113  Biso   1.000  N
  C22      1.0000 0.15167  0.93693  0.34373  Biso   1.000  C
  H15      1.0000 0.19267  0.95743  0.34533  Biso   1.000  H
  C23      1.0000 0.12287  0.96813  0.34243  Biso   1.000  C
  H16      1.0000 0.14427  0.00913  0.34263  Biso   1.000  H
  C24      1.0000 0.26017  0.91813  0.54343  Biso   1.000  C
  N9       1.0000 0.88923  0.21927  0.80447  Biso   1.000  N
  C25      1.0000 0.81833  0.27027  0.67707  Biso   1.000  C
  H17      1.0000 0.85933  0.29077  0.67867  Biso   1.000  H
  C26      1.0000 0.78953  0.30147  0.67577  Biso   1.000  C
  H18      1.0000 0.81093  0.34247  0.67597  Biso   1.000  H
  C27      1.0000 0.92683  0.25147  0.87677  Biso   1.000  C
  N10      1.0000 0.00330  0.44740  0.86220  Biso   1.000  N
  C28      1.0000 0.88140  0.39640  0.98960  Biso   1.000  C
  H19      1.0000 0.90190  0.37590  0.98800  Biso   1.000  H
  C29      1.0000 0.82140  0.36520  0.99090  Biso   1.000  C
  H20      1.0000 0.80180  0.32420  0.99070  Biso   1.000  H
  C30      1.0000 0.00870  0.41520  0.78990  Biso   1.000  C
  N11      1.0000 0.66997  0.78073  0.19553  Biso   1.000  N
  C31      1.0000 0.54807  0.72973  0.32293  Biso   1.000  C
  H21      1.0000 0.56857  0.70923  0.32133  Biso   1.000  H
  C32      1.0000 0.48807  0.69853  0.32423  Biso   1.000  C
  H22      1.0000 0.46847  0.65753  0.32403  Biso   1.000  H
  C33      1.0000 0.67537  0.74853  0.12323  Biso   1.000  C
  N12      1.0000 0.33663  0.11407  0.52887  Biso   1.000  N
  C34      1.0000 0.21473  0.06307  0.65627  Biso   1.000  C
  H23      1.0000 0.23523  0.04257  0.65467  Biso   1.000  H
  C35      1.0000 0.15473  0.03187  0.65757  Biso   1.000  C
  H24      1.0000 0.13513  0.99087  0.65737  Biso   1.000  H
  C36      1.0000 0.34203  0.08187  0.45657  Biso   1.000  C
  N13      1.0000 0.44410  0.99670  0.86220  Biso   1.000  N
  C37      1.0000 0.51500  0.11860  0.98960  Biso   1.000  C
  H25      1.0000 0.47400  0.09810  0.98800  Biso   1.000  H
  C38      1.0000 0.54380  0.17860  0.99090  Biso   1.000  C
  H26      1.0000 0.52240  0.19820  0.99070  Biso   1.000  H
  C39      1.0000 0.40650  0.99130  0.78990  Biso   1.000  C
  N14      1.0000 0.11077  0.33003  0.19553  Biso   1.000  N
  C40      1.0000 0.18167  0.45193  0.32293  Biso   1.000  C
  H27      1.0000 0.14067  0.43143  0.32133  Biso   1.000  H
  C41      1.0000 0.21047  0.51193  0.32423  Biso   1.000  C
  H28      1.0000 0.18907  0.53153  0.32403  Biso   1.000  H
  C42      1.0000 0.07317  0.32463  0.12323  Biso   1.000  C
  N15      1.0000 0.77743  0.66337  0.52887  Biso   1.000  N
  C43      1.0000 0.84833  0.78527  0.65627  Biso   1.000  C
  H29      1.0000 0.80733  0.76477  0.65467  Biso   1.000  H
  C44      1.0000 0.87713  0.84527  0.65757  Biso   1.000  C
  H30      1.0000 0.85573  0.86487  0.65737  Biso   1.000  H
  C45      1.0000 0.73983  0.65797  0.45657  Biso   1.000  C
  N16      1.0000 0.55260  0.55590  0.86220  Biso   1.000  N
  C46      1.0000 0.60360  0.48500  0.98960  Biso   1.000  C
  H31      1.0000 0.62410  0.52600  0.98800  Biso   1.000  H
  C47      1.0000 0.63480  0.45620  0.99090  Biso   1.000  C
  H32      1.0000 0.67580  0.47760  0.99070  Biso   1.000  H
  C48      1.0000 0.58480  0.59350  0.78990  Biso   1.000  C
  N17      1.0000 0.21927  0.88923  0.19553  Biso   1.000  N
  C49      1.0000 0.27027  0.81833  0.32293  Biso   1.000  C
  H33      1.0000 0.29077  0.85933  0.32133  Biso   1.000  H
  C50      1.0000 0.30147  0.78953  0.32423  Biso   1.000  C
  H34      1.0000 0.34247  0.81093  0.32403  Biso   1.000  H
  C51      1.0000 0.25147  0.92683  0.12323  Biso   1.000  C
  N18      1.0000 0.88593  0.22257  0.52887  Biso   1.000  N
  C52      1.0000 0.93693  0.15167  0.65627  Biso   1.000  C
  H35      1.0000 0.95743  0.19267  0.65467  Biso   1.000  H
  C53      1.0000 0.96813  0.12287  0.65757  Biso   1.000  C
  H36      1.0000 0.00913  0.14427  0.65737  Biso   1.000  H
  C54      1.0000 0.91813  0.26017  0.45657  Biso   1.000  C
  N19      1.0000 0.55260  0.99670  0.86220  Biso   1.000  N
  C55      1.0000 0.60360  0.11860  0.98960  Biso   1.000  C
  H37      1.0000 0.62410  0.09810  0.98800  Biso   1.000  H
  C56      1.0000 0.63480  0.17860  0.99090  Biso   1.000  C
  H38      1.0000 0.67580  0.19820  0.99070  Biso   1.000  H
  C57      1.0000 0.58480  0.99130  0.78990  Biso   1.000  C
  N20      1.0000 0.21927  0.33003  0.19553  Biso   1.000  N
  C58      1.0000 0.27027  0.45193  0.32293  Biso   1.000  C
  H39      1.0000 0.29077  0.43143  0.32133  Biso   1.000  H
  C59      1.0000 0.30147  0.51193  0.32423  Biso   1.000  C
  H40      1.0000 0.34247  0.53153  0.32403  Biso   1.000  H
  C60      1.0000 0.25147  0.32463  0.12323  Biso   1.000  C
  N21      1.0000 0.88593  0.66337  0.52887  Biso   1.000  N
  C61      1.0000 0.93693  0.78527  0.65627  Biso   1.000  C
  H41      1.0000 0.95743  0.76477  0.65467  Biso   1.000  H
  C62      1.0000 0.96813  0.84527  0.65757  Biso   1.000  C
  H42      1.0000 0.00913  0.86487  0.65737  Biso   1.000  H
  C63      1.0000 0.91813  0.65797  0.45657  Biso   1.000  C
  N22      1.0000 0.00330  0.55590  0.86220  Biso   1.000  N
  C64      1.0000 0.88140  0.48500  0.98960  Biso   1.000  C
  H43      1.0000 0.90190  0.52600  0.98800  Biso   1.000  H
  C65      1.0000 0.82140  0.45620  0.99090  Biso   1.000  C
  H44      1.0000 0.80180  0.47760  0.99070  Biso   1.000  H
  C66      1.0000 0.00870  0.59350  0.78990  Biso   1.000  C
  N23      1.0000 0.66997  0.88923  0.19553  Biso   1.000  N
  C67      1.0000 0.54807  0.81833  0.32293  Biso   1.000  C
  H45      1.0000 0.56857  0.85933  0.32133  Biso   1.000  H
  C68      1.0000 0.48807  0.78953  0.32423  Biso   1.000  C
  H46      1.0000 0.46847  0.81093  0.32403  Biso   1.000  H
  C69      1.0000 0.67537  0.92683  0.12323  Biso   1.000  C
  N24      1.0000 0.33663  0.22257  0.52887  Biso   1.000  N
  C70      1.0000 0.21473  0.15167  0.65627  Biso   1.000  C
  H47      1.0000 0.23523  0.19267  0.65467  Biso   1.000  H
  C71      1.0000 0.15473  0.12287  0.65757  Biso   1.000  C
  H48      1.0000 0.13513  0.14427  0.65737  Biso   1.000  H
  C72      1.0000 0.34203  0.26017  0.45657  Biso   1.000  C
  N25      1.0000 0.44410  0.44740  0.86220  Biso   1.000  N
  C73      1.0000 0.51500  0.39640  0.98960  Biso   1.000  C
  H49      1.0000 0.47400  0.37590  0.98800  Biso   1.000  H
  C74      1.0000 0.54380  0.36520  0.99090  Biso   1.000  C
  H50      1.0000 0.52240  0.32420  0.99070  Biso   1.000  H
  C75      1.0000 0.40650  0.41520  0.78990  Biso   1.000  C
  N26      1.0000 0.11077  0.78073  0.19553  Biso   1.000  N
  C76      1.0000 0.18167  0.72973  0.32293  Biso   1.000  C
  H51      1.0000 0.14067  0.70923  0.32133  Biso   1.000  H
  C77      1.0000 0.21047  0.69853  0.32423  Biso   1.000  C
  H52      1.0000 0.18907  0.65753  0.32403  Biso   1.000  H
  C78      1.0000 0.07317  0.74853  0.12323  Biso   1.000  C
  N27      1.0000 0.77743  0.11407  0.52887  Biso   1.000  N
  C79      1.0000 0.84833  0.06307  0.65627  Biso   1.000  C
  H53      1.0000 0.80733  0.04257  0.65467  Biso   1.000  H
  C80      1.0000 0.87713  0.03187  0.65757  Biso   1.000  C
  H54      1.0000 0.85573  0.99087  0.65737  Biso   1.000  H
  C81      1.0000 0.73983  0.08187  0.45657  Biso   1.000  C
  N28      1.0000 0.99670  0.55260  0.13780  Biso   1.000  N
  C82      1.0000 0.11860  0.60360  0.01040  Biso   1.000  C
  H55      1.0000 0.09810  0.62410  0.01200  Biso   1.000  H
  C83      1.0000 0.17860  0.63480  0.00910  Biso   1.000  C
  H56      1.0000 0.19820  0.67580  0.00930  Biso   1.000  H
  C84      1.0000 0.99130  0.58480  0.21010  Biso   1.000  C
  N29      1.0000 0.66337  0.88593  0.47113  Biso   1.000  N
  C85      1.0000 0.78527  0.93693  0.34373  Biso   1.000  C
  H57      1.0000 0.76477  0.95743  0.34533  Biso   1.000  H
  C86      1.0000 0.84527  0.96813  0.34243  Biso   1.000  C
  H58      1.0000 0.86487  0.00913  0.34263  Biso   1.000  H
  C87      1.0000 0.65797  0.91813  0.54343  Biso   1.000  C
  N30      1.0000 0.33003  0.21927  0.80447  Biso   1.000  N
  C88      1.0000 0.45193  0.27027  0.67707  Biso   1.000  C
  H59      1.0000 0.43143  0.29077  0.67867  Biso   1.000  H
  C89      1.0000 0.51193  0.30147  0.67577  Biso   1.000  C
  H60      1.0000 0.53153  0.34247  0.67597  Biso   1.000  H
  C90      1.0000 0.32463  0.25147  0.87677  Biso   1.000  C
  N31      1.0000 0.55590  0.00330  0.13780  Biso   1.000  N
  C91      1.0000 0.48500  0.88140  0.01040  Biso   1.000  C
  H61      1.0000 0.52600  0.90190  0.01200  Biso   1.000  H
  C92      1.0000 0.45620  0.82140  0.00910  Biso   1.000  C
  H62      1.0000 0.47760  0.80180  0.00930  Biso   1.000  H
  C93      1.0000 0.59350  0.00870  0.21010  Biso   1.000  C
  N32      1.0000 0.22257  0.33663  0.47113  Biso   1.000  N
  C94      1.0000 0.15167  0.21473  0.34373  Biso   1.000  C
  H63      1.0000 0.19267  0.23523  0.34533  Biso   1.000  H
  C95      1.0000 0.12287  0.15473  0.34243  Biso   1.000  C
  H64      1.0000 0.14427  0.13513  0.34263  Biso   1.000  H
  C96      1.0000 0.26017  0.34203  0.54343  Biso   1.000  C
  N33      1.0000 0.88923  0.66997  0.80447  Biso   1.000  N
  C97      1.0000 0.81833  0.54807  0.67707  Biso   1.000  C
  H65      1.0000 0.85933  0.56857  0.67867  Biso   1.000  H
  C98      1.0000 0.78953  0.48807  0.67577  Biso   1.000  C
  H66      1.0000 0.81093  0.46847  0.67597  Biso   1.000  H
  C99      1.0000 0.92683  0.67537  0.87677  Biso   1.000  C
  N34      1.0000 0.44740  0.44410  0.13780  Biso   1.000  N
  C100     1.0000 0.39640  0.51500  0.01040  Biso   1.000  C
  H67      1.0000 0.37590  0.47400  0.01200  Biso   1.000  H
  C101     1.0000 0.36520  0.54380  0.00910  Biso   1.000  C
  H68      1.0000 0.32420  0.52240  0.00930  Biso   1.000  H
  C102     1.0000 0.41520  0.40650  0.21010  Biso   1.000  C
  N35      1.0000 0.11407  0.77743  0.47113  Biso   1.000  N
  C103     1.0000 0.06307  0.84833  0.34373  Biso   1.000  C
  H69      1.0000 0.04257  0.80733  0.34533  Biso   1.000  H
  C104     1.0000 0.03187  0.87713  0.34243  Biso   1.000  C
  H70      1.0000 0.99087  0.85573  0.34263  Biso   1.000  H
  C105     1.0000 0.08187  0.73983  0.54343  Biso   1.000  C
  N36      1.0000 0.78073  0.11077  0.80447  Biso   1.000  N
  C106     1.0000 0.72973  0.18167  0.67707  Biso   1.000  C
  H71      1.0000 0.70923  0.14067  0.67867  Biso   1.000  H
  C107     1.0000 0.69853  0.21047  0.67577  Biso   1.000  C
  H72      1.0000 0.65753  0.18907  0.67597  Biso   1.000  H
  C108     1.0000 0.74853  0.07317  0.87677  Biso   1.000  C
  N37      1.0000 0.45630  0.91260  0.00950  Biso   1.000  N
  C109     1.0000 0.39470  0.78940  0.00730  Biso   1.000  C
  C110     1.0000 0.36210  0.72420  0.00470  Biso   1.000  C
  N38      1.0000 0.12297  0.24593  0.34283  Biso   1.000  N
  C111     1.0000 0.06137  0.12273  0.34063  Biso   1.000  C
  C112     1.0000 0.02877  0.05753  0.33803  Biso   1.000  C
  N39      1.0000 0.78963  0.57927  0.67617  Biso   1.000  N
  C113     1.0000 0.72803  0.45607  0.67397  Biso   1.000  C
  C114     1.0000 0.69543  0.39087  0.67137  Biso   1.000  C
  N40      1.0000 0.08740  0.54370  0.00950  Biso   1.000  N
  C115     1.0000 0.21060  0.60530  0.00730  Biso   1.000  C
  C116     1.0000 0.27580  0.63790  0.00470  Biso   1.000  C
  N41      1.0000 0.75407  0.87703  0.34283  Biso   1.000  N
  C117     1.0000 0.87727  0.93863  0.34063  Biso   1.000  C
  C118     1.0000 0.94247  0.97123  0.33803  Biso   1.000  C
  N42      1.0000 0.42073  0.21037  0.67617  Biso   1.000  N
  C119     1.0000 0.54393  0.27197  0.67397  Biso   1.000  C
  C120     1.0000 0.60913  0.30457  0.67137  Biso   1.000  C
  N43      1.0000 0.45630  0.54370  0.00950  Biso   1.000  N
  C121     1.0000 0.39470  0.60530  0.00730  Biso   1.000  C
  C122     1.0000 0.36210  0.63790  0.00470  Biso   1.000  C
  N44      1.0000 0.12297  0.87703  0.34283  Biso   1.000  N
  C123     1.0000 0.06137  0.93863  0.34063  Biso   1.000  C
  C124     1.0000 0.02877  0.97123  0.33803  Biso   1.000  C
  N45      1.0000 0.78963  0.21037  0.67617  Biso   1.000  N
  C125     1.0000 0.72803  0.27197  0.67397  Biso   1.000  C
  C126     1.0000 0.69543  0.30457  0.67137  Biso   1.000  C
  N46      1.0000 0.91260  0.45630  0.99050  Biso   1.000  N
  C127     1.0000 0.78940  0.39470  0.99270  Biso   1.000  C
  C128     1.0000 0.72420  0.36210  0.99530  Biso   1.000  C
  N47      1.0000 0.57927  0.78963  0.32383  Biso   1.000  N
  C129     1.0000 0.45607  0.72803  0.32603  Biso   1.000  C
  C130     1.0000 0.39087  0.69543  0.32863  Biso   1.000  C
  N48      1.0000 0.24593  0.12297  0.65717  Biso   1.000  N
  C131     1.0000 0.12273  0.06137  0.65937  Biso   1.000  C
  C132     1.0000 0.05753  0.02877  0.66197  Biso   1.000  C
  N49      1.0000 0.54370  0.08740  0.99050  Biso   1.000  N
  C133     1.0000 0.60530  0.21060  0.99270  Biso   1.000  C
  C134     1.0000 0.63790  0.27580  0.99530  Biso   1.000  C
  N50      1.0000 0.21037  0.42073  0.32383  Biso   1.000  N
  C135     1.0000 0.27197  0.54393  0.32603  Biso   1.000  C
  C136     1.0000 0.30457  0.60913  0.32863  Biso   1.000  C
  N51      1.0000 0.87703  0.75407  0.65717  Biso   1.000  N
  C137     1.0000 0.93863  0.87727  0.65937  Biso   1.000  C
  C138     1.0000 0.97123  0.94247  0.66197  Biso   1.000  C
  N52      1.0000 0.54370  0.45630  0.99050  Biso   1.000  N
  C139     1.0000 0.60530  0.39470  0.99270  Biso   1.000  C
  C140     1.0000 0.63790  0.36210  0.99530  Biso   1.000  C
  N53      1.0000 0.21037  0.78963  0.32383  Biso   1.000  N
  C141     1.0000 0.27197  0.72803  0.32603  Biso   1.000  C
  C142     1.0000 0.30457  0.69543  0.32863  Biso   1.000  C
  N54      1.0000 0.87703  0.12297  0.65717  Biso   1.000  N
  C143     1.0000 0.93863  0.06137  0.65937  Biso   1.000  C
  C144     1.0000 0.97123  0.02877  0.66197  Biso   1.000  C
  Ag1      1.0000 0.36940  0.03606  0.33333  Biso   1.000  Ag
  Ag2      1.0000 0.96394  0.33333  0.33333  Biso   1.000  Ag
  Ag3      1.0000 0.66667  0.63060  0.33333  Biso   1.000  Ag
  Ag4      1.0000 0.03606  0.36940  0.66667  Biso   1.000  Ag
  Ag5      1.0000 0.70273  0.70273  0.00000  Biso   1.000  Ag
  Ag6      1.0000 0.33333  0.96394  0.66667  Biso   1.000  Ag
  Ag7      1.0000 0.00000  0.29727  0.00000  Biso   1.000  Ag
  Ag8      1.0000 0.63060  0.66667  0.66667  Biso   1.000  Ag
  Ag9      1.0000 0.29727  0.00000  0.00000  Biso   1.000  Ag
  Ag10     1.0000 0.63060  0.96394  0.66667  Biso   1.000  Ag
  Ag11     1.0000 0.29727  0.29727  0.00000  Biso   1.000  Ag
  Ag12     1.0000 0.03606  0.66667  0.66667  Biso   1.000  Ag
  Ag13     1.0000 0.70273  0.00000  0.00000  Biso   1.000  Ag
  Ag14     1.0000 0.36940  0.33333  0.33333  Biso   1.000  Ag
  Ag15     1.0000 0.33333  0.36940  0.66667  Biso   1.000  Ag
  Ag16     1.0000 0.00000  0.70273  0.00000  Biso   1.000  Ag
  Ag17     1.0000 0.96394  0.63060  0.33333  Biso   1.000  Ag
  Ag18     1.0000 0.66667  0.03606  0.33333  Biso   1.000  Ag
  Fe1      1.0000 0.50000  0.00000  0.00000  Biso   1.000  Fe
  Fe2      1.0000 0.16667  0.33333  0.33333  Biso   1.000  Fe
  Fe3      1.0000 0.83333  0.66667  0.66667  Biso   1.000  Fe
  Fe4      1.0000 0.00000  0.50000  0.00000  Biso   1.000  Fe
  Fe5      1.0000 0.66667  0.83333  0.33333  Biso   1.000  Fe
  Fe6      1.0000 0.33333  0.16667  0.66667  Biso   1.000  Fe
  Fe7      1.0000 0.50000  0.50000  0.00000  Biso   1.000  Fe
  Fe8      1.0000 0.16667  0.83333  0.33333  Biso   1.000  Fe
  Fe9      1.0000 0.83333  0.16667  0.66667  Biso   1.000  Fe
  N55      1.0000 0.39370  0.69685  0.00560  Biso   1.000  N
  N56      1.0000 0.06037  0.03018  0.33893  Biso   1.000  N
  N57      1.0000 0.72703  0.36352  0.67227  Biso   1.000  N
  N58      1.0000 0.30315  0.69685  0.00560  Biso   1.000  N
  N59      1.0000 0.96982  0.03018  0.33893  Biso   1.000  N
  N60      1.0000 0.63648  0.36352  0.67227  Biso   1.000  N
  N61      1.0000 0.30315  0.60630  0.00560  Biso   1.000  N
  N62      1.0000 0.96982  0.93963  0.33893  Biso   1.000  N
  N63      1.0000 0.63648  0.27297  0.67227  Biso   1.000  N
  N64      1.0000 0.69685  0.39370  0.99440  Biso   1.000  N
  N65      1.0000 0.36352  0.72703  0.32773  Biso   1.000  N
  N66      1.0000 0.03018  0.06037  0.66107  Biso   1.000  N
  N67      1.0000 0.69685  0.30315  0.99440  Biso   1.000  N
  N68      1.0000 0.36352  0.63648  0.32773  Biso   1.000  N
  N69      1.0000 0.03018  0.96982  0.66107  Biso   1.000  N
  N70      1.0000 0.60630  0.30315  0.99440  Biso   1.000  N
  N71      1.0000 0.27297  0.63648  0.32773  Biso   1.000  N
  N72      1.0000 0.93963  0.96982  0.66107  Biso   1.000  N
