data_image0
_cell_length_a       26.8913
_cell_length_b       26.8913
_cell_length_c       10.0069
_cell_angle_alpha    90
_cell_angle_beta     90
_cell_angle_gamma    120

_symmetry_space_group_name_H-M    "P 1"
_symmetry_int_tables_number       1

loop_
  _symmetry_equiv_pos_as_xyz
  'x, y, z'

loop_
  _atom_site_label
  _atom_site_occupancy
  _atom_site_fract_x
  _atom_site_fract_y
  _atom_site_fract_z
  _atom_site_thermal_displace_type
  _atom_site_B_iso_or_equiv
  _atom_site_type_symbol
  N1       1.0000 0.44160  0.99990  0.14680  Biso   1.000  N
  C1       1.0000 0.47990  0.87570  0.00390  Biso   1.000  C
  H1       1.0000 0.51980  0.89570  0.00450  Biso   1.000  H
  C2       1.0000 0.45200  0.81660  0.00350  Biso   1.000  C
  H2       1.0000 0.47290  0.79760  0.00400  Biso   1.000  H
  C3       1.0000 0.41180  0.00810  0.21240  Biso   1.000  C
  N2       1.0000 0.10827  0.33323  0.48013  Biso   1.000  N
  C4       1.0000 0.14657  0.20903  0.33723  Biso   1.000  C
  H3       1.0000 0.18647  0.22903  0.33783  Biso   1.000  H
  C5       1.0000 0.11867  0.14993  0.33683  Biso   1.000  C
  H4       1.0000 0.13957  0.13093  0.33733  Biso   1.000  H
  C6       1.0000 0.07847  0.34143  0.54573  Biso   1.000  C
  N3       1.0000 0.77493  0.66657  0.81347  Biso   1.000  N
  C7       1.0000 0.81323  0.54237  0.67057  Biso   1.000  C
  H5       1.0000 0.85313  0.56237  0.67117  Biso   1.000  H
  C8       1.0000 0.78533  0.48327  0.67017  Biso   1.000  C
  H6       1.0000 0.80623  0.46427  0.67067  Biso   1.000  H
  C9       1.0000 0.74513  0.67477  0.87907  Biso   1.000  C
  N4       1.0000 0.00010  0.44170  0.14680  Biso   1.000  N
  C10      1.0000 0.12430  0.60420  0.00390  Biso   1.000  C
  H7       1.0000 0.10430  0.62410  0.00450  Biso   1.000  H
  C11      1.0000 0.18340  0.63540  0.00350  Biso   1.000  C
  H8       1.0000 0.20240  0.67530  0.00400  Biso   1.000  H
  C12      1.0000 0.99190  0.40370  0.21240  Biso   1.000  C
  N5       1.0000 0.66677  0.77503  0.48013  Biso   1.000  N
  C13      1.0000 0.79097  0.93753  0.33723  Biso   1.000  C
  H9       1.0000 0.77097  0.95743  0.33783  Biso   1.000  H
  C14      1.0000 0.85007  0.96873  0.33683  Biso   1.000  C
  H10      1.0000 0.86907  0.00863  0.33733  Biso   1.000  H
  C15      1.0000 0.65857  0.73703  0.54573  Biso   1.000  C
  N6       1.0000 0.33343  0.10837  0.81347  Biso   1.000  N
  C16      1.0000 0.45763  0.27087  0.67057  Biso   1.000  C
  H11      1.0000 0.43763  0.29077  0.67117  Biso   1.000  H
  C17      1.0000 0.51673  0.30207  0.67017  Biso   1.000  C
  H12      1.0000 0.53573  0.34197  0.67067  Biso   1.000  H
  C18      1.0000 0.32523  0.07037  0.87907  Biso   1.000  C
  N7       1.0000 0.55830  0.55840  0.14680  Biso   1.000  N
  C19      1.0000 0.39580  0.52010  0.00390  Biso   1.000  C
  H13      1.0000 0.37590  0.48020  0.00450  Biso   1.000  H
  C20      1.0000 0.36460  0.54800  0.00350  Biso   1.000  C
  H14      1.0000 0.32470  0.52710  0.00400  Biso   1.000  H
  C21      1.0000 0.59630  0.58820  0.21240  Biso   1.000  C
  N8       1.0000 0.22497  0.89173  0.48013  Biso   1.000  N
  C22      1.0000 0.06247  0.85343  0.33723  Biso   1.000  C
  H15      1.0000 0.04257  0.81353  0.33783  Biso   1.000  H
  C23      1.0000 0.03127  0.88133  0.33683  Biso   1.000  C
  H16      1.0000 0.99137  0.86043  0.33733  Biso   1.000  H
  C24      1.0000 0.26297  0.92153  0.54573  Biso   1.000  C
  N9       1.0000 0.89163  0.22507  0.81347  Biso   1.000  N
  C25      1.0000 0.72913  0.18677  0.67057  Biso   1.000  C
  H17      1.0000 0.70923  0.14687  0.67117  Biso   1.000  H
  C26      1.0000 0.69793  0.21467  0.67017  Biso   1.000  C
  H18      1.0000 0.65803  0.19377  0.67067  Biso   1.000  H
  C27      1.0000 0.92963  0.25487  0.87907  Biso   1.000  C
  N10      1.0000 0.99990  0.44160  0.85320  Biso   1.000  N
  C28      1.0000 0.87570  0.47990  0.99610  Biso   1.000  C
  H19      1.0000 0.89570  0.51980  0.99550  Biso   1.000  H
  C29      1.0000 0.81660  0.45200  0.99650  Biso   1.000  C
  H20      1.0000 0.79760  0.47290  0.99600  Biso   1.000  H
  C30      1.0000 0.00810  0.41180  0.78760  Biso   1.000  C
  N11      1.0000 0.66657  0.77493  0.18653  Biso   1.000  N
  C31      1.0000 0.54237  0.81323  0.32943  Biso   1.000  C
  H21      1.0000 0.56237  0.85313  0.32883  Biso   1.000  H
  C32      1.0000 0.48327  0.78533  0.32983  Biso   1.000  C
  H22      1.0000 0.46427  0.80623  0.32933  Biso   1.000  H
  C33      1.0000 0.67477  0.74513  0.12093  Biso   1.000  C
  N12      1.0000 0.33323  0.10827  0.51987  Biso   1.000  N
  C34      1.0000 0.20903  0.14657  0.66277  Biso   1.000  C
  H23      1.0000 0.22903  0.18647  0.66217  Biso   1.000  H
  C35      1.0000 0.14993  0.11867  0.66317  Biso   1.000  C
  H24      1.0000 0.13093  0.13957  0.66267  Biso   1.000  H
  C36      1.0000 0.34143  0.07847  0.45427  Biso   1.000  C
  N13      1.0000 0.44170  0.00010  0.85320  Biso   1.000  N
  C37      1.0000 0.60420  0.12430  0.99610  Biso   1.000  C
  H25      1.0000 0.62410  0.10430  0.99550  Biso   1.000  H
  C38      1.0000 0.63540  0.18340  0.99650  Biso   1.000  C
  H26      1.0000 0.67530  0.20240  0.99600  Biso   1.000  H
  C39      1.0000 0.40370  0.99190  0.78760  Biso   1.000  C
  N14      1.0000 0.10837  0.33343  0.18653  Biso   1.000  N
  C40      1.0000 0.27087  0.45763  0.32943  Biso   1.000  C
  H27      1.0000 0.29077  0.43763  0.32883  Biso   1.000  H
  C41      1.0000 0.30207  0.51673  0.32983  Biso   1.000  C
  H28      1.0000 0.34197  0.53573  0.32933  Biso   1.000  H
  C42      1.0000 0.07037  0.32523  0.12093  Biso   1.000  C
  N15      1.0000 0.77503  0.66677  0.51987  Biso   1.000  N
  C43      1.0000 0.93753  0.79097  0.66277  Biso   1.000  C
  H29      1.0000 0.95743  0.77097  0.66217  Biso   1.000  H
  C44      1.0000 0.96873  0.85007  0.66317  Biso   1.000  C
  H30      1.0000 0.00863  0.86907  0.66267  Biso   1.000  H
  C45      1.0000 0.73703  0.65857  0.45427  Biso   1.000  C
  N16      1.0000 0.55840  0.55830  0.85320  Biso   1.000  N
  C46      1.0000 0.52010  0.39580  0.99610  Biso   1.000  C
  H31      1.0000 0.48020  0.37590  0.99550  Biso   1.000  H
  C47      1.0000 0.54800  0.36460  0.99650  Biso   1.000  C
  H32      1.0000 0.52710  0.32470  0.99600  Biso   1.000  H
  C48      1.0000 0.58820  0.59630  0.78760  Biso   1.000  C
  N17      1.0000 0.22507  0.89163  0.18653  Biso   1.000  N
  C49      1.0000 0.18677  0.72913  0.32943  Biso   1.000  C
  H33      1.0000 0.14687  0.70923  0.32883  Biso   1.000  H
  C50      1.0000 0.21467  0.69793  0.32983  Biso   1.000  C
  H34      1.0000 0.19377  0.65803  0.32933  Biso   1.000  H
  C51      1.0000 0.25487  0.92963  0.12093  Biso   1.000  C
  N18      1.0000 0.89173  0.22497  0.51987  Biso   1.000  N
  C52      1.0000 0.85343  0.06247  0.66277  Biso   1.000  C
  H35      1.0000 0.81353  0.04257  0.66217  Biso   1.000  H
  C53      1.0000 0.88133  0.03127  0.66317  Biso   1.000  C
  H36      1.0000 0.86043  0.99137  0.66267  Biso   1.000  H
  C54      1.0000 0.92153  0.26297  0.45427  Biso   1.000  C
  N19      1.0000 0.55840  0.00010  0.85320  Biso   1.000  N
  C55      1.0000 0.52010  0.12430  0.99610  Biso   1.000  C
  H37      1.0000 0.48020  0.10430  0.99550  Biso   1.000  H
  C56      1.0000 0.54800  0.18340  0.99650  Biso   1.000  C
  H38      1.0000 0.52710  0.20240  0.99600  Biso   1.000  H
  C57      1.0000 0.58820  0.99190  0.78760  Biso   1.000  C
  N20      1.0000 0.22507  0.33343  0.18653  Biso   1.000  N
  C58      1.0000 0.18677  0.45763  0.32943  Biso   1.000  C
  H39      1.0000 0.14687  0.43763  0.32883  Biso   1.000  H
  C59      1.0000 0.21467  0.51673  0.32983  Biso   1.000  C
  H40      1.0000 0.19377  0.53573  0.32933  Biso   1.000  H
  C60      1.0000 0.25487  0.32523  0.12093  Biso   1.000  C
  N21      1.0000 0.89173  0.66677  0.51987  Biso   1.000  N
  C61      1.0000 0.85343  0.79097  0.66277  Biso   1.000  C
  H41      1.0000 0.81353  0.77097  0.66217  Biso   1.000  H
  C62      1.0000 0.88133  0.85007  0.66317  Biso   1.000  C
  H42      1.0000 0.86043  0.86907  0.66267  Biso   1.000  H
  C63      1.0000 0.92153  0.65857  0.45427  Biso   1.000  C
  N22      1.0000 0.99990  0.55830  0.85320  Biso   1.000  N
  C64      1.0000 0.87570  0.39580  0.99610  Biso   1.000  C
  H43      1.0000 0.89570  0.37590  0.99550  Biso   1.000  H
  C65      1.0000 0.81660  0.36460  0.99650  Biso   1.000  C
  H44      1.0000 0.79760  0.32470  0.99600  Biso   1.000  H
  C66      1.0000 0.00810  0.59630  0.78760  Biso   1.000  C
  N23      1.0000 0.66657  0.89163  0.18653  Biso   1.000  N
  C67      1.0000 0.54237  0.72913  0.32943  Biso   1.000  C
  H45      1.0000 0.56237  0.70923  0.32883  Biso   1.000  H
  C68      1.0000 0.48327  0.69793  0.32983  Biso   1.000  C
  H46      1.0000 0.46427  0.65803  0.32933  Biso   1.000  H
  C69      1.0000 0.67477  0.92963  0.12093  Biso   1.000  C
  N24      1.0000 0.33323  0.22497  0.51987  Biso   1.000  N
  C70      1.0000 0.20903  0.06247  0.66277  Biso   1.000  C
  H47      1.0000 0.22903  0.04257  0.66217  Biso   1.000  H
  C71      1.0000 0.14993  0.03127  0.66317  Biso   1.000  C
  H48      1.0000 0.13093  0.99137  0.66267  Biso   1.000  H
  C72      1.0000 0.34143  0.26297  0.45427  Biso   1.000  C
  N25      1.0000 0.44170  0.44160  0.85320  Biso   1.000  N
  C73      1.0000 0.60420  0.47990  0.99610  Biso   1.000  C
  H49      1.0000 0.62410  0.51980  0.99550  Biso   1.000  H
  C74      1.0000 0.63540  0.45200  0.99650  Biso   1.000  C
  H50      1.0000 0.67530  0.47290  0.99600  Biso   1.000  H
  C75      1.0000 0.40370  0.41180  0.78760  Biso   1.000  C
  N26      1.0000 0.10837  0.77493  0.18653  Biso   1.000  N
  C76      1.0000 0.27087  0.81323  0.32943  Biso   1.000  C
  H51      1.0000 0.29077  0.85313  0.32883  Biso   1.000  H
  C77      1.0000 0.30207  0.78533  0.32983  Biso   1.000  C
  H52      1.0000 0.34197  0.80623  0.32933  Biso   1.000  H
  C78      1.0000 0.07037  0.74513  0.12093  Biso   1.000  C
  N27      1.0000 0.77503  0.10827  0.51987  Biso   1.000  N
  C79      1.0000 0.93753  0.14657  0.66277  Biso   1.000  C
  H53      1.0000 0.95743  0.18647  0.66217  Biso   1.000  H
  C80      1.0000 0.96873  0.11867  0.66317  Biso   1.000  C
  H54      1.0000 0.00863  0.13957  0.66267  Biso   1.000  H
  C81      1.0000 0.73703  0.07847  0.45427  Biso   1.000  C
  N28      1.0000 0.00010  0.55840  0.14680  Biso   1.000  N
  C82      1.0000 0.12430  0.52010  0.00390  Biso   1.000  C
  H55      1.0000 0.10430  0.48020  0.00450  Biso   1.000  H
  C83      1.0000 0.18340  0.54800  0.00350  Biso   1.000  C
  H56      1.0000 0.20240  0.52710  0.00400  Biso   1.000  H
  C84      1.0000 0.99190  0.58820  0.21240  Biso   1.000  C
  N29      1.0000 0.66677  0.89173  0.48013  Biso   1.000  N
  C85      1.0000 0.79097  0.85343  0.33723  Biso   1.000  C
  H57      1.0000 0.77097  0.81353  0.33783  Biso   1.000  H
  C86      1.0000 0.85007  0.88133  0.33683  Biso   1.000  C
  H58      1.0000 0.86907  0.86043  0.33733  Biso   1.000  H
  C87      1.0000 0.65857  0.92153  0.54573  Biso   1.000  C
  N30      1.0000 0.33343  0.22507  0.81347  Biso   1.000  N
  C88      1.0000 0.45763  0.18677  0.67057  Biso   1.000  C
  H59      1.0000 0.43763  0.14687  0.67117  Biso   1.000  H
  C89      1.0000 0.51673  0.21467  0.67017  Biso   1.000  C
  H60      1.0000 0.53573  0.19377  0.67067  Biso   1.000  H
  C90      1.0000 0.32523  0.25487  0.87907  Biso   1.000  C
  N31      1.0000 0.55830  0.99990  0.14680  Biso   1.000  N
  C91      1.0000 0.39580  0.87570  0.00390  Biso   1.000  C
  H61      1.0000 0.37590  0.89570  0.00450  Biso   1.000  H
  C92      1.0000 0.36460  0.81660  0.00350  Biso   1.000  C
  H62      1.0000 0.32470  0.79760  0.00400  Biso   1.000  H
  C93      1.0000 0.59630  0.00810  0.21240  Biso   1.000  C
  N32      1.0000 0.22497  0.33323  0.48013  Biso   1.000  N
  C94      1.0000 0.06247  0.20903  0.33723  Biso   1.000  C
  H63      1.0000 0.04257  0.22903  0.33783  Biso   1.000  H
  C95      1.0000 0.03127  0.14993  0.33683  Biso   1.000  C
  H64      1.0000 0.99137  0.13093  0.33733  Biso   1.000  H
  C96      1.0000 0.26297  0.34143  0.54573  Biso   1.000  C
  N33      1.0000 0.89163  0.66657  0.81347  Biso   1.000  N
  C97      1.0000 0.72913  0.54237  0.67057  Biso   1.000  C
  H65      1.0000 0.70923  0.56237  0.67117  Biso   1.000  H
  C98      1.0000 0.69793  0.48327  0.67017  Biso   1.000  C
  H66      1.0000 0.65803  0.46427  0.67067  Biso   1.000  H
  C99      1.0000 0.92963  0.67477  0.87907  Biso   1.000  C
  N34      1.0000 0.44160  0.44170  0.14680  Biso   1.000  N
  C100     1.0000 0.47990  0.60420  0.00390  Biso   1.000  C
  H67      1.0000 0.51980  0.62410  0.00450  Biso   1.000  H
  C101     1.0000 0.45200  0.63540  0.00350  Biso   1.000  C
  H68      1.0000 0.47290  0.67530  0.00400  Biso   1.000  H
  C102     1.0000 0.41180  0.40370  0.21240  Biso   1.000  C
  N35      1.0000 0.10827  0.77503  0.48013  Biso   1.000  N
  C103     1.0000 0.14657  0.93753  0.33723  Biso   1.000  C
  H69      1.0000 0.18647  0.95743  0.33783  Biso   1.000  H
  C104     1.0000 0.11867  0.96873  0.33683  Biso   1.000  C
  H70      1.0000 0.13957  0.00863  0.33733  Biso   1.000  H
  C105     1.0000 0.07847  0.73703  0.54573  Biso   1.000  C
  N36      1.0000 0.77493  0.10837  0.81347  Biso   1.000  N
  C106     1.0000 0.81323  0.27087  0.67057  Biso   1.000  C
  H71      1.0000 0.85313  0.29077  0.67117  Biso   1.000  H
  C107     1.0000 0.78533  0.30207  0.67017  Biso   1.000  C
  H72      1.0000 0.80623  0.34197  0.67067  Biso   1.000  H
  C108     1.0000 0.74513  0.07037  0.87907  Biso   1.000  C
  Ag1      1.0000 0.36885  0.03552  0.33333  Biso   1.000  Ag
  Ag2      1.0000 0.96448  0.33333  0.33333  Biso   1.000  Ag
  Ag3      1.0000 0.66667  0.63115  0.33333  Biso   1.000  Ag
  Ag4      1.0000 0.03552  0.36885  0.66667  Biso   1.000  Ag
  Ag5      1.0000 0.70218  0.70218  0.00000  Biso   1.000  Ag
  Ag6      1.0000 0.33333  0.96448  0.66667  Biso   1.000  Ag
  Ag7      1.0000 0.00000  0.29782  0.00000  Biso   1.000  Ag
  Ag8      1.0000 0.63115  0.66667  0.66667  Biso   1.000  Ag
  Ag9      1.0000 0.29782  0.00000  0.00000  Biso   1.000  Ag
  Ag10     1.0000 0.63115  0.96448  0.66667  Biso   1.000  Ag
  Ag11     1.0000 0.29782  0.29782  0.00000  Biso   1.000  Ag
  Ag12     1.0000 0.03552  0.66667  0.66667  Biso   1.000  Ag
  Ag13     1.0000 0.70218  0.00000  0.00000  Biso   1.000  Ag
  Ag14     1.0000 0.36885  0.33333  0.33333  Biso   1.000  Ag
  Ag15     1.0000 0.33333  0.36885  0.66667  Biso   1.000  Ag
  Ag16     1.0000 0.00000  0.70218  0.00000  Biso   1.000  Ag
  Ag17     1.0000 0.96448  0.63115  0.33333  Biso   1.000  Ag
  Ag18     1.0000 0.66667  0.03552  0.33333  Biso   1.000  Ag
  Fe1      1.0000 0.50000  0.00000  0.00000  Biso   1.000  Fe
  Fe2      1.0000 0.16667  0.33333  0.33333  Biso   1.000  Fe
  Fe3      1.0000 0.83333  0.66667  0.66667  Biso   1.000  Fe
  Fe4      1.0000 0.00000  0.50000  0.00000  Biso   1.000  Fe
  Fe5      1.0000 0.66667  0.83333  0.33333  Biso   1.000  Fe
  Fe6      1.0000 0.33333  0.16667  0.66667  Biso   1.000  Fe
  Fe7      1.0000 0.50000  0.50000  0.00000  Biso   1.000  Fe
  Fe8      1.0000 0.16667  0.83333  0.33333  Biso   1.000  Fe
  Fe9      1.0000 0.83333  0.16667  0.66667  Biso   1.000  Fe
  N37      1.0000 0.45275  0.90550  0.00360  Biso   1.000  N
  C109     1.0000 0.39295  0.78590  0.00220  Biso   1.000  C
  C110     1.0000 0.36135  0.72270  0.00170  Biso   1.000  C
  N38      1.0000 0.11942  0.23883  0.33693  Biso   1.000  N
  C111     1.0000 0.05962  0.11923  0.33553  Biso   1.000  C
  C112     1.0000 0.02802  0.05603  0.33503  Biso   1.000  C
  N39      1.0000 0.78608  0.57217  0.67027  Biso   1.000  N
  C113     1.0000 0.72628  0.45257  0.66887  Biso   1.000  C
  C114     1.0000 0.69468  0.38937  0.66837  Biso   1.000  C
  N40      1.0000 0.09450  0.54725  0.00360  Biso   1.000  N
  C115     1.0000 0.21410  0.60705  0.00220  Biso   1.000  C
  C116     1.0000 0.27730  0.63865  0.00170  Biso   1.000  C
  N41      1.0000 0.76117  0.88058  0.33693  Biso   1.000  N
  C117     1.0000 0.88077  0.94038  0.33553  Biso   1.000  C
  C118     1.0000 0.94397  0.97198  0.33503  Biso   1.000  C
  N42      1.0000 0.42783  0.21392  0.67027  Biso   1.000  N
  C119     1.0000 0.54743  0.27372  0.66887  Biso   1.000  C
  C120     1.0000 0.61063  0.30532  0.66837  Biso   1.000  C
  N43      1.0000 0.45275  0.54725  0.00360  Biso   1.000  N
  C121     1.0000 0.39295  0.60705  0.00220  Biso   1.000  C
  C122     1.0000 0.36135  0.63865  0.00170  Biso   1.000  C
  N44      1.0000 0.11942  0.88058  0.33693  Biso   1.000  N
  C123     1.0000 0.05962  0.94038  0.33553  Biso   1.000  C
  C124     1.0000 0.02802  0.97198  0.33503  Biso   1.000  C
  N45      1.0000 0.78608  0.21392  0.67027  Biso   1.000  N
  C125     1.0000 0.72628  0.27372  0.66887  Biso   1.000  C
  C126     1.0000 0.69468  0.30532  0.66837  Biso   1.000  C
  N46      1.0000 0.90550  0.45275  0.99640  Biso   1.000  N
  C127     1.0000 0.78590  0.39295  0.99780  Biso   1.000  C
  C128     1.0000 0.72270  0.36135  0.99830  Biso   1.000  C
  N47      1.0000 0.57217  0.78608  0.32973  Biso   1.000  N
  C129     1.0000 0.45257  0.72628  0.33113  Biso   1.000  C
  C130     1.0000 0.38937  0.69468  0.33163  Biso   1.000  C
  N48      1.0000 0.23883  0.11942  0.66307  Biso   1.000  N
  C131     1.0000 0.11923  0.05962  0.66447  Biso   1.000  C
  C132     1.0000 0.05603  0.02802  0.66497  Biso   1.000  C
  N49      1.0000 0.54725  0.09450  0.99640  Biso   1.000  N
  C133     1.0000 0.60705  0.21410  0.99780  Biso   1.000  C
  C134     1.0000 0.63865  0.27730  0.99830  Biso   1.000  C
  N50      1.0000 0.21392  0.42783  0.32973  Biso   1.000  N
  C135     1.0000 0.27372  0.54743  0.33113  Biso   1.000  C
  C136     1.0000 0.30532  0.61063  0.33163  Biso   1.000  C
  N51      1.0000 0.88058  0.76117  0.66307  Biso   1.000  N
  C137     1.0000 0.94038  0.88077  0.66447  Biso   1.000  C
  C138     1.0000 0.97198  0.94397  0.66497  Biso   1.000  C
  N52      1.0000 0.54725  0.45275  0.99640  Biso   1.000  N
  C139     1.0000 0.60705  0.39295  0.99780  Biso   1.000  C
  C140     1.0000 0.63865  0.36135  0.99830  Biso   1.000  C
  N53      1.0000 0.21392  0.78608  0.32973  Biso   1.000  N
  C141     1.0000 0.27372  0.72628  0.33113  Biso   1.000  C
  C142     1.0000 0.30532  0.69468  0.33163  Biso   1.000  C
  N54      1.0000 0.88058  0.11942  0.66307  Biso   1.000  N
  C143     1.0000 0.94038  0.05962  0.66447  Biso   1.000  C
  C144     1.0000 0.97198  0.02802  0.66497  Biso   1.000  C
  N55      1.0000 0.30397  0.69603  0.00260  Biso   1.000  N
  N56      1.0000 0.97064  0.02936  0.33593  Biso   1.000  N
  N57      1.0000 0.63730  0.36270  0.66927  Biso   1.000  N
  N58      1.0000 0.30397  0.60794  0.00260  Biso   1.000  N
  N59      1.0000 0.97064  0.94127  0.33593  Biso   1.000  N
  N60      1.0000 0.63730  0.27461  0.66927  Biso   1.000  N
  N61      1.0000 0.39206  0.69603  0.00260  Biso   1.000  N
  N62      1.0000 0.05873  0.02936  0.33593  Biso   1.000  N
  N63      1.0000 0.72539  0.36270  0.66927  Biso   1.000  N
  N64      1.0000 0.69603  0.30397  0.99740  Biso   1.000  N
  N65      1.0000 0.36270  0.63730  0.33073  Biso   1.000  N
  N66      1.0000 0.02936  0.97064  0.66407  Biso   1.000  N
  N67      1.0000 0.60794  0.30397  0.99740  Biso   1.000  N
  N68      1.0000 0.27461  0.63730  0.33073  Biso   1.000  N
  N69      1.0000 0.94127  0.97064  0.66407  Biso   1.000  N
  N70      1.0000 0.69603  0.39206  0.99740  Biso   1.000  N
  N71      1.0000 0.36270  0.72539  0.33073  Biso   1.000  N
  N72      1.0000 0.02936  0.05873  0.66407  Biso   1.000  N
