data_image0
_cell_length_a       26.901
_cell_length_b       26.901
_cell_length_c       9.7742
_cell_angle_alpha    90
_cell_angle_beta     90
_cell_angle_gamma    120

_symmetry_space_group_name_H-M    "P 1"
_symmetry_int_tables_number       1

loop_
  _symmetry_equiv_pos_as_xyz
  'x, y, z'

loop_
  _atom_site_label
  _atom_site_occupancy
  _atom_site_fract_x
  _atom_site_fract_y
  _atom_site_fract_z
  _atom_site_thermal_displace_type
  _atom_site_B_iso_or_equiv
  _atom_site_type_symbol
  N1       1.0000 0.55800  0.99920  0.15210  Biso   1.000  N
  C1       1.0000 0.60440  0.12400  0.99980  Biso   1.000  C
  H1       1.0000 0.62420  0.10390  0.99970  Biso   1.000  H
  C2       1.0000 0.63560  0.18350  0.99970  Biso   1.000  C
  H2       1.0000 0.67550  0.20270  0.99970  Biso   1.000  H
  C3       1.0000 0.59710  0.01030  0.21780  Biso   1.000  C
  N2       1.0000 0.22467  0.33253  0.48543  Biso   1.000  N
  C4       1.0000 0.27107  0.45733  0.33313  Biso   1.000  C
  H3       1.0000 0.29087  0.43723  0.33303  Biso   1.000  H
  C5       1.0000 0.30227  0.51683  0.33303  Biso   1.000  C
  H4       1.0000 0.34217  0.53603  0.33303  Biso   1.000  H
  C6       1.0000 0.26377  0.34363  0.55113  Biso   1.000  C
  N3       1.0000 0.89133  0.66587  0.81877  Biso   1.000  N
  C7       1.0000 0.93773  0.79067  0.66647  Biso   1.000  C
  H5       1.0000 0.95753  0.77057  0.66637  Biso   1.000  H
  C8       1.0000 0.96893  0.85017  0.66637  Biso   1.000  C
  H6       1.0000 0.00883  0.86937  0.66637  Biso   1.000  H
  C9       1.0000 0.93043  0.67697  0.88447  Biso   1.000  C
  N4       1.0000 0.00080  0.55880  0.15210  Biso   1.000  N
  C10      1.0000 0.87600  0.48040  0.99980  Biso   1.000  C
  H7       1.0000 0.89610  0.52030  0.99970  Biso   1.000  H
  C11      1.0000 0.81650  0.45210  0.99970  Biso   1.000  C
  H8       1.0000 0.79730  0.47280  0.99970  Biso   1.000  H
  C12      1.0000 0.98970  0.58680  0.21780  Biso   1.000  C
  N5       1.0000 0.66747  0.89213  0.48543  Biso   1.000  N
  C13      1.0000 0.54267  0.81373  0.33313  Biso   1.000  C
  H9       1.0000 0.56277  0.85363  0.33303  Biso   1.000  H
  C14      1.0000 0.48317  0.78543  0.33303  Biso   1.000  C
  H10      1.0000 0.46397  0.80613  0.33303  Biso   1.000  H
  C15      1.0000 0.65637  0.92013  0.55113  Biso   1.000  C
  N6       1.0000 0.33413  0.22547  0.81877  Biso   1.000  N
  C16      1.0000 0.20933  0.14707  0.66647  Biso   1.000  C
  H11      1.0000 0.22943  0.18697  0.66637  Biso   1.000  H
  C17      1.0000 0.14983  0.11877  0.66637  Biso   1.000  C
  H12      1.0000 0.13063  0.13947  0.66637  Biso   1.000  H
  C18      1.0000 0.32303  0.25347  0.88447  Biso   1.000  C
  N7       1.0000 0.44120  0.44200  0.15210  Biso   1.000  N
  C19      1.0000 0.51960  0.39560  0.99980  Biso   1.000  C
  H13      1.0000 0.47970  0.37580  0.99970  Biso   1.000  H
  C20      1.0000 0.54790  0.36440  0.99970  Biso   1.000  C
  H14      1.0000 0.52720  0.32450  0.99970  Biso   1.000  H
  C21      1.0000 0.41320  0.40290  0.21780  Biso   1.000  C
  N8       1.0000 0.10787  0.77533  0.48543  Biso   1.000  N
  C22      1.0000 0.18627  0.72893  0.33313  Biso   1.000  C
  H15      1.0000 0.14637  0.70913  0.33303  Biso   1.000  H
  C23      1.0000 0.21457  0.69773  0.33303  Biso   1.000  C
  H16      1.0000 0.19387  0.65783  0.33303  Biso   1.000  H
  C24      1.0000 0.07987  0.73623  0.55113  Biso   1.000  C
  N9       1.0000 0.77453  0.10867  0.81877  Biso   1.000  N
  C25      1.0000 0.85293  0.06227  0.66647  Biso   1.000  C
  H17      1.0000 0.81303  0.04247  0.66637  Biso   1.000  H
  C26      1.0000 0.88123  0.03107  0.66637  Biso   1.000  C
  H18      1.0000 0.86053  0.99117  0.66637  Biso   1.000  H
  C27      1.0000 0.74653  0.06957  0.88447  Biso   1.000  C
  N10      1.0000 0.99920  0.55800  0.84790  Biso   1.000  N
  C28      1.0000 0.12400  0.60440  0.00020  Biso   1.000  C
  H19      1.0000 0.10390  0.62420  0.00030  Biso   1.000  H
  C29      1.0000 0.18350  0.63560  0.00030  Biso   1.000  C
  H20      1.0000 0.20270  0.67550  0.00030  Biso   1.000  H
  C30      1.0000 0.01030  0.59710  0.78220  Biso   1.000  C
  N11      1.0000 0.66587  0.89133  0.18123  Biso   1.000  N
  C31      1.0000 0.79067  0.93773  0.33353  Biso   1.000  C
  H21      1.0000 0.77057  0.95753  0.33363  Biso   1.000  H
  C32      1.0000 0.85017  0.96893  0.33363  Biso   1.000  C
  H22      1.0000 0.86937  0.00883  0.33363  Biso   1.000  H
  C33      1.0000 0.67697  0.93043  0.11553  Biso   1.000  C
  N12      1.0000 0.33253  0.22467  0.51457  Biso   1.000  N
  C34      1.0000 0.45733  0.27107  0.66687  Biso   1.000  C
  H23      1.0000 0.43723  0.29087  0.66697  Biso   1.000  H
  C35      1.0000 0.51683  0.30227  0.66697  Biso   1.000  C
  H24      1.0000 0.53603  0.34217  0.66697  Biso   1.000  H
  C36      1.0000 0.34363  0.26377  0.44887  Biso   1.000  C
  N13      1.0000 0.55880  0.00080  0.84790  Biso   1.000  N
  C37      1.0000 0.48040  0.87600  0.00020  Biso   1.000  C
  H25      1.0000 0.52030  0.89610  0.00030  Biso   1.000  H
  C38      1.0000 0.45210  0.81650  0.00030  Biso   1.000  C
  H26      1.0000 0.47280  0.79730  0.00030  Biso   1.000  H
  C39      1.0000 0.58680  0.98970  0.78220  Biso   1.000  C
  N14      1.0000 0.22547  0.33413  0.18123  Biso   1.000  N
  C40      1.0000 0.14707  0.20933  0.33353  Biso   1.000  C
  H27      1.0000 0.18697  0.22943  0.33363  Biso   1.000  H
  C41      1.0000 0.11877  0.14983  0.33363  Biso   1.000  C
  H28      1.0000 0.13947  0.13063  0.33363  Biso   1.000  H
  C42      1.0000 0.25347  0.32303  0.11553  Biso   1.000  C
  N15      1.0000 0.89213  0.66747  0.51457  Biso   1.000  N
  C43      1.0000 0.81373  0.54267  0.66687  Biso   1.000  C
  H29      1.0000 0.85363  0.56277  0.66697  Biso   1.000  H
  C44      1.0000 0.78543  0.48317  0.66697  Biso   1.000  C
  H30      1.0000 0.80613  0.46397  0.66697  Biso   1.000  H
  C45      1.0000 0.92013  0.65637  0.44887  Biso   1.000  C
  N16      1.0000 0.44200  0.44120  0.84790  Biso   1.000  N
  C46      1.0000 0.39560  0.51960  0.00020  Biso   1.000  C
  H31      1.0000 0.37580  0.47970  0.00030  Biso   1.000  H
  C47      1.0000 0.36440  0.54790  0.00030  Biso   1.000  C
  H32      1.0000 0.32450  0.52720  0.00030  Biso   1.000  H
  C48      1.0000 0.40290  0.41320  0.78220  Biso   1.000  C
  N17      1.0000 0.10867  0.77453  0.18123  Biso   1.000  N
  C49      1.0000 0.06227  0.85293  0.33353  Biso   1.000  C
  H33      1.0000 0.04247  0.81303  0.33363  Biso   1.000  H
  C50      1.0000 0.03107  0.88123  0.33363  Biso   1.000  C
  H34      1.0000 0.99117  0.86053  0.33363  Biso   1.000  H
  C51      1.0000 0.06957  0.74653  0.11553  Biso   1.000  C
  N18      1.0000 0.77533  0.10787  0.51457  Biso   1.000  N
  C52      1.0000 0.72893  0.18627  0.66687  Biso   1.000  C
  H35      1.0000 0.70913  0.14637  0.66697  Biso   1.000  H
  C53      1.0000 0.69773  0.21457  0.66697  Biso   1.000  C
  H36      1.0000 0.65783  0.19387  0.66697  Biso   1.000  H
  C54      1.0000 0.73623  0.07987  0.44887  Biso   1.000  C
  N19      1.0000 0.44200  0.00080  0.84790  Biso   1.000  N
  C55      1.0000 0.39560  0.87600  0.00020  Biso   1.000  C
  H37      1.0000 0.37580  0.89610  0.00030  Biso   1.000  H
  C56      1.0000 0.36440  0.81650  0.00030  Biso   1.000  C
  H38      1.0000 0.32450  0.79730  0.00030  Biso   1.000  H
  C57      1.0000 0.40290  0.98970  0.78220  Biso   1.000  C
  N20      1.0000 0.10867  0.33413  0.18123  Biso   1.000  N
  C58      1.0000 0.06227  0.20933  0.33353  Biso   1.000  C
  H39      1.0000 0.04247  0.22943  0.33363  Biso   1.000  H
  C59      1.0000 0.03107  0.14983  0.33363  Biso   1.000  C
  H40      1.0000 0.99117  0.13063  0.33363  Biso   1.000  H
  C60      1.0000 0.06957  0.32303  0.11553  Biso   1.000  C
  N21      1.0000 0.77533  0.66747  0.51457  Biso   1.000  N
  C61      1.0000 0.72893  0.54267  0.66687  Biso   1.000  C
  H41      1.0000 0.70913  0.56277  0.66697  Biso   1.000  H
  C62      1.0000 0.69773  0.48317  0.66697  Biso   1.000  C
  H42      1.0000 0.65783  0.46397  0.66697  Biso   1.000  H
  C63      1.0000 0.73623  0.65637  0.44887  Biso   1.000  C
  N22      1.0000 0.99920  0.44120  0.84790  Biso   1.000  N
  C64      1.0000 0.12400  0.51960  0.00020  Biso   1.000  C
  H43      1.0000 0.10390  0.47970  0.00030  Biso   1.000  H
  C65      1.0000 0.18350  0.54790  0.00030  Biso   1.000  C
  H44      1.0000 0.20270  0.52720  0.00030  Biso   1.000  H
  C66      1.0000 0.01030  0.41320  0.78220  Biso   1.000  C
  N23      1.0000 0.66587  0.77453  0.18123  Biso   1.000  N
  C67      1.0000 0.79067  0.85293  0.33353  Biso   1.000  C
  H45      1.0000 0.77057  0.81303  0.33363  Biso   1.000  H
  C68      1.0000 0.85017  0.88123  0.33363  Biso   1.000  C
  H46      1.0000 0.86937  0.86053  0.33363  Biso   1.000  H
  C69      1.0000 0.67697  0.74653  0.11553  Biso   1.000  C
  N24      1.0000 0.33253  0.10787  0.51457  Biso   1.000  N
  C70      1.0000 0.45733  0.18627  0.66687  Biso   1.000  C
  H47      1.0000 0.43723  0.14637  0.66697  Biso   1.000  H
  C71      1.0000 0.51683  0.21457  0.66697  Biso   1.000  C
  H48      1.0000 0.53603  0.19387  0.66697  Biso   1.000  H
  C72      1.0000 0.34363  0.07987  0.44887  Biso   1.000  C
  N25      1.0000 0.55880  0.55800  0.84790  Biso   1.000  N
  C73      1.0000 0.48040  0.60440  0.00020  Biso   1.000  C
  H49      1.0000 0.52030  0.62420  0.00030  Biso   1.000  H
  C74      1.0000 0.45210  0.63560  0.00030  Biso   1.000  C
  H50      1.0000 0.47280  0.67550  0.00030  Biso   1.000  H
  C75      1.0000 0.58680  0.59710  0.78220  Biso   1.000  C
  N26      1.0000 0.22547  0.89133  0.18123  Biso   1.000  N
  C76      1.0000 0.14707  0.93773  0.33353  Biso   1.000  C
  H51      1.0000 0.18697  0.95753  0.33363  Biso   1.000  H
  C77      1.0000 0.11877  0.96893  0.33363  Biso   1.000  C
  H52      1.0000 0.13947  0.00883  0.33363  Biso   1.000  H
  C78      1.0000 0.25347  0.93043  0.11553  Biso   1.000  C
  N27      1.0000 0.89213  0.22467  0.51457  Biso   1.000  N
  C79      1.0000 0.81373  0.27107  0.66687  Biso   1.000  C
  H53      1.0000 0.85363  0.29087  0.66697  Biso   1.000  H
  C80      1.0000 0.78543  0.30227  0.66697  Biso   1.000  C
  H54      1.0000 0.80613  0.34217  0.66697  Biso   1.000  H
  C81      1.0000 0.92013  0.26377  0.44887  Biso   1.000  C
  N28      1.0000 0.00080  0.44200  0.15210  Biso   1.000  N
  C82      1.0000 0.87600  0.39560  0.99980  Biso   1.000  C
  H55      1.0000 0.89610  0.37580  0.99970  Biso   1.000  H
  C83      1.0000 0.81650  0.36440  0.99970  Biso   1.000  C
  H56      1.0000 0.79730  0.32450  0.99970  Biso   1.000  H
  C84      1.0000 0.98970  0.40290  0.21780  Biso   1.000  C
  N29      1.0000 0.66747  0.77533  0.48543  Biso   1.000  N
  C85      1.0000 0.54267  0.72893  0.33313  Biso   1.000  C
  H57      1.0000 0.56277  0.70913  0.33303  Biso   1.000  H
  C86      1.0000 0.48317  0.69773  0.33303  Biso   1.000  C
  H58      1.0000 0.46397  0.65783  0.33303  Biso   1.000  H
  C87      1.0000 0.65637  0.73623  0.55113  Biso   1.000  C
  N30      1.0000 0.33413  0.10867  0.81877  Biso   1.000  N
  C88      1.0000 0.20933  0.06227  0.66647  Biso   1.000  C
  H59      1.0000 0.22943  0.04247  0.66637  Biso   1.000  H
  C89      1.0000 0.14983  0.03107  0.66637  Biso   1.000  C
  H60      1.0000 0.13063  0.99117  0.66637  Biso   1.000  H
  C90      1.0000 0.32303  0.06957  0.88447  Biso   1.000  C
  N31      1.0000 0.44120  0.99920  0.15210  Biso   1.000  N
  C91      1.0000 0.51960  0.12400  0.99980  Biso   1.000  C
  H61      1.0000 0.47970  0.10390  0.99970  Biso   1.000  H
  C92      1.0000 0.54790  0.18350  0.99970  Biso   1.000  C
  H62      1.0000 0.52720  0.20270  0.99970  Biso   1.000  H
  C93      1.0000 0.41320  0.01030  0.21780  Biso   1.000  C
  N32      1.0000 0.10787  0.33253  0.48543  Biso   1.000  N
  C94      1.0000 0.18627  0.45733  0.33313  Biso   1.000  C
  H63      1.0000 0.14637  0.43723  0.33303  Biso   1.000  H
  C95      1.0000 0.21457  0.51683  0.33303  Biso   1.000  C
  H64      1.0000 0.19387  0.53603  0.33303  Biso   1.000  H
  C96      1.0000 0.07987  0.34363  0.55113  Biso   1.000  C
  N33      1.0000 0.77453  0.66587  0.81877  Biso   1.000  N
  C97      1.0000 0.85293  0.79067  0.66647  Biso   1.000  C
  H65      1.0000 0.81303  0.77057  0.66637  Biso   1.000  H
  C98      1.0000 0.88123  0.85017  0.66637  Biso   1.000  C
  H66      1.0000 0.86053  0.86937  0.66637  Biso   1.000  H
  C99      1.0000 0.74653  0.67697  0.88447  Biso   1.000  C
  N34      1.0000 0.55800  0.55880  0.15210  Biso   1.000  N
  C100     1.0000 0.60440  0.48040  0.99980  Biso   1.000  C
  H67      1.0000 0.62420  0.52030  0.99970  Biso   1.000  H
  C101     1.0000 0.63560  0.45210  0.99970  Biso   1.000  C
  H68      1.0000 0.67550  0.47280  0.99970  Biso   1.000  H
  C102     1.0000 0.59710  0.58680  0.21780  Biso   1.000  C
  N35      1.0000 0.22467  0.89213  0.48543  Biso   1.000  N
  C103     1.0000 0.27107  0.81373  0.33313  Biso   1.000  C
  H69      1.0000 0.29087  0.85363  0.33303  Biso   1.000  H
  C104     1.0000 0.30227  0.78543  0.33303  Biso   1.000  C
  H70      1.0000 0.34217  0.80613  0.33303  Biso   1.000  H
  C105     1.0000 0.26377  0.92013  0.55113  Biso   1.000  C
  N36      1.0000 0.89133  0.22547  0.81877  Biso   1.000  N
  C106     1.0000 0.93773  0.14707  0.66647  Biso   1.000  C
  H71      1.0000 0.95753  0.18697  0.66637  Biso   1.000  H
  C107     1.0000 0.96893  0.11877  0.66637  Biso   1.000  C
  H72      1.0000 0.00883  0.13947  0.66637  Biso   1.000  H
  C108     1.0000 0.93043  0.25347  0.88447  Biso   1.000  C
  Au1      1.0000 0.66667  0.03991  0.33333  Biso   1.000  Au
  Au2      1.0000 0.96009  0.62675  0.33333  Biso   1.000  Au
  Au3      1.0000 0.37325  0.33333  0.33333  Biso   1.000  Au
  Au4      1.0000 0.03991  0.66667  0.66667  Biso   1.000  Au
  Au5      1.0000 0.70658  0.00000  0.00000  Biso   1.000  Au
  Au6      1.0000 0.62675  0.96009  0.66667  Biso   1.000  Au
  Au7      1.0000 0.29342  0.29342  0.00000  Biso   1.000  Au
  Au8      1.0000 0.33333  0.37325  0.66667  Biso   1.000  Au
  Au9      1.0000 0.00000  0.70658  0.00000  Biso   1.000  Au
  Au10     1.0000 0.33333  0.96009  0.66667  Biso   1.000  Au
  Au11     1.0000 0.00000  0.29342  0.00000  Biso   1.000  Au
  Au12     1.0000 0.03991  0.37325  0.66667  Biso   1.000  Au
  Au13     1.0000 0.70658  0.70658  0.00000  Biso   1.000  Au
  Au14     1.0000 0.62675  0.66667  0.66667  Biso   1.000  Au
  Au15     1.0000 0.29342  0.00000  0.00000  Biso   1.000  Au
  Au16     1.0000 0.96009  0.33333  0.33333  Biso   1.000  Au
  Au17     1.0000 0.37325  0.03991  0.33333  Biso   1.000  Au
  Au18     1.0000 0.66667  0.62675  0.33333  Biso   1.000  Au
  Fe1      1.0000 0.50000  0.00000  0.00000  Biso   1.000  Fe
  Fe2      1.0000 0.16667  0.33333  0.33333  Biso   1.000  Fe
  Fe3      1.0000 0.83333  0.66667  0.66667  Biso   1.000  Fe
  Fe4      1.0000 0.00000  0.50000  0.00000  Biso   1.000  Fe
  Fe5      1.0000 0.66667  0.83333  0.33333  Biso   1.000  Fe
  Fe6      1.0000 0.33333  0.16667  0.66667  Biso   1.000  Fe
  Fe7      1.0000 0.50000  0.50000  0.00000  Biso   1.000  Fe
  Fe8      1.0000 0.16667  0.83333  0.33333  Biso   1.000  Fe
  Fe9      1.0000 0.83333  0.16667  0.66667  Biso   1.000  Fe
  N37      1.0000 0.54715  0.09430  0.00020  Biso   1.000  N
  C109     1.0000 0.60680  0.21360  0.99950  Biso   1.000  C
  C110     1.0000 0.63860  0.27720  0.99850  Biso   1.000  C
  N38      1.0000 0.21382  0.42763  0.33353  Biso   1.000  N
  C111     1.0000 0.27347  0.54693  0.33283  Biso   1.000  C
  C112     1.0000 0.30527  0.61053  0.33183  Biso   1.000  C
  N39      1.0000 0.88048  0.76097  0.66687  Biso   1.000  N
  C113     1.0000 0.94013  0.88027  0.66617  Biso   1.000  C
  C114     1.0000 0.97193  0.94387  0.66517  Biso   1.000  C
  N40      1.0000 0.90570  0.45285  0.00020  Biso   1.000  N
  C115     1.0000 0.78640  0.39320  0.99950  Biso   1.000  C
  C116     1.0000 0.72280  0.36140  0.99850  Biso   1.000  C
  N41      1.0000 0.57237  0.78618  0.33353  Biso   1.000  N
  C117     1.0000 0.45307  0.72653  0.33283  Biso   1.000  C
  C118     1.0000 0.38947  0.69473  0.33183  Biso   1.000  C
  N42      1.0000 0.23903  0.11952  0.66687  Biso   1.000  N
  C119     1.0000 0.11973  0.05987  0.66617  Biso   1.000  C
  C120     1.0000 0.05613  0.02807  0.66517  Biso   1.000  C
  N43      1.0000 0.54715  0.45285  0.00020  Biso   1.000  N
  C121     1.0000 0.60680  0.39320  0.99950  Biso   1.000  C
  C122     1.0000 0.63860  0.36140  0.99850  Biso   1.000  C
  N44      1.0000 0.21382  0.78618  0.33353  Biso   1.000  N
  C123     1.0000 0.27347  0.72653  0.33283  Biso   1.000  C
  C124     1.0000 0.30527  0.69473  0.33183  Biso   1.000  C
  N45      1.0000 0.88048  0.11952  0.66687  Biso   1.000  N
  C125     1.0000 0.94013  0.05987  0.66617  Biso   1.000  C
  C126     1.0000 0.97193  0.02807  0.66517  Biso   1.000  C
  N46      1.0000 0.09430  0.54715  0.99980  Biso   1.000  N
  C127     1.0000 0.21360  0.60680  0.00050  Biso   1.000  C
  C128     1.0000 0.27720  0.63860  0.00150  Biso   1.000  C
  N47      1.0000 0.76097  0.88048  0.33313  Biso   1.000  N
  C129     1.0000 0.88027  0.94013  0.33383  Biso   1.000  C
  C130     1.0000 0.94387  0.97193  0.33483  Biso   1.000  C
  N48      1.0000 0.42763  0.21382  0.66647  Biso   1.000  N
  C131     1.0000 0.54693  0.27347  0.66717  Biso   1.000  C
  C132     1.0000 0.61053  0.30527  0.66817  Biso   1.000  C
  N49      1.0000 0.45285  0.90570  0.99980  Biso   1.000  N
  C133     1.0000 0.39320  0.78640  0.00050  Biso   1.000  C
  C134     1.0000 0.36140  0.72280  0.00150  Biso   1.000  C
  N50      1.0000 0.11952  0.23903  0.33313  Biso   1.000  N
  C135     1.0000 0.05987  0.11973  0.33383  Biso   1.000  C
  C136     1.0000 0.02807  0.05613  0.33483  Biso   1.000  C
  N51      1.0000 0.78618  0.57237  0.66647  Biso   1.000  N
  C137     1.0000 0.72653  0.45307  0.66717  Biso   1.000  C
  C138     1.0000 0.69473  0.38947  0.66817  Biso   1.000  C
  N52      1.0000 0.45285  0.54715  0.99980  Biso   1.000  N
  C139     1.0000 0.39320  0.60680  0.00050  Biso   1.000  C
  C140     1.0000 0.36140  0.63860  0.00150  Biso   1.000  C
  N53      1.0000 0.11952  0.88048  0.33313  Biso   1.000  N
  C141     1.0000 0.05987  0.94013  0.33383  Biso   1.000  C
  C142     1.0000 0.02807  0.97193  0.33483  Biso   1.000  C
  N54      1.0000 0.78618  0.21382  0.66647  Biso   1.000  N
  C143     1.0000 0.72653  0.27347  0.66717  Biso   1.000  C
  C144     1.0000 0.69473  0.30527  0.66817  Biso   1.000  C
  N55      1.0000 0.69609  0.30391  0.99960  Biso   1.000  N
  N56      1.0000 0.36276  0.63724  0.33293  Biso   1.000  N
  N57      1.0000 0.02942  0.97058  0.66627  Biso   1.000  N
  N58      1.0000 0.69609  0.39218  0.99960  Biso   1.000  N
  N59      1.0000 0.36276  0.72551  0.33293  Biso   1.000  N
  N60      1.0000 0.02942  0.05885  0.66627  Biso   1.000  N
  N61      1.0000 0.60782  0.30391  0.99960  Biso   1.000  N
  N62      1.0000 0.27449  0.63724  0.33293  Biso   1.000  N
  N63      1.0000 0.94115  0.97058  0.66627  Biso   1.000  N
  N64      1.0000 0.30391  0.69609  0.00040  Biso   1.000  N
  N65      1.0000 0.97058  0.02942  0.33373  Biso   1.000  N
  N66      1.0000 0.63724  0.36276  0.66707  Biso   1.000  N
  N67      1.0000 0.39218  0.69609  0.00040  Biso   1.000  N
  N68      1.0000 0.05885  0.02942  0.33373  Biso   1.000  N
  N69      1.0000 0.72551  0.36276  0.66707  Biso   1.000  N
  N70      1.0000 0.30391  0.60782  0.00040  Biso   1.000  N
  N71      1.0000 0.97058  0.94115  0.33373  Biso   1.000  N
  N72      1.0000 0.63724  0.27449  0.66707  Biso   1.000  N
