data_image0
_cell_length_a       26.8824
_cell_length_b       26.8824
_cell_length_c       10.2072
_cell_angle_alpha    90
_cell_angle_beta     90
_cell_angle_gamma    120

_symmetry_space_group_name_H-M    "P 1"
_symmetry_int_tables_number       1

loop_
  _symmetry_equiv_pos_as_xyz
  'x, y, z'

loop_
  _atom_site_label
  _atom_site_occupancy
  _atom_site_fract_x
  _atom_site_fract_y
  _atom_site_fract_z
  _atom_site_thermal_displace_type
  _atom_site_B_iso_or_equiv
  _atom_site_type_symbol
  N1       1.0000 0.43990  0.99810  0.85700  Biso   1.000  N
  C1       1.0000 0.39560  0.87580  0.00980  Biso   1.000  C
  H1       1.0000 0.37580  0.89590  0.00970  Biso   1.000  H
  C2       1.0000 0.36450  0.81670  0.00950  Biso   1.000  C
  H2       1.0000 0.32460  0.79790  0.01030  Biso   1.000  H
  C3       1.0000 0.40240  0.99060  0.78940  Biso   1.000  C
  N2       1.0000 0.10657  0.33143  0.19033  Biso   1.000  N
  C4       1.0000 0.06227  0.20913  0.34313  Biso   1.000  C
  H3       1.0000 0.04247  0.22923  0.34303  Biso   1.000  H
  C5       1.0000 0.03117  0.15003  0.34283  Biso   1.000  C
  H4       1.0000 0.99127  0.13123  0.34363  Biso   1.000  H
  C6       1.0000 0.06907  0.32393  0.12273  Biso   1.000  C
  N3       1.0000 0.77323  0.66477  0.52367  Biso   1.000  N
  C7       1.0000 0.72893  0.54247  0.67647  Biso   1.000  C
  H5       1.0000 0.70913  0.56257  0.67637  Biso   1.000  H
  C8       1.0000 0.69783  0.48337  0.67617  Biso   1.000  C
  H6       1.0000 0.65793  0.46457  0.67697  Biso   1.000  H
  C9       1.0000 0.73573  0.65727  0.45607  Biso   1.000  C
  N4       1.0000 0.00190  0.44180  0.85700  Biso   1.000  N
  C10      1.0000 0.12420  0.51980  0.00980  Biso   1.000  C
  H7       1.0000 0.10410  0.47990  0.00970  Biso   1.000  H
  C11      1.0000 0.18330  0.54780  0.00950  Biso   1.000  C
  H8       1.0000 0.20210  0.52670  0.01030  Biso   1.000  H
  C12      1.0000 0.00940  0.41180  0.78940  Biso   1.000  C
  N5       1.0000 0.66857  0.77513  0.19033  Biso   1.000  N
  C13      1.0000 0.79087  0.85313  0.34313  Biso   1.000  C
  H9       1.0000 0.77077  0.81323  0.34303  Biso   1.000  H
  C14      1.0000 0.84997  0.88113  0.34283  Biso   1.000  C
  H10      1.0000 0.86877  0.86003  0.34363  Biso   1.000  H
  C15      1.0000 0.67607  0.74513  0.12273  Biso   1.000  C
  N6       1.0000 0.33523  0.10847  0.52367  Biso   1.000  N
  C16      1.0000 0.45753  0.18647  0.67647  Biso   1.000  C
  H11      1.0000 0.43743  0.14657  0.67637  Biso   1.000  H
  C17      1.0000 0.51663  0.21447  0.67617  Biso   1.000  C
  H12      1.0000 0.53543  0.19337  0.67697  Biso   1.000  H
  C18      1.0000 0.34273  0.07847  0.45607  Biso   1.000  C
  N7       1.0000 0.55820  0.56010  0.85700  Biso   1.000  N
  C19      1.0000 0.48020  0.60440  0.00980  Biso   1.000  C
  H13      1.0000 0.52010  0.62420  0.00970  Biso   1.000  H
  C20      1.0000 0.45220  0.63550  0.00950  Biso   1.000  C
  H14      1.0000 0.47330  0.67540  0.01030  Biso   1.000  H
  C21      1.0000 0.58820  0.59760  0.78940  Biso   1.000  C
  N8       1.0000 0.22487  0.89343  0.19033  Biso   1.000  N
  C22      1.0000 0.14687  0.93773  0.34313  Biso   1.000  C
  H15      1.0000 0.18677  0.95753  0.34303  Biso   1.000  H
  C23      1.0000 0.11887  0.96883  0.34283  Biso   1.000  C
  H16      1.0000 0.13997  0.00873  0.34363  Biso   1.000  H
  C24      1.0000 0.25487  0.93093  0.12273  Biso   1.000  C
  N9       1.0000 0.89153  0.22677  0.52367  Biso   1.000  N
  C25      1.0000 0.81353  0.27107  0.67647  Biso   1.000  C
  H17      1.0000 0.85343  0.29087  0.67637  Biso   1.000  H
  C26      1.0000 0.78553  0.30217  0.67617  Biso   1.000  C
  H18      1.0000 0.80663  0.34207  0.67697  Biso   1.000  H
  C27      1.0000 0.92153  0.26427  0.45607  Biso   1.000  C
  N10      1.0000 0.99810  0.43990  0.14300  Biso   1.000  N
  C28      1.0000 0.87580  0.39560  0.99020  Biso   1.000  C
  H19      1.0000 0.89590  0.37580  0.99030  Biso   1.000  H
  C29      1.0000 0.81670  0.36450  0.99050  Biso   1.000  C
  H20      1.0000 0.79790  0.32460  0.98970  Biso   1.000  H
  C30      1.0000 0.99060  0.40240  0.21060  Biso   1.000  C
  N11      1.0000 0.66477  0.77323  0.47633  Biso   1.000  N
  C31      1.0000 0.54247  0.72893  0.32353  Biso   1.000  C
  H21      1.0000 0.56257  0.70913  0.32363  Biso   1.000  H
  C32      1.0000 0.48337  0.69783  0.32383  Biso   1.000  C
  H22      1.0000 0.46457  0.65793  0.32303  Biso   1.000  H
  C33      1.0000 0.65727  0.73573  0.54393  Biso   1.000  C
  N12      1.0000 0.33143  0.10657  0.80967  Biso   1.000  N
  C34      1.0000 0.20913  0.06227  0.65687  Biso   1.000  C
  H23      1.0000 0.22923  0.04247  0.65697  Biso   1.000  H
  C35      1.0000 0.15003  0.03117  0.65717  Biso   1.000  C
  H24      1.0000 0.13123  0.99127  0.65637  Biso   1.000  H
  C36      1.0000 0.32393  0.06907  0.87727  Biso   1.000  C
  N13      1.0000 0.44180  0.00190  0.14300  Biso   1.000  N
  C37      1.0000 0.51980  0.12420  0.99020  Biso   1.000  C
  H25      1.0000 0.47990  0.10410  0.99030  Biso   1.000  H
  C38      1.0000 0.54780  0.18330  0.99050  Biso   1.000  C
  H26      1.0000 0.52670  0.20210  0.98970  Biso   1.000  H
  C39      1.0000 0.41180  0.00940  0.21060  Biso   1.000  C
  N14      1.0000 0.10847  0.33523  0.47633  Biso   1.000  N
  C40      1.0000 0.18647  0.45753  0.32353  Biso   1.000  C
  H27      1.0000 0.14657  0.43743  0.32363  Biso   1.000  H
  C41      1.0000 0.21447  0.51663  0.32383  Biso   1.000  C
  H28      1.0000 0.19337  0.53543  0.32303  Biso   1.000  H
  C42      1.0000 0.07847  0.34273  0.54393  Biso   1.000  C
  N15      1.0000 0.77513  0.66857  0.80967  Biso   1.000  N
  C43      1.0000 0.85313  0.79087  0.65687  Biso   1.000  C
  H29      1.0000 0.81323  0.77077  0.65697  Biso   1.000  H
  C44      1.0000 0.88113  0.84997  0.65717  Biso   1.000  C
  H30      1.0000 0.86003  0.86877  0.65637  Biso   1.000  H
  C45      1.0000 0.74513  0.67607  0.87727  Biso   1.000  C
  N16      1.0000 0.56010  0.55820  0.14300  Biso   1.000  N
  C46      1.0000 0.60440  0.48020  0.99020  Biso   1.000  C
  H31      1.0000 0.62420  0.52010  0.99030  Biso   1.000  H
  C47      1.0000 0.63550  0.45220  0.99050  Biso   1.000  C
  H32      1.0000 0.67540  0.47330  0.98970  Biso   1.000  H
  C48      1.0000 0.59760  0.58820  0.21060  Biso   1.000  C
  N17      1.0000 0.22677  0.89153  0.47633  Biso   1.000  N
  C49      1.0000 0.27107  0.81353  0.32353  Biso   1.000  C
  H33      1.0000 0.29087  0.85343  0.32363  Biso   1.000  H
  C50      1.0000 0.30217  0.78553  0.32383  Biso   1.000  C
  H34      1.0000 0.34207  0.80663  0.32303  Biso   1.000  H
  C51      1.0000 0.26427  0.92153  0.54393  Biso   1.000  C
  N18      1.0000 0.89343  0.22487  0.80967  Biso   1.000  N
  C52      1.0000 0.93773  0.14687  0.65687  Biso   1.000  C
  H35      1.0000 0.95753  0.18677  0.65697  Biso   1.000  H
  C53      1.0000 0.96883  0.11887  0.65717  Biso   1.000  C
  H36      1.0000 0.00873  0.13997  0.65637  Biso   1.000  H
  C54      1.0000 0.93093  0.25487  0.87727  Biso   1.000  C
  N19      1.0000 0.56010  0.00190  0.14300  Biso   1.000  N
  C55      1.0000 0.60440  0.12420  0.99020  Biso   1.000  C
  H37      1.0000 0.62420  0.10410  0.99030  Biso   1.000  H
  C56      1.0000 0.63550  0.18330  0.99050  Biso   1.000  C
  H38      1.0000 0.67540  0.20210  0.98970  Biso   1.000  H
  C57      1.0000 0.59760  0.00940  0.21060  Biso   1.000  C
  N20      1.0000 0.22677  0.33523  0.47633  Biso   1.000  N
  C58      1.0000 0.27107  0.45753  0.32353  Biso   1.000  C
  H39      1.0000 0.29087  0.43743  0.32363  Biso   1.000  H
  C59      1.0000 0.30217  0.51663  0.32383  Biso   1.000  C
  H40      1.0000 0.34207  0.53543  0.32303  Biso   1.000  H
  C60      1.0000 0.26427  0.34273  0.54393  Biso   1.000  C
  N21      1.0000 0.89343  0.66857  0.80967  Biso   1.000  N
  C61      1.0000 0.93773  0.79087  0.65687  Biso   1.000  C
  H41      1.0000 0.95753  0.77077  0.65697  Biso   1.000  H
  C62      1.0000 0.96883  0.84997  0.65717  Biso   1.000  C
  H42      1.0000 0.00873  0.86877  0.65637  Biso   1.000  H
  C63      1.0000 0.93093  0.67607  0.87727  Biso   1.000  C
  N22      1.0000 0.99810  0.55820  0.14300  Biso   1.000  N
  C64      1.0000 0.87580  0.48020  0.99020  Biso   1.000  C
  H43      1.0000 0.89590  0.52010  0.99030  Biso   1.000  H
  C65      1.0000 0.81670  0.45220  0.99050  Biso   1.000  C
  H44      1.0000 0.79790  0.47330  0.98970  Biso   1.000  H
  C66      1.0000 0.99060  0.58820  0.21060  Biso   1.000  C
  N23      1.0000 0.66477  0.89153  0.47633  Biso   1.000  N
  C67      1.0000 0.54247  0.81353  0.32353  Biso   1.000  C
  H45      1.0000 0.56257  0.85343  0.32363  Biso   1.000  H
  C68      1.0000 0.48337  0.78553  0.32383  Biso   1.000  C
  H46      1.0000 0.46457  0.80663  0.32303  Biso   1.000  H
  C69      1.0000 0.65727  0.92153  0.54393  Biso   1.000  C
  N24      1.0000 0.33143  0.22487  0.80967  Biso   1.000  N
  C70      1.0000 0.20913  0.14687  0.65687  Biso   1.000  C
  H47      1.0000 0.22923  0.18677  0.65697  Biso   1.000  H
  C71      1.0000 0.15003  0.11887  0.65717  Biso   1.000  C
  H48      1.0000 0.13123  0.13997  0.65637  Biso   1.000  H
  C72      1.0000 0.32393  0.25487  0.87727  Biso   1.000  C
  N25      1.0000 0.44180  0.43990  0.14300  Biso   1.000  N
  C73      1.0000 0.51980  0.39560  0.99020  Biso   1.000  C
  H49      1.0000 0.47990  0.37580  0.99030  Biso   1.000  H
  C74      1.0000 0.54780  0.36450  0.99050  Biso   1.000  C
  H50      1.0000 0.52670  0.32460  0.98970  Biso   1.000  H
  C75      1.0000 0.41180  0.40240  0.21060  Biso   1.000  C
  N26      1.0000 0.10847  0.77323  0.47633  Biso   1.000  N
  C76      1.0000 0.18647  0.72893  0.32353  Biso   1.000  C
  H51      1.0000 0.14657  0.70913  0.32363  Biso   1.000  H
  C77      1.0000 0.21447  0.69783  0.32383  Biso   1.000  C
  H52      1.0000 0.19337  0.65793  0.32303  Biso   1.000  H
  C78      1.0000 0.07847  0.73573  0.54393  Biso   1.000  C
  N27      1.0000 0.77513  0.10657  0.80967  Biso   1.000  N
  C79      1.0000 0.85313  0.06227  0.65687  Biso   1.000  C
  H53      1.0000 0.81323  0.04247  0.65697  Biso   1.000  H
  C80      1.0000 0.88113  0.03117  0.65717  Biso   1.000  C
  H54      1.0000 0.86003  0.99127  0.65637  Biso   1.000  H
  C81      1.0000 0.74513  0.06907  0.87727  Biso   1.000  C
  N28      1.0000 0.00190  0.56010  0.85700  Biso   1.000  N
  C82      1.0000 0.12420  0.60440  0.00980  Biso   1.000  C
  H55      1.0000 0.10410  0.62420  0.00970  Biso   1.000  H
  C83      1.0000 0.18330  0.63550  0.00950  Biso   1.000  C
  H56      1.0000 0.20210  0.67540  0.01030  Biso   1.000  H
  C84      1.0000 0.00940  0.59760  0.78940  Biso   1.000  C
  N29      1.0000 0.66857  0.89343  0.19033  Biso   1.000  N
  C85      1.0000 0.79087  0.93773  0.34313  Biso   1.000  C
  H57      1.0000 0.77077  0.95753  0.34303  Biso   1.000  H
  C86      1.0000 0.84997  0.96883  0.34283  Biso   1.000  C
  H58      1.0000 0.86877  0.00873  0.34363  Biso   1.000  H
  C87      1.0000 0.67607  0.93093  0.12273  Biso   1.000  C
  N30      1.0000 0.33523  0.22677  0.52367  Biso   1.000  N
  C88      1.0000 0.45753  0.27107  0.67647  Biso   1.000  C
  H59      1.0000 0.43743  0.29087  0.67637  Biso   1.000  H
  C89      1.0000 0.51663  0.30217  0.67617  Biso   1.000  C
  H60      1.0000 0.53543  0.34207  0.67697  Biso   1.000  H
  C90      1.0000 0.34273  0.26427  0.45607  Biso   1.000  C
  N31      1.0000 0.55820  0.99810  0.85700  Biso   1.000  N
  C91      1.0000 0.48020  0.87580  0.00980  Biso   1.000  C
  H61      1.0000 0.52010  0.89590  0.00970  Biso   1.000  H
  C92      1.0000 0.45220  0.81670  0.00950  Biso   1.000  C
  H62      1.0000 0.47330  0.79790  0.01030  Biso   1.000  H
  C93      1.0000 0.58820  0.99060  0.78940  Biso   1.000  C
  N32      1.0000 0.22487  0.33143  0.19033  Biso   1.000  N
  C94      1.0000 0.14687  0.20913  0.34313  Biso   1.000  C
  H63      1.0000 0.18677  0.22923  0.34303  Biso   1.000  H
  C95      1.0000 0.11887  0.15003  0.34283  Biso   1.000  C
  H64      1.0000 0.13997  0.13123  0.34363  Biso   1.000  H
  C96      1.0000 0.25487  0.32393  0.12273  Biso   1.000  C
  N33      1.0000 0.89153  0.66477  0.52367  Biso   1.000  N
  C97      1.0000 0.81353  0.54247  0.67647  Biso   1.000  C
  H65      1.0000 0.85343  0.56257  0.67637  Biso   1.000  H
  C98      1.0000 0.78553  0.48337  0.67617  Biso   1.000  C
  H66      1.0000 0.80663  0.46457  0.67697  Biso   1.000  H
  C99      1.0000 0.92153  0.65727  0.45607  Biso   1.000  C
  N34      1.0000 0.43990  0.44180  0.85700  Biso   1.000  N
  C100     1.0000 0.39560  0.51980  0.00980  Biso   1.000  C
  H67      1.0000 0.37580  0.47990  0.00970  Biso   1.000  H
  C101     1.0000 0.36450  0.54780  0.00950  Biso   1.000  C
  H68      1.0000 0.32460  0.52670  0.01030  Biso   1.000  H
  C102     1.0000 0.40240  0.41180  0.78940  Biso   1.000  C
  N35      1.0000 0.10657  0.77513  0.19033  Biso   1.000  N
  C103     1.0000 0.06227  0.85313  0.34313  Biso   1.000  C
  H69      1.0000 0.04247  0.81323  0.34303  Biso   1.000  H
  C104     1.0000 0.03117  0.88113  0.34283  Biso   1.000  C
  H70      1.0000 0.99127  0.86003  0.34363  Biso   1.000  H
  C105     1.0000 0.06907  0.74513  0.12273  Biso   1.000  C
  N36      1.0000 0.77323  0.10847  0.52367  Biso   1.000  N
  C106     1.0000 0.72893  0.18647  0.67647  Biso   1.000  C
  H71      1.0000 0.70913  0.14657  0.67637  Biso   1.000  H
  C107     1.0000 0.69783  0.21447  0.67617  Biso   1.000  C
  H72      1.0000 0.65793  0.19337  0.67697  Biso   1.000  H
  C108     1.0000 0.73573  0.07847  0.45607  Biso   1.000  C
  Ag1      1.0000 0.33333  0.96482  0.66667  Biso   1.000  Ag
  Ag2      1.0000 0.00000  0.29815  0.00000  Biso   1.000  Ag
  Ag3      1.0000 0.03518  0.36852  0.66667  Biso   1.000  Ag
  Ag4      1.0000 0.70185  0.70185  0.00000  Biso   1.000  Ag
  Ag5      1.0000 0.63148  0.66667  0.66667  Biso   1.000  Ag
  Ag6      1.0000 0.29815  0.00000  0.00000  Biso   1.000  Ag
  Ag7      1.0000 0.96482  0.33333  0.33333  Biso   1.000  Ag
  Ag8      1.0000 0.36852  0.03518  0.33333  Biso   1.000  Ag
  Ag9      1.0000 0.66667  0.63148  0.33333  Biso   1.000  Ag
  Ag10     1.0000 0.66667  0.03518  0.33333  Biso   1.000  Ag
  Ag11     1.0000 0.96482  0.63148  0.33333  Biso   1.000  Ag
  Ag12     1.0000 0.36852  0.33333  0.33333  Biso   1.000  Ag
  Ag13     1.0000 0.03518  0.66667  0.66667  Biso   1.000  Ag
  Ag14     1.0000 0.70185  0.00000  0.00000  Biso   1.000  Ag
  Ag15     1.0000 0.63148  0.96482  0.66667  Biso   1.000  Ag
  Ag16     1.0000 0.29815  0.29815  0.00000  Biso   1.000  Ag
  Ag17     1.0000 0.33333  0.36852  0.66667  Biso   1.000  Ag
  Ag18     1.0000 0.00000  0.70185  0.00000  Biso   1.000  Ag
  Fe1      1.0000 0.50000  0.00000  0.00000  Biso   1.000  Fe
  Fe2      1.0000 0.16667  0.33333  0.33333  Biso   1.000  Fe
  Fe3      1.0000 0.83333  0.66667  0.66667  Biso   1.000  Fe
  Fe4      1.0000 0.00000  0.50000  0.00000  Biso   1.000  Fe
  Fe5      1.0000 0.66667  0.83333  0.33333  Biso   1.000  Fe
  Fe6      1.0000 0.33333  0.16667  0.66667  Biso   1.000  Fe
  Fe7      1.0000 0.50000  0.50000  0.00000  Biso   1.000  Fe
  Fe8      1.0000 0.16667  0.83333  0.33333  Biso   1.000  Fe
  Fe9      1.0000 0.83333  0.16667  0.66667  Biso   1.000  Fe
  N37      1.0000 0.45265  0.90530  0.01020  Biso   1.000  N
  C109     1.0000 0.39265  0.78530  0.00790  Biso   1.000  C
  C110     1.0000 0.36155  0.72310  0.00760  Biso   1.000  C
  N38      1.0000 0.11932  0.23863  0.34353  Biso   1.000  N
  C111     1.0000 0.05932  0.11863  0.34123  Biso   1.000  C
  C112     1.0000 0.02822  0.05643  0.34093  Biso   1.000  C
  N39      1.0000 0.78598  0.57197  0.67687  Biso   1.000  N
  C113     1.0000 0.72598  0.45197  0.67457  Biso   1.000  C
  C114     1.0000 0.69488  0.38977  0.67427  Biso   1.000  C
  N40      1.0000 0.09470  0.54735  0.01020  Biso   1.000  N
  C115     1.0000 0.21470  0.60735  0.00790  Biso   1.000  C
  C116     1.0000 0.27690  0.63845  0.00760  Biso   1.000  C
  N41      1.0000 0.76137  0.88068  0.34353  Biso   1.000  N
  C117     1.0000 0.88137  0.94068  0.34123  Biso   1.000  C
  C118     1.0000 0.94357  0.97178  0.34093  Biso   1.000  C
  N42      1.0000 0.42803  0.21402  0.67687  Biso   1.000  N
  C119     1.0000 0.54803  0.27402  0.67457  Biso   1.000  C
  C120     1.0000 0.61023  0.30512  0.67427  Biso   1.000  C
  N43      1.0000 0.45265  0.54735  0.01020  Biso   1.000  N
  C121     1.0000 0.39265  0.60735  0.00790  Biso   1.000  C
  C122     1.0000 0.36155  0.63845  0.00760  Biso   1.000  C
  N44      1.0000 0.11932  0.88068  0.34353  Biso   1.000  N
  C123     1.0000 0.05932  0.94068  0.34123  Biso   1.000  C
  C124     1.0000 0.02822  0.97178  0.34093  Biso   1.000  C
  N45      1.0000 0.78598  0.21402  0.67687  Biso   1.000  N
  C125     1.0000 0.72598  0.27402  0.67457  Biso   1.000  C
  C126     1.0000 0.69488  0.30512  0.67427  Biso   1.000  C
  N46      1.0000 0.90530  0.45265  0.98980  Biso   1.000  N
  C127     1.0000 0.78530  0.39265  0.99210  Biso   1.000  C
  C128     1.0000 0.72310  0.36155  0.99240  Biso   1.000  C
  N47      1.0000 0.57197  0.78598  0.32313  Biso   1.000  N
  C129     1.0000 0.45197  0.72598  0.32543  Biso   1.000  C
  C130     1.0000 0.38977  0.69488  0.32573  Biso   1.000  C
  N48      1.0000 0.23863  0.11932  0.65647  Biso   1.000  N
  C131     1.0000 0.11863  0.05932  0.65877  Biso   1.000  C
  C132     1.0000 0.05643  0.02822  0.65907  Biso   1.000  C
  N49      1.0000 0.54735  0.09470  0.98980  Biso   1.000  N
  C133     1.0000 0.60735  0.21470  0.99210  Biso   1.000  C
  C134     1.0000 0.63845  0.27690  0.99240  Biso   1.000  C
  N50      1.0000 0.21402  0.42803  0.32313  Biso   1.000  N
  C135     1.0000 0.27402  0.54803  0.32543  Biso   1.000  C
  C136     1.0000 0.30512  0.61023  0.32573  Biso   1.000  C
  N51      1.0000 0.88068  0.76137  0.65647  Biso   1.000  N
  C137     1.0000 0.94068  0.88137  0.65877  Biso   1.000  C
  C138     1.0000 0.97178  0.94357  0.65907  Biso   1.000  C
  N52      1.0000 0.54735  0.45265  0.98980  Biso   1.000  N
  C139     1.0000 0.60735  0.39265  0.99210  Biso   1.000  C
  C140     1.0000 0.63845  0.36155  0.99240  Biso   1.000  C
  N53      1.0000 0.21402  0.78598  0.32313  Biso   1.000  N
  C141     1.0000 0.27402  0.72598  0.32543  Biso   1.000  C
  C142     1.0000 0.30512  0.69488  0.32573  Biso   1.000  C
  N54      1.0000 0.88068  0.11932  0.65647  Biso   1.000  N
  C143     1.0000 0.94068  0.05932  0.65877  Biso   1.000  C
  C144     1.0000 0.97178  0.02822  0.65907  Biso   1.000  C
  N55      1.0000 0.30402  0.69598  0.00580  Biso   1.000  N
  N56      1.0000 0.97069  0.02931  0.33913  Biso   1.000  N
  N57      1.0000 0.63735  0.36265  0.67247  Biso   1.000  N
  N58      1.0000 0.30402  0.60804  0.00580  Biso   1.000  N
  N59      1.0000 0.97069  0.94137  0.33913  Biso   1.000  N
  N60      1.0000 0.63735  0.27471  0.67247  Biso   1.000  N
  N61      1.0000 0.39196  0.69598  0.00580  Biso   1.000  N
  N62      1.0000 0.05863  0.02931  0.33913  Biso   1.000  N
  N63      1.0000 0.72529  0.36265  0.67247  Biso   1.000  N
  N64      1.0000 0.69598  0.30402  0.99420  Biso   1.000  N
  N65      1.0000 0.36265  0.63735  0.32753  Biso   1.000  N
  N66      1.0000 0.02931  0.97069  0.66087  Biso   1.000  N
  N67      1.0000 0.60804  0.30402  0.99420  Biso   1.000  N
  N68      1.0000 0.27471  0.63735  0.32753  Biso   1.000  N
  N69      1.0000 0.94137  0.97069  0.66087  Biso   1.000  N
  N70      1.0000 0.69598  0.39196  0.99420  Biso   1.000  N
  N71      1.0000 0.36265  0.72529  0.32753  Biso   1.000  N
  N72      1.0000 0.02931  0.05863  0.66087  Biso   1.000  N
