data_image0
_cell_length_a       26.8078
_cell_length_b       26.8078
_cell_length_c       9.9406
_cell_angle_alpha    90
_cell_angle_beta     90
_cell_angle_gamma    120

_symmetry_space_group_name_H-M    "P 1"
_symmetry_int_tables_number       1

loop_
  _symmetry_equiv_pos_as_xyz
  'x, y, z'

loop_
  _atom_site_label
  _atom_site_occupancy
  _atom_site_fract_x
  _atom_site_fract_y
  _atom_site_fract_z
  _atom_site_thermal_displace_type
  _atom_site_B_iso_or_equiv
  _atom_site_type_symbol
  N1       1.0000 0.89210  0.22510  0.81870  Biso   1.000  N
  C1       1.0000 0.72900  0.18670  0.67540  Biso   1.000  C
  H1       1.0000 0.70890  0.14660  0.67610  Biso   1.000  H
  C2       1.0000 0.69780  0.21390  0.67690  Biso   1.000  C
  H2       1.0000 0.65780  0.19290  0.68030  Biso   1.000  H
  C3       1.0000 0.92970  0.25230  0.88410  Biso   1.000  C
  N2       1.0000 0.55877  0.55843  0.15203  Biso   1.000  N
  C4       1.0000 0.39567  0.52003  0.00873  Biso   1.000  C
  H3       1.0000 0.37557  0.47993  0.00943  Biso   1.000  H
  C5       1.0000 0.36447  0.54723  0.01023  Biso   1.000  C
  H4       1.0000 0.32447  0.52623  0.01363  Biso   1.000  H
  C6       1.0000 0.59637  0.58563  0.21743  Biso   1.000  C
  N3       1.0000 0.22543  0.89177  0.48537  Biso   1.000  N
  C7       1.0000 0.06233  0.85337  0.34207  Biso   1.000  C
  H5       1.0000 0.04223  0.81327  0.34277  Biso   1.000  H
  C8       1.0000 0.03113  0.88057  0.34357  Biso   1.000  C
  H6       1.0000 0.99113  0.85957  0.34697  Biso   1.000  H
  C9       1.0000 0.26303  0.91897  0.55077  Biso   1.000  C
  N4       1.0000 0.77490  0.66700  0.81870  Biso   1.000  N
  C10      1.0000 0.81330  0.54230  0.67540  Biso   1.000  C
  H7       1.0000 0.85340  0.56230  0.67610  Biso   1.000  H
  C11      1.0000 0.78610  0.48390  0.67690  Biso   1.000  C
  H8       1.0000 0.80710  0.46490  0.68030  Biso   1.000  H
  C12      1.0000 0.74770  0.67740  0.88410  Biso   1.000  C
  N5       1.0000 0.44157  0.00033  0.15203  Biso   1.000  N
  C13      1.0000 0.47997  0.87563  0.00873  Biso   1.000  C
  H9       1.0000 0.52007  0.89563  0.00943  Biso   1.000  H
  C14      1.0000 0.45277  0.81723  0.01023  Biso   1.000  C
  H10      1.0000 0.47377  0.79823  0.01363  Biso   1.000  H
  C15      1.0000 0.41437  0.01073  0.21743  Biso   1.000  C
  N6       1.0000 0.10823  0.33367  0.48537  Biso   1.000  N
  C16      1.0000 0.14663  0.20897  0.34207  Biso   1.000  C
  H11      1.0000 0.18673  0.22897  0.34277  Biso   1.000  H
  C17      1.0000 0.11943  0.15057  0.34357  Biso   1.000  C
  H12      1.0000 0.14043  0.13157  0.34697  Biso   1.000  H
  C18      1.0000 0.08103  0.34407  0.55077  Biso   1.000  C
  N7       1.0000 0.33300  0.10790  0.81870  Biso   1.000  N
  C19      1.0000 0.45770  0.27100  0.67540  Biso   1.000  C
  H13      1.0000 0.43770  0.29110  0.67610  Biso   1.000  H
  C20      1.0000 0.51610  0.30220  0.67690  Biso   1.000  C
  H14      1.0000 0.53510  0.34220  0.68030  Biso   1.000  H
  C21      1.0000 0.32260  0.07030  0.88410  Biso   1.000  C
  N8       1.0000 0.99967  0.44123  0.15203  Biso   1.000  N
  C22      1.0000 0.12437  0.60433  0.00873  Biso   1.000  C
  H15      1.0000 0.10437  0.62443  0.00943  Biso   1.000  H
  C23      1.0000 0.18277  0.63553  0.01023  Biso   1.000  C
  H16      1.0000 0.20177  0.67553  0.01363  Biso   1.000  H
  C24      1.0000 0.98927  0.40363  0.21743  Biso   1.000  C
  N9       1.0000 0.66633  0.77457  0.48537  Biso   1.000  N
  C25      1.0000 0.79103  0.93767  0.34207  Biso   1.000  C
  H17      1.0000 0.77103  0.95777  0.34277  Biso   1.000  H
  C26      1.0000 0.84943  0.96887  0.34357  Biso   1.000  C
  H18      1.0000 0.86843  0.00887  0.34697  Biso   1.000  H
  C27      1.0000 0.65593  0.73697  0.55077  Biso   1.000  C
  N10      1.0000 0.22510  0.89210  0.18130  Biso   1.000  N
  C28      1.0000 0.18670  0.72900  0.32460  Biso   1.000  C
  H19      1.0000 0.14660  0.70890  0.32390  Biso   1.000  H
  C29      1.0000 0.21390  0.69780  0.32310  Biso   1.000  C
  H20      1.0000 0.19290  0.65780  0.31970  Biso   1.000  H
  C30      1.0000 0.25230  0.92970  0.11590  Biso   1.000  C
  N11      1.0000 0.89177  0.22543  0.51463  Biso   1.000  N
  C31      1.0000 0.85337  0.06233  0.65793  Biso   1.000  C
  H21      1.0000 0.81327  0.04223  0.65723  Biso   1.000  H
  C32      1.0000 0.88057  0.03113  0.65643  Biso   1.000  C
  H22      1.0000 0.85957  0.99113  0.65303  Biso   1.000  H
  C33      1.0000 0.91897  0.26303  0.44923  Biso   1.000  C
  N12      1.0000 0.55843  0.55877  0.84797  Biso   1.000  N
  C34      1.0000 0.52003  0.39567  0.99127  Biso   1.000  C
  H23      1.0000 0.47993  0.37557  0.99057  Biso   1.000  H
  C35      1.0000 0.54723  0.36447  0.98977  Biso   1.000  C
  H24      1.0000 0.52623  0.32447  0.98637  Biso   1.000  H
  C36      1.0000 0.58563  0.59637  0.78257  Biso   1.000  C
  N13      1.0000 0.66700  0.77490  0.18130  Biso   1.000  N
  C37      1.0000 0.54230  0.81330  0.32460  Biso   1.000  C
  H25      1.0000 0.56230  0.85340  0.32390  Biso   1.000  H
  C38      1.0000 0.48390  0.78610  0.32310  Biso   1.000  C
  H26      1.0000 0.46490  0.80710  0.31970  Biso   1.000  H
  C39      1.0000 0.67740  0.74770  0.11590  Biso   1.000  C
  N14      1.0000 0.33367  0.10823  0.51463  Biso   1.000  N
  C40      1.0000 0.20897  0.14663  0.65793  Biso   1.000  C
  H27      1.0000 0.22897  0.18673  0.65723  Biso   1.000  H
  C41      1.0000 0.15057  0.11943  0.65643  Biso   1.000  C
  H28      1.0000 0.13157  0.14043  0.65303  Biso   1.000  H
  C42      1.0000 0.34407  0.08103  0.44923  Biso   1.000  C
  N15      1.0000 0.00033  0.44157  0.84797  Biso   1.000  N
  C43      1.0000 0.87563  0.47997  0.99127  Biso   1.000  C
  H29      1.0000 0.89563  0.52007  0.99057  Biso   1.000  H
  C44      1.0000 0.81723  0.45277  0.98977  Biso   1.000  C
  H30      1.0000 0.79823  0.47377  0.98637  Biso   1.000  H
  C45      1.0000 0.01073  0.41437  0.78257  Biso   1.000  C
  N16      1.0000 0.10790  0.33300  0.18130  Biso   1.000  N
  C46      1.0000 0.27100  0.45770  0.32460  Biso   1.000  C
  H31      1.0000 0.29110  0.43770  0.32390  Biso   1.000  H
  C47      1.0000 0.30220  0.51610  0.32310  Biso   1.000  C
  H32      1.0000 0.34220  0.53510  0.31970  Biso   1.000  H
  C48      1.0000 0.07030  0.32260  0.11590  Biso   1.000  C
  N17      1.0000 0.77457  0.66633  0.51463  Biso   1.000  N
  C49      1.0000 0.93767  0.79103  0.65793  Biso   1.000  C
  H33      1.0000 0.95777  0.77103  0.65723  Biso   1.000  H
  C50      1.0000 0.96887  0.84943  0.65643  Biso   1.000  C
  H34      1.0000 0.00887  0.86843  0.65303  Biso   1.000  H
  C51      1.0000 0.73697  0.65593  0.44923  Biso   1.000  C
  N18      1.0000 0.44123  0.99967  0.84797  Biso   1.000  N
  C52      1.0000 0.60433  0.12437  0.99127  Biso   1.000  C
  H35      1.0000 0.62443  0.10437  0.99057  Biso   1.000  H
  C53      1.0000 0.63553  0.18277  0.98977  Biso   1.000  C
  H36      1.0000 0.67553  0.20177  0.98637  Biso   1.000  H
  C54      1.0000 0.40363  0.98927  0.78257  Biso   1.000  C
  N19      1.0000 0.10790  0.77490  0.18130  Biso   1.000  N
  C55      1.0000 0.27100  0.81330  0.32460  Biso   1.000  C
  H37      1.0000 0.29110  0.85340  0.32390  Biso   1.000  H
  C56      1.0000 0.30220  0.78610  0.32310  Biso   1.000  C
  H38      1.0000 0.34220  0.80710  0.31970  Biso   1.000  H
  C57      1.0000 0.07030  0.74770  0.11590  Biso   1.000  C
  N20      1.0000 0.77457  0.10823  0.51463  Biso   1.000  N
  C58      1.0000 0.93767  0.14663  0.65793  Biso   1.000  C
  H39      1.0000 0.95777  0.18673  0.65723  Biso   1.000  H
  C59      1.0000 0.96887  0.11943  0.65643  Biso   1.000  C
  H40      1.0000 0.00887  0.14043  0.65303  Biso   1.000  H
  C60      1.0000 0.73697  0.08103  0.44923  Biso   1.000  C
  N21      1.0000 0.44123  0.44157  0.84797  Biso   1.000  N
  C61      1.0000 0.60433  0.47997  0.99127  Biso   1.000  C
  H41      1.0000 0.62443  0.52007  0.99057  Biso   1.000  H
  C62      1.0000 0.63553  0.45277  0.98977  Biso   1.000  C
  H42      1.0000 0.67553  0.47377  0.98637  Biso   1.000  H
  C63      1.0000 0.40363  0.41437  0.78257  Biso   1.000  C
  N22      1.0000 0.22510  0.33300  0.18130  Biso   1.000  N
  C64      1.0000 0.18670  0.45770  0.32460  Biso   1.000  C
  H43      1.0000 0.14660  0.43770  0.32390  Biso   1.000  H
  C65      1.0000 0.21390  0.51610  0.32310  Biso   1.000  C
  H44      1.0000 0.19290  0.53510  0.31970  Biso   1.000  H
  C66      1.0000 0.25230  0.32260  0.11590  Biso   1.000  C
  N23      1.0000 0.89177  0.66633  0.51463  Biso   1.000  N
  C67      1.0000 0.85337  0.79103  0.65793  Biso   1.000  C
  H45      1.0000 0.81327  0.77103  0.65723  Biso   1.000  H
  C68      1.0000 0.88057  0.84943  0.65643  Biso   1.000  C
  H46      1.0000 0.85957  0.86843  0.65303  Biso   1.000  H
  C69      1.0000 0.91897  0.65593  0.44923  Biso   1.000  C
  N24      1.0000 0.55843  0.99967  0.84797  Biso   1.000  N
  C70      1.0000 0.52003  0.12437  0.99127  Biso   1.000  C
  H47      1.0000 0.47993  0.10437  0.99057  Biso   1.000  H
  C71      1.0000 0.54723  0.18277  0.98977  Biso   1.000  C
  H48      1.0000 0.52623  0.20177  0.98637  Biso   1.000  H
  C72      1.0000 0.58563  0.98927  0.78257  Biso   1.000  C
  N25      1.0000 0.66700  0.89210  0.18130  Biso   1.000  N
  C73      1.0000 0.54230  0.72900  0.32460  Biso   1.000  C
  H49      1.0000 0.56230  0.70890  0.32390  Biso   1.000  H
  C74      1.0000 0.48390  0.69780  0.32310  Biso   1.000  C
  H50      1.0000 0.46490  0.65780  0.31970  Biso   1.000  H
  C75      1.0000 0.67740  0.92970  0.11590  Biso   1.000  C
  N26      1.0000 0.33367  0.22543  0.51463  Biso   1.000  N
  C76      1.0000 0.20897  0.06233  0.65793  Biso   1.000  C
  H51      1.0000 0.22897  0.04223  0.65723  Biso   1.000  H
  C77      1.0000 0.15057  0.03113  0.65643  Biso   1.000  C
  H52      1.0000 0.13157  0.99113  0.65303  Biso   1.000  H
  C78      1.0000 0.34407  0.26303  0.44923  Biso   1.000  C
  N27      1.0000 0.00033  0.55877  0.84797  Biso   1.000  N
  C79      1.0000 0.87563  0.39567  0.99127  Biso   1.000  C
  H53      1.0000 0.89563  0.37557  0.99057  Biso   1.000  H
  C80      1.0000 0.81723  0.36447  0.98977  Biso   1.000  C
  H54      1.0000 0.79823  0.32447  0.98637  Biso   1.000  H
  C81      1.0000 0.01073  0.59637  0.78257  Biso   1.000  C
  N28      1.0000 0.77490  0.10790  0.81870  Biso   1.000  N
  C82      1.0000 0.81330  0.27100  0.67540  Biso   1.000  C
  H55      1.0000 0.85340  0.29110  0.67610  Biso   1.000  H
  C83      1.0000 0.78610  0.30220  0.67690  Biso   1.000  C
  H56      1.0000 0.80710  0.34220  0.68030  Biso   1.000  H
  C84      1.0000 0.74770  0.07030  0.88410  Biso   1.000  C
  N29      1.0000 0.44157  0.44123  0.15203  Biso   1.000  N
  C85      1.0000 0.47997  0.60433  0.00873  Biso   1.000  C
  H57      1.0000 0.52007  0.62443  0.00943  Biso   1.000  H
  C86      1.0000 0.45277  0.63553  0.01023  Biso   1.000  C
  H58      1.0000 0.47377  0.67553  0.01363  Biso   1.000  H
  C87      1.0000 0.41437  0.40363  0.21743  Biso   1.000  C
  N30      1.0000 0.10823  0.77457  0.48537  Biso   1.000  N
  C88      1.0000 0.14663  0.93767  0.34207  Biso   1.000  C
  H59      1.0000 0.18673  0.95777  0.34277  Biso   1.000  H
  C89      1.0000 0.11943  0.96887  0.34357  Biso   1.000  C
  H60      1.0000 0.14043  0.00887  0.34697  Biso   1.000  H
  C90      1.0000 0.08103  0.73697  0.55077  Biso   1.000  C
  N31      1.0000 0.33300  0.22510  0.81870  Biso   1.000  N
  C91      1.0000 0.45770  0.18670  0.67540  Biso   1.000  C
  H61      1.0000 0.43770  0.14660  0.67610  Biso   1.000  H
  C92      1.0000 0.51610  0.21390  0.67690  Biso   1.000  C
  H62      1.0000 0.53510  0.19290  0.68030  Biso   1.000  H
  C93      1.0000 0.32260  0.25230  0.88410  Biso   1.000  C
  N32      1.0000 0.99967  0.55843  0.15203  Biso   1.000  N
  C94      1.0000 0.12437  0.52003  0.00873  Biso   1.000  C
  H63      1.0000 0.10437  0.47993  0.00943  Biso   1.000  H
  C95      1.0000 0.18277  0.54723  0.01023  Biso   1.000  C
  H64      1.0000 0.20177  0.52623  0.01363  Biso   1.000  H
  C96      1.0000 0.98927  0.58563  0.21743  Biso   1.000  C
  N33      1.0000 0.66633  0.89177  0.48537  Biso   1.000  N
  C97      1.0000 0.79103  0.85337  0.34207  Biso   1.000  C
  H65      1.0000 0.77103  0.81327  0.34277  Biso   1.000  H
  C98      1.0000 0.84943  0.88057  0.34357  Biso   1.000  C
  H66      1.0000 0.86843  0.85957  0.34697  Biso   1.000  H
  C99      1.0000 0.65593  0.91897  0.55077  Biso   1.000  C
  N34      1.0000 0.89210  0.66700  0.81870  Biso   1.000  N
  C100     1.0000 0.72900  0.54230  0.67540  Biso   1.000  C
  H67      1.0000 0.70890  0.56230  0.67610  Biso   1.000  H
  C101     1.0000 0.69780  0.48390  0.67690  Biso   1.000  C
  H68      1.0000 0.65780  0.46490  0.68030  Biso   1.000  H
  C102     1.0000 0.92970  0.67740  0.88410  Biso   1.000  C
  N35      1.0000 0.55877  0.00033  0.15203  Biso   1.000  N
  C103     1.0000 0.39567  0.87563  0.00873  Biso   1.000  C
  H69      1.0000 0.37557  0.89563  0.00943  Biso   1.000  H
  C104     1.0000 0.36447  0.81723  0.01023  Biso   1.000  C
  H70      1.0000 0.32447  0.79823  0.01363  Biso   1.000  H
  C105     1.0000 0.59637  0.01073  0.21743  Biso   1.000  C
  N36      1.0000 0.22543  0.33367  0.48537  Biso   1.000  N
  C106     1.0000 0.06233  0.20897  0.34207  Biso   1.000  C
  H71      1.0000 0.04223  0.22897  0.34277  Biso   1.000  H
  C107     1.0000 0.03113  0.15057  0.34357  Biso   1.000  C
  H72      1.0000 0.99113  0.13157  0.34697  Biso   1.000  H
  C108     1.0000 0.26303  0.34407  0.55077  Biso   1.000  C
  N37      1.0000 0.63635  0.27270  0.67000  Biso   1.000  N
  N38      1.0000 0.30302  0.60603  0.00333  Biso   1.000  N
  N39      1.0000 0.96968  0.93937  0.33667  Biso   1.000  N
  N40      1.0000 0.72730  0.36365  0.67000  Biso   1.000  N
  N41      1.0000 0.39397  0.69698  0.00333  Biso   1.000  N
  N42      1.0000 0.06063  0.03032  0.33667  Biso   1.000  N
  N43      1.0000 0.63635  0.36365  0.67000  Biso   1.000  N
  N44      1.0000 0.30302  0.69698  0.00333  Biso   1.000  N
  N45      1.0000 0.96968  0.03032  0.33667  Biso   1.000  N
  N46      1.0000 0.27270  0.63635  0.33000  Biso   1.000  N
  N47      1.0000 0.93937  0.96968  0.66333  Biso   1.000  N
  N48      1.0000 0.60603  0.30302  0.99667  Biso   1.000  N
  N49      1.0000 0.36365  0.72730  0.33000  Biso   1.000  N
  N50      1.0000 0.03032  0.06063  0.66333  Biso   1.000  N
  N51      1.0000 0.69698  0.39397  0.99667  Biso   1.000  N
  N52      1.0000 0.36365  0.63635  0.33000  Biso   1.000  N
  N53      1.0000 0.03032  0.96968  0.66333  Biso   1.000  N
  N54      1.0000 0.69698  0.30302  0.99667  Biso   1.000  N
  Au1      1.0000 0.00000  0.29173  0.00000  Biso   1.000  Au
  Au2      1.0000 0.66667  0.62506  0.33333  Biso   1.000  Au
  Au3      1.0000 0.33333  0.95840  0.66667  Biso   1.000  Au
  Au4      1.0000 0.70827  0.70827  0.00000  Biso   1.000  Au
  Au5      1.0000 0.37494  0.04160  0.33333  Biso   1.000  Au
  Au6      1.0000 0.04160  0.37494  0.66667  Biso   1.000  Au
  Au7      1.0000 0.29173  0.00000  0.00000  Biso   1.000  Au
  Au8      1.0000 0.95840  0.33333  0.33333  Biso   1.000  Au
  Au9      1.0000 0.62506  0.66667  0.66667  Biso   1.000  Au
  Au10     1.0000 0.00000  0.70827  0.00000  Biso   1.000  Au
  Au11     1.0000 0.66667  0.04160  0.33333  Biso   1.000  Au
  Au12     1.0000 0.33333  0.37494  0.66667  Biso   1.000  Au
  Au13     1.0000 0.29173  0.29173  0.00000  Biso   1.000  Au
  Au14     1.0000 0.95840  0.62506  0.33333  Biso   1.000  Au
  Au15     1.0000 0.62506  0.95840  0.66667  Biso   1.000  Au
  Au16     1.0000 0.70827  0.00000  0.00000  Biso   1.000  Au
  Au17     1.0000 0.37494  0.33333  0.33333  Biso   1.000  Au
  Au18     1.0000 0.04160  0.66667  0.66667  Biso   1.000  Au
  Fe1      1.0000 0.83333  0.16667  0.66667  Biso   1.000  Fe
  Fe2      1.0000 0.50000  0.50000  0.00000  Biso   1.000  Fe
  Fe3      1.0000 0.83333  0.66667  0.66667  Biso   1.000  Fe
  Fe4      1.0000 0.50000  0.00000  0.00000  Biso   1.000  Fe
  Fe5      1.0000 0.33333  0.16667  0.66667  Biso   1.000  Fe
  Fe6      1.0000 0.00000  0.50000  0.00000  Biso   1.000  Fe
  Fe7      1.0000 0.16667  0.83333  0.33333  Biso   1.000  Fe
  Fe8      1.0000 0.66667  0.83333  0.33333  Biso   1.000  Fe
  Fe9      1.0000 0.16667  0.33333  0.33333  Biso   1.000  Fe
  N55      1.0000 0.78660  0.21340  0.67290  Biso   1.000  N
  C109     1.0000 0.72670  0.27330  0.67340  Biso   1.000  C
  C110     1.0000 0.69500  0.30500  0.67400  Biso   1.000  C
  N56      1.0000 0.45327  0.54673  0.00623  Biso   1.000  N
  C111     1.0000 0.39337  0.60663  0.00673  Biso   1.000  C
  C112     1.0000 0.36167  0.63833  0.00733  Biso   1.000  C
  N57      1.0000 0.11993  0.88007  0.33957  Biso   1.000  N
  C113     1.0000 0.06003  0.93997  0.34007  Biso   1.000  C
  C114     1.0000 0.02833  0.97167  0.34067  Biso   1.000  C
  N58      1.0000 0.78660  0.57320  0.67290  Biso   1.000  N
  C115     1.0000 0.72670  0.45340  0.67340  Biso   1.000  C
  C116     1.0000 0.69500  0.39000  0.67400  Biso   1.000  C
  N59      1.0000 0.45327  0.90653  0.00623  Biso   1.000  N
  C117     1.0000 0.39337  0.78673  0.00673  Biso   1.000  C
  C118     1.0000 0.36167  0.72333  0.00733  Biso   1.000  C
  N60      1.0000 0.11993  0.23987  0.33957  Biso   1.000  N
  C119     1.0000 0.06003  0.12007  0.34007  Biso   1.000  C
  C120     1.0000 0.02833  0.05667  0.34067  Biso   1.000  C
  N61      1.0000 0.42680  0.21340  0.67290  Biso   1.000  N
  C121     1.0000 0.54660  0.27330  0.67340  Biso   1.000  C
  C122     1.0000 0.61000  0.30500  0.67400  Biso   1.000  C
  N62      1.0000 0.09347  0.54673  0.00623  Biso   1.000  N
  C123     1.0000 0.21327  0.60663  0.00673  Biso   1.000  C
  C124     1.0000 0.27667  0.63833  0.00733  Biso   1.000  C
  N63      1.0000 0.76013  0.88007  0.33957  Biso   1.000  N
  C125     1.0000 0.87993  0.93997  0.34007  Biso   1.000  C
  C126     1.0000 0.94333  0.97167  0.34067  Biso   1.000  C
  N64      1.0000 0.21340  0.78660  0.32710  Biso   1.000  N
  C127     1.0000 0.27330  0.72670  0.32660  Biso   1.000  C
  C128     1.0000 0.30500  0.69500  0.32600  Biso   1.000  C
  N65      1.0000 0.88007  0.11993  0.66043  Biso   1.000  N
  C129     1.0000 0.93997  0.06003  0.65993  Biso   1.000  C
  C130     1.0000 0.97167  0.02833  0.65933  Biso   1.000  C
  N66      1.0000 0.54673  0.45327  0.99377  Biso   1.000  N
  C131     1.0000 0.60663  0.39337  0.99327  Biso   1.000  C
  C132     1.0000 0.63833  0.36167  0.99267  Biso   1.000  C
  N67      1.0000 0.57320  0.78660  0.32710  Biso   1.000  N
  C133     1.0000 0.45340  0.72670  0.32660  Biso   1.000  C
  C134     1.0000 0.39000  0.69500  0.32600  Biso   1.000  C
  N68      1.0000 0.23987  0.11993  0.66043  Biso   1.000  N
  C135     1.0000 0.12007  0.06003  0.65993  Biso   1.000  C
  C136     1.0000 0.05667  0.02833  0.65933  Biso   1.000  C
  N69      1.0000 0.90653  0.45327  0.99377  Biso   1.000  N
  C137     1.0000 0.78673  0.39337  0.99327  Biso   1.000  C
  C138     1.0000 0.72333  0.36167  0.99267  Biso   1.000  C
  N70      1.0000 0.21340  0.42680  0.32710  Biso   1.000  N
  C139     1.0000 0.27330  0.54660  0.32660  Biso   1.000  C
  C140     1.0000 0.30500  0.61000  0.32600  Biso   1.000  C
  N71      1.0000 0.88007  0.76013  0.66043  Biso   1.000  N
  C141     1.0000 0.93997  0.87993  0.65993  Biso   1.000  C
  C142     1.0000 0.97167  0.94333  0.65933  Biso   1.000  C
  N72      1.0000 0.54673  0.09347  0.99377  Biso   1.000  N
  C143     1.0000 0.60663  0.21327  0.99327  Biso   1.000  C
  C144     1.0000 0.63833  0.27667  0.99267  Biso   1.000  C
