data_image0
_cell_length_a       26.4013
_cell_length_b       26.4013
_cell_length_c       9.6662
_cell_angle_alpha    90
_cell_angle_beta     90
_cell_angle_gamma    120

_symmetry_space_group_name_H-M    "P 1"
_symmetry_int_tables_number       1

loop_
  _symmetry_equiv_pos_as_xyz
  'x, y, z'

loop_
  _atom_site_label
  _atom_site_occupancy
  _atom_site_fract_x
  _atom_site_fract_y
  _atom_site_fract_z
  _atom_site_thermal_displace_type
  _atom_site_B_iso_or_equiv
  _atom_site_type_symbol
  C1       1.0000 0.32290  0.25120  0.88420  Biso   1.000  C
  N1       1.0000 0.33130  0.22160  0.81350  Biso   1.000  N
  C2       1.0000 0.45350  0.18410  0.67600  Biso   1.000  C
  H1       1.0000 0.43320  0.14350  0.68060  Biso   1.000  H
  C3       1.0000 0.51310  0.21180  0.67200  Biso   1.000  C
  H2       1.0000 0.53230  0.19040  0.66830  Biso   1.000  H
  C4       1.0000 0.98957  0.58453  0.21753  Biso   1.000  C
  N2       1.0000 0.99797  0.55493  0.14683  Biso   1.000  N
  C5       1.0000 0.12017  0.51743  0.00933  Biso   1.000  C
  H3       1.0000 0.09987  0.47683  0.01393  Biso   1.000  H
  C6       1.0000 0.17977  0.54513  0.00533  Biso   1.000  C
  H4       1.0000 0.19897  0.52373  0.00163  Biso   1.000  H
  C7       1.0000 0.65623  0.91787  0.55087  Biso   1.000  C
  N3       1.0000 0.66463  0.88827  0.48017  Biso   1.000  N
  C8       1.0000 0.78683  0.85077  0.34267  Biso   1.000  C
  H5       1.0000 0.76653  0.81017  0.34727  Biso   1.000  H
  C9       1.0000 0.84643  0.87847  0.33867  Biso   1.000  C
  H6       1.0000 0.86563  0.85707  0.33497  Biso   1.000  H
  C10      1.0000 0.74880  0.07170  0.88420  Biso   1.000  C
  N4       1.0000 0.77840  0.10970  0.81350  Biso   1.000  N
  C11      1.0000 0.81590  0.26940  0.67600  Biso   1.000  C
  H7       1.0000 0.85650  0.28970  0.68060  Biso   1.000  H
  C12      1.0000 0.78820  0.30130  0.67200  Biso   1.000  C
  H8       1.0000 0.80960  0.34190  0.66830  Biso   1.000  H
  C13      1.0000 0.41547  0.40503  0.21753  Biso   1.000  C
  N5       1.0000 0.44507  0.44303  0.14683  Biso   1.000  N
  C14      1.0000 0.48257  0.60273  0.00933  Biso   1.000  C
  H9       1.0000 0.52317  0.62303  0.01393  Biso   1.000  H
  C15      1.0000 0.45487  0.63463  0.00533  Biso   1.000  C
  H10      1.0000 0.47627  0.67523  0.00163  Biso   1.000  H
  C16      1.0000 0.08213  0.73837  0.55087  Biso   1.000  C
  N6       1.0000 0.11173  0.77637  0.48017  Biso   1.000  N
  C17      1.0000 0.14923  0.93607  0.34267  Biso   1.000  C
  H11      1.0000 0.18983  0.95637  0.34727  Biso   1.000  H
  C18      1.0000 0.12153  0.96797  0.33867  Biso   1.000  C
  H12      1.0000 0.14293  0.00857  0.33497  Biso   1.000  H
  C19      1.0000 0.92830  0.67710  0.88420  Biso   1.000  C
  N7       1.0000 0.89030  0.66870  0.81350  Biso   1.000  N
  C20      1.0000 0.73060  0.54650  0.67600  Biso   1.000  C
  H13      1.0000 0.71030  0.56680  0.68060  Biso   1.000  H
  C21      1.0000 0.69870  0.48690  0.67200  Biso   1.000  C
  H14      1.0000 0.65810  0.46770  0.66830  Biso   1.000  H
  C22      1.0000 0.59497  0.01043  0.21753  Biso   1.000  C
  N8       1.0000 0.55697  0.00203  0.14683  Biso   1.000  N
  C23      1.0000 0.39727  0.87983  0.00933  Biso   1.000  C
  H15      1.0000 0.37697  0.90013  0.01393  Biso   1.000  H
  C24      1.0000 0.36537  0.82023  0.00533  Biso   1.000  C
  H16      1.0000 0.32477  0.80103  0.00163  Biso   1.000  H
  C25      1.0000 0.26163  0.34377  0.55087  Biso   1.000  C
  N9       1.0000 0.22363  0.33537  0.48017  Biso   1.000  N
  C26      1.0000 0.06393  0.21317  0.34267  Biso   1.000  C
  H17      1.0000 0.04363  0.23347  0.34727  Biso   1.000  H
  C27      1.0000 0.03203  0.15357  0.33867  Biso   1.000  C
  H18      1.0000 0.99143  0.13437  0.33497  Biso   1.000  H
  C28      1.0000 0.25120  0.32290  0.11580  Biso   1.000  C
  N10      1.0000 0.22160  0.33130  0.18650  Biso   1.000  N
  C29      1.0000 0.18410  0.45350  0.32400  Biso   1.000  C
  H19      1.0000 0.14350  0.43320  0.31940  Biso   1.000  H
  C30      1.0000 0.21180  0.51310  0.32800  Biso   1.000  C
  H20      1.0000 0.19040  0.53230  0.33170  Biso   1.000  H
  C31      1.0000 0.91787  0.65623  0.44913  Biso   1.000  C
  N11      1.0000 0.88827  0.66463  0.51983  Biso   1.000  N
  C32      1.0000 0.85077  0.78683  0.65733  Biso   1.000  C
  H21      1.0000 0.81017  0.76653  0.65273  Biso   1.000  H
  C33      1.0000 0.87847  0.84643  0.66133  Biso   1.000  C
  H22      1.0000 0.85707  0.86563  0.66503  Biso   1.000  H
  C34      1.0000 0.58453  0.98957  0.78247  Biso   1.000  C
  N12      1.0000 0.55493  0.99797  0.85317  Biso   1.000  N
  C35      1.0000 0.51743  0.12017  0.99067  Biso   1.000  C
  H23      1.0000 0.47683  0.09987  0.98607  Biso   1.000  H
  C36      1.0000 0.54513  0.17977  0.99467  Biso   1.000  C
  H24      1.0000 0.52373  0.19897  0.99837  Biso   1.000  H
  C37      1.0000 0.07170  0.74880  0.11580  Biso   1.000  C
  N13      1.0000 0.10970  0.77840  0.18650  Biso   1.000  N
  C38      1.0000 0.26940  0.81590  0.32400  Biso   1.000  C
  H25      1.0000 0.28970  0.85650  0.31940  Biso   1.000  H
  C39      1.0000 0.30130  0.78820  0.32800  Biso   1.000  C
  H26      1.0000 0.34190  0.80960  0.33170  Biso   1.000  H
  C40      1.0000 0.73837  0.08213  0.44913  Biso   1.000  C
  N14      1.0000 0.77637  0.11173  0.51983  Biso   1.000  N
  C41      1.0000 0.93607  0.14923  0.65733  Biso   1.000  C
  H27      1.0000 0.95637  0.18983  0.65273  Biso   1.000  H
  C42      1.0000 0.96797  0.12153  0.66133  Biso   1.000  C
  H28      1.0000 0.00857  0.14293  0.66503  Biso   1.000  H
  C43      1.0000 0.40503  0.41547  0.78247  Biso   1.000  C
  N15      1.0000 0.44303  0.44507  0.85317  Biso   1.000  N
  C44      1.0000 0.60273  0.48257  0.99067  Biso   1.000  C
  H29      1.0000 0.62303  0.52317  0.98607  Biso   1.000  H
  C45      1.0000 0.63463  0.45487  0.99467  Biso   1.000  C
  H30      1.0000 0.67523  0.47627  0.99837  Biso   1.000  H
  C46      1.0000 0.67710  0.92830  0.11580  Biso   1.000  C
  N16      1.0000 0.66870  0.89030  0.18650  Biso   1.000  N
  C47      1.0000 0.54650  0.73060  0.32400  Biso   1.000  C
  H31      1.0000 0.56680  0.71030  0.31940  Biso   1.000  H
  C48      1.0000 0.48690  0.69870  0.32800  Biso   1.000  C
  H32      1.0000 0.46770  0.65810  0.33170  Biso   1.000  H
  C49      1.0000 0.34377  0.26163  0.44913  Biso   1.000  C
  N17      1.0000 0.33537  0.22363  0.51983  Biso   1.000  N
  C50      1.0000 0.21317  0.06393  0.65733  Biso   1.000  C
  H33      1.0000 0.23347  0.04363  0.65273  Biso   1.000  H
  C51      1.0000 0.15357  0.03203  0.66133  Biso   1.000  C
  H34      1.0000 0.13437  0.99143  0.66503  Biso   1.000  H
  C52      1.0000 0.01043  0.59497  0.78247  Biso   1.000  C
  N18      1.0000 0.00203  0.55697  0.85317  Biso   1.000  N
  C53      1.0000 0.87983  0.39727  0.99067  Biso   1.000  C
  H35      1.0000 0.90013  0.37697  0.98607  Biso   1.000  H
  C54      1.0000 0.82023  0.36537  0.99467  Biso   1.000  C
  H36      1.0000 0.80103  0.32477  0.99837  Biso   1.000  H
  C55      1.0000 0.67710  0.74880  0.11580  Biso   1.000  C
  N19      1.0000 0.66870  0.77840  0.18650  Biso   1.000  N
  C56      1.0000 0.54650  0.81590  0.32400  Biso   1.000  C
  H37      1.0000 0.56680  0.85650  0.31940  Biso   1.000  H
  C57      1.0000 0.48690  0.78820  0.32800  Biso   1.000  C
  H38      1.0000 0.46770  0.80960  0.33170  Biso   1.000  H
  C58      1.0000 0.34377  0.08213  0.44913  Biso   1.000  C
  N20      1.0000 0.33537  0.11173  0.51983  Biso   1.000  N
  C59      1.0000 0.21317  0.14923  0.65733  Biso   1.000  C
  H39      1.0000 0.23347  0.18983  0.65273  Biso   1.000  H
  C60      1.0000 0.15357  0.12153  0.66133  Biso   1.000  C
  H40      1.0000 0.13437  0.14293  0.66503  Biso   1.000  H
  C61      1.0000 0.01043  0.41547  0.78247  Biso   1.000  C
  N21      1.0000 0.00203  0.44507  0.85317  Biso   1.000  N
  C62      1.0000 0.87983  0.48257  0.99067  Biso   1.000  C
  H41      1.0000 0.90013  0.52317  0.98607  Biso   1.000  H
  C63      1.0000 0.82023  0.45487  0.99467  Biso   1.000  C
  H42      1.0000 0.80103  0.47627  0.99837  Biso   1.000  H
  C64      1.0000 0.25120  0.92830  0.11580  Biso   1.000  C
  N22      1.0000 0.22160  0.89030  0.18650  Biso   1.000  N
  C65      1.0000 0.18410  0.73060  0.32400  Biso   1.000  C
  H43      1.0000 0.14350  0.71030  0.31940  Biso   1.000  H
  C66      1.0000 0.21180  0.69870  0.32800  Biso   1.000  C
  H44      1.0000 0.19040  0.65810  0.33170  Biso   1.000  H
  C67      1.0000 0.91787  0.26163  0.44913  Biso   1.000  C
  N23      1.0000 0.88827  0.22363  0.51983  Biso   1.000  N
  C68      1.0000 0.85077  0.06393  0.65733  Biso   1.000  C
  H45      1.0000 0.81017  0.04363  0.65273  Biso   1.000  H
  C69      1.0000 0.87847  0.03203  0.66133  Biso   1.000  C
  H46      1.0000 0.85707  0.99143  0.66503  Biso   1.000  H
  C70      1.0000 0.58453  0.59497  0.78247  Biso   1.000  C
  N24      1.0000 0.55493  0.55697  0.85317  Biso   1.000  N
  C71      1.0000 0.51743  0.39727  0.99067  Biso   1.000  C
  H47      1.0000 0.47683  0.37697  0.98607  Biso   1.000  H
  C72      1.0000 0.54513  0.36537  0.99467  Biso   1.000  C
  H48      1.0000 0.52373  0.32477  0.99837  Biso   1.000  H
  C73      1.0000 0.07170  0.32290  0.11580  Biso   1.000  C
  N25      1.0000 0.10970  0.33130  0.18650  Biso   1.000  N
  C74      1.0000 0.26940  0.45350  0.32400  Biso   1.000  C
  H49      1.0000 0.28970  0.43320  0.31940  Biso   1.000  H
  C75      1.0000 0.30130  0.51310  0.32800  Biso   1.000  C
  H50      1.0000 0.34190  0.53230  0.33170  Biso   1.000  H
  C76      1.0000 0.73837  0.65623  0.44913  Biso   1.000  C
  N26      1.0000 0.77637  0.66463  0.51983  Biso   1.000  N
  C77      1.0000 0.93607  0.78683  0.65733  Biso   1.000  C
  H51      1.0000 0.95637  0.76653  0.65273  Biso   1.000  H
  C78      1.0000 0.96797  0.84643  0.66133  Biso   1.000  C
  H52      1.0000 0.00857  0.86563  0.66503  Biso   1.000  H
  C79      1.0000 0.40503  0.98957  0.78247  Biso   1.000  C
  N27      1.0000 0.44303  0.99797  0.85317  Biso   1.000  N
  C80      1.0000 0.60273  0.12017  0.99067  Biso   1.000  C
  H53      1.0000 0.62303  0.09987  0.98607  Biso   1.000  H
  C81      1.0000 0.63463  0.17977  0.99467  Biso   1.000  C
  H54      1.0000 0.67523  0.19897  0.99837  Biso   1.000  H
  C82      1.0000 0.74880  0.67710  0.88420  Biso   1.000  C
  N28      1.0000 0.77840  0.66870  0.81350  Biso   1.000  N
  C83      1.0000 0.81590  0.54650  0.67600  Biso   1.000  C
  H55      1.0000 0.85650  0.56680  0.68060  Biso   1.000  H
  C84      1.0000 0.78820  0.48690  0.67200  Biso   1.000  C
  H56      1.0000 0.80960  0.46770  0.66830  Biso   1.000  H
  C85      1.0000 0.41547  0.01043  0.21753  Biso   1.000  C
  N29      1.0000 0.44507  0.00203  0.14683  Biso   1.000  N
  C86      1.0000 0.48257  0.87983  0.00933  Biso   1.000  C
  H57      1.0000 0.52317  0.90013  0.01393  Biso   1.000  H
  C87      1.0000 0.45487  0.82023  0.00533  Biso   1.000  C
  H58      1.0000 0.47627  0.80103  0.00163  Biso   1.000  H
  C88      1.0000 0.08213  0.34377  0.55087  Biso   1.000  C
  N30      1.0000 0.11173  0.33537  0.48017  Biso   1.000  N
  C89      1.0000 0.14923  0.21317  0.34267  Biso   1.000  C
  H59      1.0000 0.18983  0.23347  0.34727  Biso   1.000  H
  C90      1.0000 0.12153  0.15357  0.33867  Biso   1.000  C
  H60      1.0000 0.14293  0.13437  0.33497  Biso   1.000  H
  C91      1.0000 0.92830  0.25120  0.88420  Biso   1.000  C
  N31      1.0000 0.89030  0.22160  0.81350  Biso   1.000  N
  C92      1.0000 0.73060  0.18410  0.67600  Biso   1.000  C
  H61      1.0000 0.71030  0.14350  0.68060  Biso   1.000  H
  C93      1.0000 0.69870  0.21180  0.67200  Biso   1.000  C
  H62      1.0000 0.65810  0.19040  0.66830  Biso   1.000  H
  C94      1.0000 0.59497  0.58453  0.21753  Biso   1.000  C
  N32      1.0000 0.55697  0.55493  0.14683  Biso   1.000  N
  C95      1.0000 0.39727  0.51743  0.00933  Biso   1.000  C
  H63      1.0000 0.37697  0.47683  0.01393  Biso   1.000  H
  C96      1.0000 0.36537  0.54513  0.00533  Biso   1.000  C
  H64      1.0000 0.32477  0.52373  0.00163  Biso   1.000  H
  C97      1.0000 0.26163  0.91787  0.55087  Biso   1.000  C
  N33      1.0000 0.22363  0.88827  0.48017  Biso   1.000  N
  C98      1.0000 0.06393  0.85077  0.34267  Biso   1.000  C
  H65      1.0000 0.04363  0.81017  0.34727  Biso   1.000  H
  C99      1.0000 0.03203  0.87847  0.33867  Biso   1.000  C
  H66      1.0000 0.99143  0.85707  0.33497  Biso   1.000  H
  C100     1.0000 0.32290  0.07170  0.88420  Biso   1.000  C
  N34      1.0000 0.33130  0.10970  0.81350  Biso   1.000  N
  C101     1.0000 0.45350  0.26940  0.67600  Biso   1.000  C
  H67      1.0000 0.43320  0.28970  0.68060  Biso   1.000  H
  C102     1.0000 0.51310  0.30130  0.67200  Biso   1.000  C
  H68      1.0000 0.53230  0.34190  0.66830  Biso   1.000  H
  C103     1.0000 0.98957  0.40503  0.21753  Biso   1.000  C
  N35      1.0000 0.99797  0.44303  0.14683  Biso   1.000  N
  C104     1.0000 0.12017  0.60273  0.00933  Biso   1.000  C
  H69      1.0000 0.09987  0.62303  0.01393  Biso   1.000  H
  C105     1.0000 0.17977  0.63463  0.00533  Biso   1.000  C
  H70      1.0000 0.19897  0.67523  0.00163  Biso   1.000  H
  C106     1.0000 0.65623  0.73837  0.55087  Biso   1.000  C
  N36      1.0000 0.66463  0.77637  0.48017  Biso   1.000  N
  C107     1.0000 0.78683  0.93607  0.34267  Biso   1.000  C
  H71      1.0000 0.76653  0.95637  0.34727  Biso   1.000  H
  C108     1.0000 0.84643  0.96797  0.33867  Biso   1.000  C
  H72      1.0000 0.86563  0.00857  0.33497  Biso   1.000  H
  Au1      1.0000 0.29228  0.29228  0.00000  Biso   1.000  Au
  Au2      1.0000 0.95895  0.62561  0.33333  Biso   1.000  Au
  Au3      1.0000 0.62561  0.95895  0.66667  Biso   1.000  Au
  Au4      1.0000 0.70772  0.00000  0.00000  Biso   1.000  Au
  Au5      1.0000 0.37439  0.33333  0.33333  Biso   1.000  Au
  Au6      1.0000 0.04105  0.66667  0.66667  Biso   1.000  Au
  Au7      1.0000 0.00000  0.70772  0.00000  Biso   1.000  Au
  Au8      1.0000 0.66667  0.04105  0.33333  Biso   1.000  Au
  Au9      1.0000 0.33333  0.37439  0.66667  Biso   1.000  Au
  Au10     1.0000 0.70772  0.70772  0.00000  Biso   1.000  Au
  Au11     1.0000 0.37439  0.04105  0.33333  Biso   1.000  Au
  Au12     1.0000 0.04105  0.37439  0.66667  Biso   1.000  Au
  Au13     1.0000 0.29228  0.00000  0.00000  Biso   1.000  Au
  Au14     1.0000 0.95895  0.33333  0.33333  Biso   1.000  Au
  Au15     1.0000 0.62561  0.66667  0.66667  Biso   1.000  Au
  Au16     1.0000 0.00000  0.29228  0.00000  Biso   1.000  Au
  Au17     1.0000 0.66667  0.62561  0.33333  Biso   1.000  Au
  Au18     1.0000 0.33333  0.95895  0.66667  Biso   1.000  Au
  Fe1      1.0000 0.33333  0.16667  0.66667  Biso   1.000  Fe
  Fe2      1.0000 0.00000  0.50000  0.00000  Biso   1.000  Fe
  Fe3      1.0000 0.83333  0.16667  0.66667  Biso   1.000  Fe
  Fe4      1.0000 0.50000  0.50000  0.00000  Biso   1.000  Fe
  Fe5      1.0000 0.83333  0.66667  0.66667  Biso   1.000  Fe
  Fe6      1.0000 0.50000  0.00000  0.00000  Biso   1.000  Fe
  Fe7      1.0000 0.16667  0.33333  0.33333  Biso   1.000  Fe
  Fe8      1.0000 0.16667  0.83333  0.33333  Biso   1.000  Fe
  Fe9      1.0000 0.66667  0.83333  0.33333  Biso   1.000  Fe
  N37      1.0000 0.42240  0.21120  0.67300  Biso   1.000  N
  C109     1.0000 0.54440  0.27220  0.67400  Biso   1.000  C
  C110     1.0000 0.60870  0.30435  0.67300  Biso   1.000  C
  N38      1.0000 0.08907  0.54453  0.00633  Biso   1.000  N
  C111     1.0000 0.21107  0.60553  0.00733  Biso   1.000  C
  C112     1.0000 0.27537  0.63768  0.00633  Biso   1.000  C
  N39      1.0000 0.75573  0.87787  0.33967  Biso   1.000  N
  C113     1.0000 0.87773  0.93887  0.34067  Biso   1.000  C
  C114     1.0000 0.94203  0.97102  0.33967  Biso   1.000  C
  N40      1.0000 0.78880  0.21120  0.67300  Biso   1.000  N
  C115     1.0000 0.72780  0.27220  0.67400  Biso   1.000  C
  C116     1.0000 0.69565  0.30435  0.67300  Biso   1.000  C
  N41      1.0000 0.45547  0.54453  0.00633  Biso   1.000  N
  C117     1.0000 0.39447  0.60553  0.00733  Biso   1.000  C
  C118     1.0000 0.36232  0.63768  0.00633  Biso   1.000  C
  N42      1.0000 0.12213  0.87787  0.33967  Biso   1.000  N
  C119     1.0000 0.06113  0.93887  0.34067  Biso   1.000  C
  C120     1.0000 0.02898  0.97102  0.33967  Biso   1.000  C
  N43      1.0000 0.78880  0.57760  0.67300  Biso   1.000  N
  C121     1.0000 0.72780  0.45560  0.67400  Biso   1.000  C
  C122     1.0000 0.69565  0.39130  0.67300  Biso   1.000  C
  N44      1.0000 0.45547  0.91093  0.00633  Biso   1.000  N
  C123     1.0000 0.39447  0.78893  0.00733  Biso   1.000  C
  C124     1.0000 0.36232  0.72463  0.00633  Biso   1.000  C
  N45      1.0000 0.12213  0.24427  0.33967  Biso   1.000  N
  C125     1.0000 0.06113  0.12227  0.34067  Biso   1.000  C
  C126     1.0000 0.02898  0.05797  0.33967  Biso   1.000  C
  N46      1.0000 0.21120  0.42240  0.32700  Biso   1.000  N
  C127     1.0000 0.27220  0.54440  0.32600  Biso   1.000  C
  C128     1.0000 0.30435  0.60870  0.32700  Biso   1.000  C
  N47      1.0000 0.87787  0.75573  0.66033  Biso   1.000  N
  C129     1.0000 0.93887  0.87773  0.65933  Biso   1.000  C
  C130     1.0000 0.97102  0.94203  0.66033  Biso   1.000  C
  N48      1.0000 0.54453  0.08907  0.99367  Biso   1.000  N
  C131     1.0000 0.60553  0.21107  0.99267  Biso   1.000  C
  C132     1.0000 0.63768  0.27537  0.99367  Biso   1.000  C
  N49      1.0000 0.21120  0.78880  0.32700  Biso   1.000  N
  C133     1.0000 0.27220  0.72780  0.32600  Biso   1.000  C
  C134     1.0000 0.30435  0.69565  0.32700  Biso   1.000  C
  N50      1.0000 0.87787  0.12213  0.66033  Biso   1.000  N
  C135     1.0000 0.93887  0.06113  0.65933  Biso   1.000  C
  C136     1.0000 0.97102  0.02898  0.66033  Biso   1.000  C
  N51      1.0000 0.54453  0.45547  0.99367  Biso   1.000  N
  C137     1.0000 0.60553  0.39447  0.99267  Biso   1.000  C
  C138     1.0000 0.63768  0.36232  0.99367  Biso   1.000  C
  N52      1.0000 0.57760  0.78880  0.32700  Biso   1.000  N
  C139     1.0000 0.45560  0.72780  0.32600  Biso   1.000  C
  C140     1.0000 0.39130  0.69565  0.32700  Biso   1.000  C
  N53      1.0000 0.24427  0.12213  0.66033  Biso   1.000  N
  C141     1.0000 0.12227  0.06113  0.65933  Biso   1.000  C
  C142     1.0000 0.05797  0.02898  0.66033  Biso   1.000  C
  N54      1.0000 0.91093  0.45547  0.99367  Biso   1.000  N
  C143     1.0000 0.78893  0.39447  0.99267  Biso   1.000  C
  C144     1.0000 0.72463  0.36232  0.99367  Biso   1.000  C
  N55      1.0000 0.63640  0.36360  0.67000  Biso   1.000  N
  N56      1.0000 0.30307  0.69693  0.00333  Biso   1.000  N
  N57      1.0000 0.96973  0.03027  0.33667  Biso   1.000  N
  N58      1.0000 0.63640  0.27280  0.67000  Biso   1.000  N
  N59      1.0000 0.30307  0.60613  0.00333  Biso   1.000  N
  N60      1.0000 0.96973  0.93947  0.33667  Biso   1.000  N
  N61      1.0000 0.72720  0.36360  0.67000  Biso   1.000  N
  N62      1.0000 0.39387  0.69693  0.00333  Biso   1.000  N
  N63      1.0000 0.06053  0.03027  0.33667  Biso   1.000  N
  N64      1.0000 0.36360  0.63640  0.33000  Biso   1.000  N
  N65      1.0000 0.03027  0.96973  0.66333  Biso   1.000  N
  N66      1.0000 0.69693  0.30307  0.99667  Biso   1.000  N
  N67      1.0000 0.27280  0.63640  0.33000  Biso   1.000  N
  N68      1.0000 0.93947  0.96973  0.66333  Biso   1.000  N
  N69      1.0000 0.60613  0.30307  0.99667  Biso   1.000  N
  N70      1.0000 0.36360  0.72720  0.33000  Biso   1.000  N
  N71      1.0000 0.03027  0.06053  0.66333  Biso   1.000  N
  N72      1.0000 0.69693  0.39387  0.99667  Biso   1.000  N
