data_image0
_cell_length_a       26.852
_cell_length_b       26.852
_cell_length_c       9.6735
_cell_angle_alpha    90
_cell_angle_beta     90
_cell_angle_gamma    120

_symmetry_space_group_name_H-M    "P 1"
_symmetry_int_tables_number       1

loop_
  _symmetry_equiv_pos_as_xyz
  'x, y, z'

loop_
  _atom_site_label
  _atom_site_occupancy
  _atom_site_fract_x
  _atom_site_fract_y
  _atom_site_fract_z
  _atom_site_thermal_displace_type
  _atom_site_B_iso_or_equiv
  _atom_site_type_symbol
  N1       1.0000 0.55770  0.99930  0.15140  Biso   1.000  N
  C1       1.0000 0.48150  0.87630  0.99400  Biso   1.000  C
  H1       1.0000 0.52150  0.89650  0.99000  Biso   1.000  H
  C2       1.0000 0.45320  0.81780  0.99900  Biso   1.000  C
  H2       1.0000 0.47450  0.79910  0.99870  Biso   1.000  H
  C3       1.0000 0.59700  0.01040  0.22000  Biso   1.000  C
  N2       1.0000 0.22437  0.33263  0.48473  Biso   1.000  N
  C4       1.0000 0.14817  0.20963  0.32733  Biso   1.000  C
  H3       1.0000 0.18817  0.22983  0.32333  Biso   1.000  H
  C5       1.0000 0.11987  0.15113  0.33233  Biso   1.000  C
  H4       1.0000 0.14117  0.13243  0.33203  Biso   1.000  H
  C6       1.0000 0.26367  0.34373  0.55333  Biso   1.000  C
  N3       1.0000 0.89103  0.66597  0.81807  Biso   1.000  N
  C7       1.0000 0.81483  0.54297  0.66067  Biso   1.000  C
  H5       1.0000 0.85483  0.56317  0.65667  Biso   1.000  H
  C8       1.0000 0.78653  0.48447  0.66567  Biso   1.000  C
  H6       1.0000 0.80783  0.46577  0.66537  Biso   1.000  H
  C9       1.0000 0.93033  0.67707  0.88667  Biso   1.000  C
  N4       1.0000 0.00070  0.55840  0.15140  Biso   1.000  N
  C10      1.0000 0.12370  0.60520  0.99400  Biso   1.000  C
  H7       1.0000 0.10350  0.62500  0.99000  Biso   1.000  H
  C11      1.0000 0.18220  0.63540  0.99900  Biso   1.000  C
  H8       1.0000 0.20090  0.67540  0.99870  Biso   1.000  H
  C12      1.0000 0.98960  0.58660  0.22000  Biso   1.000  C
  N5       1.0000 0.66737  0.89173  0.48473  Biso   1.000  N
  C13      1.0000 0.79037  0.93853  0.32733  Biso   1.000  C
  H9       1.0000 0.77017  0.95833  0.32333  Biso   1.000  H
  C14      1.0000 0.84887  0.96873  0.33233  Biso   1.000  C
  H10      1.0000 0.86757  0.00873  0.33203  Biso   1.000  H
  C15      1.0000 0.65627  0.91993  0.55333  Biso   1.000  C
  N6       1.0000 0.33403  0.22507  0.81807  Biso   1.000  N
  C16      1.0000 0.45703  0.27187  0.66067  Biso   1.000  C
  H11      1.0000 0.43683  0.29167  0.65667  Biso   1.000  H
  C17      1.0000 0.51553  0.30207  0.66567  Biso   1.000  C
  H12      1.0000 0.53423  0.34207  0.66537  Biso   1.000  H
  C18      1.0000 0.32293  0.25327  0.88667  Biso   1.000  C
  N7       1.0000 0.44160  0.44230  0.15140  Biso   1.000  N
  C19      1.0000 0.39480  0.51850  0.99400  Biso   1.000  C
  H13      1.0000 0.37500  0.47850  0.99000  Biso   1.000  H
  C20      1.0000 0.36460  0.54680  0.99900  Biso   1.000  C
  H14      1.0000 0.32460  0.52550  0.99870  Biso   1.000  H
  C21      1.0000 0.41340  0.40300  0.22000  Biso   1.000  C
  N8       1.0000 0.10827  0.77563  0.48473  Biso   1.000  N
  C22      1.0000 0.06147  0.85183  0.32733  Biso   1.000  C
  H15      1.0000 0.04167  0.81183  0.32333  Biso   1.000  H
  C23      1.0000 0.03127  0.88013  0.33233  Biso   1.000  C
  H16      1.0000 0.99127  0.85883  0.33203  Biso   1.000  H
  C24      1.0000 0.08007  0.73633  0.55333  Biso   1.000  C
  N9       1.0000 0.77493  0.10897  0.81807  Biso   1.000  N
  C25      1.0000 0.72813  0.18517  0.66067  Biso   1.000  C
  H17      1.0000 0.70833  0.14517  0.65667  Biso   1.000  H
  C26      1.0000 0.69793  0.21347  0.66567  Biso   1.000  C
  H18      1.0000 0.65793  0.19217  0.66537  Biso   1.000  H
  C27      1.0000 0.74673  0.06967  0.88667  Biso   1.000  C
  N10      1.0000 0.99930  0.55770  0.84860  Biso   1.000  N
  C28      1.0000 0.87630  0.48150  0.00600  Biso   1.000  C
  H19      1.0000 0.89650  0.52150  0.01000  Biso   1.000  H
  C29      1.0000 0.81780  0.45320  0.00100  Biso   1.000  C
  H20      1.0000 0.79910  0.47450  0.00130  Biso   1.000  H
  C30      1.0000 0.01040  0.59700  0.78000  Biso   1.000  C
  N11      1.0000 0.66597  0.89103  0.18193  Biso   1.000  N
  C31      1.0000 0.54297  0.81483  0.33933  Biso   1.000  C
  H21      1.0000 0.56317  0.85483  0.34333  Biso   1.000  H
  C32      1.0000 0.48447  0.78653  0.33433  Biso   1.000  C
  H22      1.0000 0.46577  0.80783  0.33463  Biso   1.000  H
  C33      1.0000 0.67707  0.93033  0.11333  Biso   1.000  C
  N12      1.0000 0.33263  0.22437  0.51527  Biso   1.000  N
  C34      1.0000 0.20963  0.14817  0.67267  Biso   1.000  C
  H23      1.0000 0.22983  0.18817  0.67667  Biso   1.000  H
  C35      1.0000 0.15113  0.11987  0.66767  Biso   1.000  C
  H24      1.0000 0.13243  0.14117  0.66797  Biso   1.000  H
  C36      1.0000 0.34373  0.26367  0.44667  Biso   1.000  C
  N13      1.0000 0.55840  0.00070  0.84860  Biso   1.000  N
  C37      1.0000 0.60520  0.12370  0.00600  Biso   1.000  C
  H25      1.0000 0.62500  0.10350  0.01000  Biso   1.000  H
  C38      1.0000 0.63540  0.18220  0.00100  Biso   1.000  C
  H26      1.0000 0.67540  0.20090  0.00130  Biso   1.000  H
  C39      1.0000 0.58660  0.98960  0.78000  Biso   1.000  C
  N14      1.0000 0.22507  0.33403  0.18193  Biso   1.000  N
  C40      1.0000 0.27187  0.45703  0.33933  Biso   1.000  C
  H27      1.0000 0.29167  0.43683  0.34333  Biso   1.000  H
  C41      1.0000 0.30207  0.51553  0.33433  Biso   1.000  C
  H28      1.0000 0.34207  0.53423  0.33463  Biso   1.000  H
  C42      1.0000 0.25327  0.32293  0.11333  Biso   1.000  C
  N15      1.0000 0.89173  0.66737  0.51527  Biso   1.000  N
  C43      1.0000 0.93853  0.79037  0.67267  Biso   1.000  C
  H29      1.0000 0.95833  0.77017  0.67667  Biso   1.000  H
  C44      1.0000 0.96873  0.84887  0.66767  Biso   1.000  C
  H30      1.0000 0.00873  0.86757  0.66797  Biso   1.000  H
  C45      1.0000 0.91993  0.65627  0.44667  Biso   1.000  C
  N16      1.0000 0.44230  0.44160  0.84860  Biso   1.000  N
  C46      1.0000 0.51850  0.39480  0.00600  Biso   1.000  C
  H31      1.0000 0.47850  0.37500  0.01000  Biso   1.000  H
  C47      1.0000 0.54680  0.36460  0.00100  Biso   1.000  C
  H32      1.0000 0.52550  0.32460  0.00130  Biso   1.000  H
  C48      1.0000 0.40300  0.41340  0.78000  Biso   1.000  C
  N17      1.0000 0.10897  0.77493  0.18193  Biso   1.000  N
  C49      1.0000 0.18517  0.72813  0.33933  Biso   1.000  C
  H33      1.0000 0.14517  0.70833  0.34333  Biso   1.000  H
  C50      1.0000 0.21347  0.69793  0.33433  Biso   1.000  C
  H34      1.0000 0.19217  0.65793  0.33463  Biso   1.000  H
  C51      1.0000 0.06967  0.74673  0.11333  Biso   1.000  C
  N18      1.0000 0.77563  0.10827  0.51527  Biso   1.000  N
  C52      1.0000 0.85183  0.06147  0.67267  Biso   1.000  C
  H35      1.0000 0.81183  0.04167  0.67667  Biso   1.000  H
  C53      1.0000 0.88013  0.03127  0.66767  Biso   1.000  C
  H36      1.0000 0.85883  0.99127  0.66797  Biso   1.000  H
  C54      1.0000 0.73633  0.08007  0.44667  Biso   1.000  C
  N19      1.0000 0.44230  0.00070  0.84860  Biso   1.000  N
  C55      1.0000 0.51850  0.12370  0.00600  Biso   1.000  C
  H37      1.0000 0.47850  0.10350  0.01000  Biso   1.000  H
  C56      1.0000 0.54680  0.18220  0.00100  Biso   1.000  C
  H38      1.0000 0.52550  0.20090  0.00130  Biso   1.000  H
  C57      1.0000 0.40300  0.98960  0.78000  Biso   1.000  C
  N20      1.0000 0.10897  0.33403  0.18193  Biso   1.000  N
  C58      1.0000 0.18517  0.45703  0.33933  Biso   1.000  C
  H39      1.0000 0.14517  0.43683  0.34333  Biso   1.000  H
  C59      1.0000 0.21347  0.51553  0.33433  Biso   1.000  C
  H40      1.0000 0.19217  0.53423  0.33463  Biso   1.000  H
  C60      1.0000 0.06967  0.32293  0.11333  Biso   1.000  C
  N21      1.0000 0.77563  0.66737  0.51527  Biso   1.000  N
  C61      1.0000 0.85183  0.79037  0.67267  Biso   1.000  C
  H41      1.0000 0.81183  0.77017  0.67667  Biso   1.000  H
  C62      1.0000 0.88013  0.84887  0.66767  Biso   1.000  C
  H42      1.0000 0.85883  0.86757  0.66797  Biso   1.000  H
  C63      1.0000 0.73633  0.65627  0.44667  Biso   1.000  C
  N22      1.0000 0.99930  0.44160  0.84860  Biso   1.000  N
  C64      1.0000 0.87630  0.39480  0.00600  Biso   1.000  C
  H43      1.0000 0.89650  0.37500  0.01000  Biso   1.000  H
  C65      1.0000 0.81780  0.36460  0.00100  Biso   1.000  C
  H44      1.0000 0.79910  0.32460  0.00130  Biso   1.000  H
  C66      1.0000 0.01040  0.41340  0.78000  Biso   1.000  C
  N23      1.0000 0.66597  0.77493  0.18193  Biso   1.000  N
  C67      1.0000 0.54297  0.72813  0.33933  Biso   1.000  C
  H45      1.0000 0.56317  0.70833  0.34333  Biso   1.000  H
  C68      1.0000 0.48447  0.69793  0.33433  Biso   1.000  C
  H46      1.0000 0.46577  0.65793  0.33463  Biso   1.000  H
  C69      1.0000 0.67707  0.74673  0.11333  Biso   1.000  C
  N24      1.0000 0.33263  0.10827  0.51527  Biso   1.000  N
  C70      1.0000 0.20963  0.06147  0.67267  Biso   1.000  C
  H47      1.0000 0.22983  0.04167  0.67667  Biso   1.000  H
  C71      1.0000 0.15113  0.03127  0.66767  Biso   1.000  C
  H48      1.0000 0.13243  0.99127  0.66797  Biso   1.000  H
  C72      1.0000 0.34373  0.08007  0.44667  Biso   1.000  C
  N25      1.0000 0.55840  0.55770  0.84860  Biso   1.000  N
  C73      1.0000 0.60520  0.48150  0.00600  Biso   1.000  C
  H49      1.0000 0.62500  0.52150  0.01000  Biso   1.000  H
  C74      1.0000 0.63540  0.45320  0.00100  Biso   1.000  C
  H50      1.0000 0.67540  0.47450  0.00130  Biso   1.000  H
  C75      1.0000 0.58660  0.59700  0.78000  Biso   1.000  C
  N26      1.0000 0.22507  0.89103  0.18193  Biso   1.000  N
  C76      1.0000 0.27187  0.81483  0.33933  Biso   1.000  C
  H51      1.0000 0.29167  0.85483  0.34333  Biso   1.000  H
  C77      1.0000 0.30207  0.78653  0.33433  Biso   1.000  C
  H52      1.0000 0.34207  0.80783  0.33463  Biso   1.000  H
  C78      1.0000 0.25327  0.93033  0.11333  Biso   1.000  C
  N27      1.0000 0.89173  0.22437  0.51527  Biso   1.000  N
  C79      1.0000 0.93853  0.14817  0.67267  Biso   1.000  C
  H53      1.0000 0.95833  0.18817  0.67667  Biso   1.000  H
  C80      1.0000 0.96873  0.11987  0.66767  Biso   1.000  C
  H54      1.0000 0.00873  0.14117  0.66797  Biso   1.000  H
  C81      1.0000 0.91993  0.26367  0.44667  Biso   1.000  C
  N28      1.0000 0.00070  0.44230  0.15140  Biso   1.000  N
  C82      1.0000 0.12370  0.51850  0.99400  Biso   1.000  C
  H55      1.0000 0.10350  0.47850  0.99000  Biso   1.000  H
  C83      1.0000 0.18220  0.54680  0.99900  Biso   1.000  C
  H56      1.0000 0.20090  0.52550  0.99870  Biso   1.000  H
  C84      1.0000 0.98960  0.40300  0.22000  Biso   1.000  C
  N29      1.0000 0.66737  0.77563  0.48473  Biso   1.000  N
  C85      1.0000 0.79037  0.85183  0.32733  Biso   1.000  C
  H57      1.0000 0.77017  0.81183  0.32333  Biso   1.000  H
  C86      1.0000 0.84887  0.88013  0.33233  Biso   1.000  C
  H58      1.0000 0.86757  0.85883  0.33203  Biso   1.000  H
  C87      1.0000 0.65627  0.73633  0.55333  Biso   1.000  C
  N30      1.0000 0.33403  0.10897  0.81807  Biso   1.000  N
  C88      1.0000 0.45703  0.18517  0.66067  Biso   1.000  C
  H59      1.0000 0.43683  0.14517  0.65667  Biso   1.000  H
  C89      1.0000 0.51553  0.21347  0.66567  Biso   1.000  C
  H60      1.0000 0.53423  0.19217  0.66537  Biso   1.000  H
  C90      1.0000 0.32293  0.06967  0.88667  Biso   1.000  C
  N31      1.0000 0.44160  0.99930  0.15140  Biso   1.000  N
  C91      1.0000 0.39480  0.87630  0.99400  Biso   1.000  C
  H61      1.0000 0.37500  0.89650  0.99000  Biso   1.000  H
  C92      1.0000 0.36460  0.81780  0.99900  Biso   1.000  C
  H62      1.0000 0.32460  0.79910  0.99870  Biso   1.000  H
  C93      1.0000 0.41340  0.01040  0.22000  Biso   1.000  C
  N32      1.0000 0.10827  0.33263  0.48473  Biso   1.000  N
  C94      1.0000 0.06147  0.20963  0.32733  Biso   1.000  C
  H63      1.0000 0.04167  0.22983  0.32333  Biso   1.000  H
  C95      1.0000 0.03127  0.15113  0.33233  Biso   1.000  C
  H64      1.0000 0.99127  0.13243  0.33203  Biso   1.000  H
  C96      1.0000 0.08007  0.34373  0.55333  Biso   1.000  C
  N33      1.0000 0.77493  0.66597  0.81807  Biso   1.000  N
  C97      1.0000 0.72813  0.54297  0.66067  Biso   1.000  C
  H65      1.0000 0.70833  0.56317  0.65667  Biso   1.000  H
  C98      1.0000 0.69793  0.48447  0.66567  Biso   1.000  C
  H66      1.0000 0.65793  0.46577  0.66537  Biso   1.000  H
  C99      1.0000 0.74673  0.67707  0.88667  Biso   1.000  C
  N34      1.0000 0.55770  0.55840  0.15140  Biso   1.000  N
  C100     1.0000 0.48150  0.60520  0.99400  Biso   1.000  C
  H67      1.0000 0.52150  0.62500  0.99000  Biso   1.000  H
  C101     1.0000 0.45320  0.63540  0.99900  Biso   1.000  C
  H68      1.0000 0.47450  0.67540  0.99870  Biso   1.000  H
  C102     1.0000 0.59700  0.58660  0.22000  Biso   1.000  C
  N35      1.0000 0.22437  0.89173  0.48473  Biso   1.000  N
  C103     1.0000 0.14817  0.93853  0.32733  Biso   1.000  C
  H69      1.0000 0.18817  0.95833  0.32333  Biso   1.000  H
  C104     1.0000 0.11987  0.96873  0.33233  Biso   1.000  C
  H70      1.0000 0.14117  0.00873  0.33203  Biso   1.000  H
  C105     1.0000 0.26367  0.91993  0.55333  Biso   1.000  C
  N36      1.0000 0.89103  0.22507  0.81807  Biso   1.000  N
  C106     1.0000 0.81483  0.27187  0.66067  Biso   1.000  C
  H71      1.0000 0.85483  0.29167  0.65667  Biso   1.000  H
  C107     1.0000 0.78653  0.30207  0.66567  Biso   1.000  C
  H72      1.0000 0.80783  0.34207  0.66537  Biso   1.000  H
  C108     1.0000 0.93033  0.25327  0.88667  Biso   1.000  C
  Au1      1.0000 0.66667  0.03973  0.33333  Biso   1.000  Au
  Au2      1.0000 0.96027  0.62693  0.33333  Biso   1.000  Au
  Au3      1.0000 0.37307  0.33333  0.33333  Biso   1.000  Au
  Au4      1.0000 0.03973  0.66667  0.66667  Biso   1.000  Au
  Au5      1.0000 0.70640  0.00000  0.00000  Biso   1.000  Au
  Au6      1.0000 0.62693  0.96027  0.66667  Biso   1.000  Au
  Au7      1.0000 0.29360  0.29360  0.00000  Biso   1.000  Au
  Au8      1.0000 0.33333  0.37307  0.66667  Biso   1.000  Au
  Au9      1.0000 0.00000  0.70640  0.00000  Biso   1.000  Au
  Au10     1.0000 0.33333  0.96027  0.66667  Biso   1.000  Au
  Au11     1.0000 0.00000  0.29360  0.00000  Biso   1.000  Au
  Au12     1.0000 0.03973  0.37307  0.66667  Biso   1.000  Au
  Au13     1.0000 0.70640  0.70640  0.00000  Biso   1.000  Au
  Au14     1.0000 0.62693  0.66667  0.66667  Biso   1.000  Au
  Au15     1.0000 0.29360  0.00000  0.00000  Biso   1.000  Au
  Au16     1.0000 0.96027  0.33333  0.33333  Biso   1.000  Au
  Au17     1.0000 0.37307  0.03973  0.33333  Biso   1.000  Au
  Au18     1.0000 0.66667  0.62693  0.33333  Biso   1.000  Au
  Fe1      1.0000 0.50000  0.00000  0.00000  Biso   1.000  Fe
  Fe2      1.0000 0.16667  0.33333  0.33333  Biso   1.000  Fe
  Fe3      1.0000 0.83333  0.66667  0.66667  Biso   1.000  Fe
  Fe4      1.0000 0.00000  0.50000  0.00000  Biso   1.000  Fe
  Fe5      1.0000 0.66667  0.83333  0.33333  Biso   1.000  Fe
  Fe6      1.0000 0.33333  0.16667  0.66667  Biso   1.000  Fe
  Fe7      1.0000 0.50000  0.50000  0.00000  Biso   1.000  Fe
  Fe8      1.0000 0.16667  0.83333  0.33333  Biso   1.000  Fe
  Fe9      1.0000 0.83333  0.16667  0.66667  Biso   1.000  Fe
  N37      1.0000 0.45275  0.90550  0.99600  Biso   1.000  N
  C109     1.0000 0.39210  0.78420  0.00500  Biso   1.000  C
  C110     1.0000 0.36175  0.72350  0.99600  Biso   1.000  C
  N38      1.0000 0.11942  0.23883  0.32933  Biso   1.000  N
  C111     1.0000 0.05877  0.11753  0.33833  Biso   1.000  C
  C112     1.0000 0.02842  0.05683  0.32933  Biso   1.000  C
  N39      1.0000 0.78608  0.57217  0.66267  Biso   1.000  N
  C113     1.0000 0.72543  0.45087  0.67167  Biso   1.000  C
  C114     1.0000 0.69508  0.39017  0.66267  Biso   1.000  C
  N40      1.0000 0.09450  0.54725  0.99600  Biso   1.000  N
  C115     1.0000 0.21580  0.60790  0.00500  Biso   1.000  C
  C116     1.0000 0.27650  0.63825  0.99600  Biso   1.000  C
  N41      1.0000 0.76117  0.88058  0.32933  Biso   1.000  N
  C117     1.0000 0.88247  0.94123  0.33833  Biso   1.000  C
  C118     1.0000 0.94317  0.97158  0.32933  Biso   1.000  C
  N42      1.0000 0.42783  0.21392  0.66267  Biso   1.000  N
  C119     1.0000 0.54913  0.27457  0.67167  Biso   1.000  C
  C120     1.0000 0.60983  0.30492  0.66267  Biso   1.000  C
  N43      1.0000 0.45275  0.54725  0.99600  Biso   1.000  N
  C121     1.0000 0.39210  0.60790  0.00500  Biso   1.000  C
  C122     1.0000 0.36175  0.63825  0.99600  Biso   1.000  C
  N44      1.0000 0.11942  0.88058  0.32933  Biso   1.000  N
  C123     1.0000 0.05877  0.94123  0.33833  Biso   1.000  C
  C124     1.0000 0.02842  0.97158  0.32933  Biso   1.000  C
  N45      1.0000 0.78608  0.21392  0.66267  Biso   1.000  N
  C125     1.0000 0.72543  0.27457  0.67167  Biso   1.000  C
  C126     1.0000 0.69508  0.30492  0.66267  Biso   1.000  C
  N46      1.0000 0.90550  0.45275  0.00400  Biso   1.000  N
  C127     1.0000 0.78420  0.39210  0.99500  Biso   1.000  C
  C128     1.0000 0.72350  0.36175  0.00400  Biso   1.000  C
  N47      1.0000 0.57217  0.78608  0.33733  Biso   1.000  N
  C129     1.0000 0.45087  0.72543  0.32833  Biso   1.000  C
  C130     1.0000 0.39017  0.69508  0.33733  Biso   1.000  C
  N48      1.0000 0.23883  0.11942  0.67067  Biso   1.000  N
  C131     1.0000 0.11753  0.05877  0.66167  Biso   1.000  C
  C132     1.0000 0.05683  0.02842  0.67067  Biso   1.000  C
  N49      1.0000 0.54725  0.09450  0.00400  Biso   1.000  N
  C133     1.0000 0.60790  0.21580  0.99500  Biso   1.000  C
  C134     1.0000 0.63825  0.27650  0.00400  Biso   1.000  C
  N50      1.0000 0.21392  0.42783  0.33733  Biso   1.000  N
  C135     1.0000 0.27457  0.54913  0.32833  Biso   1.000  C
  C136     1.0000 0.30492  0.60983  0.33733  Biso   1.000  C
  N51      1.0000 0.88058  0.76117  0.67067  Biso   1.000  N
  C137     1.0000 0.94123  0.88247  0.66167  Biso   1.000  C
  C138     1.0000 0.97158  0.94317  0.67067  Biso   1.000  C
  N52      1.0000 0.54725  0.45275  0.00400  Biso   1.000  N
  C139     1.0000 0.60790  0.39210  0.99500  Biso   1.000  C
  C140     1.0000 0.63825  0.36175  0.00400  Biso   1.000  C
  N53      1.0000 0.21392  0.78608  0.33733  Biso   1.000  N
  C141     1.0000 0.27457  0.72543  0.32833  Biso   1.000  C
  C142     1.0000 0.30492  0.69508  0.33733  Biso   1.000  C
  N54      1.0000 0.88058  0.11942  0.67067  Biso   1.000  N
  C143     1.0000 0.94123  0.05877  0.66167  Biso   1.000  C
  C144     1.0000 0.97158  0.02842  0.67067  Biso   1.000  C
  N55      1.0000 0.30270  0.69730  0.99700  Biso   1.000  N
  N56      1.0000 0.96937  0.03063  0.33033  Biso   1.000  N
  N57      1.0000 0.63603  0.36397  0.66367  Biso   1.000  N
  N58      1.0000 0.30270  0.60540  0.99700  Biso   1.000  N
  N59      1.0000 0.96937  0.93873  0.33033  Biso   1.000  N
  N60      1.0000 0.63603  0.27207  0.66367  Biso   1.000  N
  N61      1.0000 0.39460  0.69730  0.99700  Biso   1.000  N
  N62      1.0000 0.06127  0.03063  0.33033  Biso   1.000  N
  N63      1.0000 0.72793  0.36397  0.66367  Biso   1.000  N
  N64      1.0000 0.69730  0.30270  0.00300  Biso   1.000  N
  N65      1.0000 0.36397  0.63603  0.33633  Biso   1.000  N
  N66      1.0000 0.03063  0.96937  0.66967  Biso   1.000  N
  N67      1.0000 0.60540  0.30270  0.00300  Biso   1.000  N
  N68      1.0000 0.27207  0.63603  0.33633  Biso   1.000  N
  N69      1.0000 0.93873  0.96937  0.66967  Biso   1.000  N
  N70      1.0000 0.69730  0.39460  0.00300  Biso   1.000  N
  N71      1.0000 0.36397  0.72793  0.33633  Biso   1.000  N
  N72      1.0000 0.03063  0.06127  0.66967  Biso   1.000  N
