data_image0
_cell_length_a       26.1934
_cell_length_b       26.1934
_cell_length_c       9.3978
_cell_angle_alpha    90
_cell_angle_beta     90
_cell_angle_gamma    120

_symmetry_space_group_name_H-M    "P 1"
_symmetry_int_tables_number       1

loop_
  _symmetry_equiv_pos_as_xyz
  'x, y, z'

loop_
  _atom_site_label
  _atom_site_occupancy
  _atom_site_fract_x
  _atom_site_fract_y
  _atom_site_fract_z
  _atom_site_thermal_displace_type
  _atom_site_B_iso_or_equiv
  _atom_site_type_symbol
  C1       1.0000 0.07300  0.32350  0.11610  Biso   1.000  C
  N1       1.0000 0.11200  0.33110  0.18930  Biso   1.000  N
  C2       1.0000 0.15150  0.21530  0.33970  Biso   1.000  C
  H1       1.0000 0.19260  0.23610  0.34290  Biso   1.000  H
  C3       1.0000 0.12260  0.15410  0.33790  Biso   1.000  C
  H2       1.0000 0.14420  0.13470  0.33840  Biso   1.000  H
  C4       1.0000 0.73967  0.65683  0.44943  Biso   1.000  C
  N2       1.0000 0.77867  0.66443  0.52263  Biso   1.000  N
  C5       1.0000 0.81817  0.54863  0.67303  Biso   1.000  C
  H3       1.0000 0.85927  0.56943  0.67623  Biso   1.000  H
  C6       1.0000 0.78927  0.48743  0.67123  Biso   1.000  C
  H4       1.0000 0.81087  0.46803  0.67173  Biso   1.000  H
  C7       1.0000 0.40633  0.99017  0.78277  Biso   1.000  C
  N3       1.0000 0.44533  0.99777  0.85597  Biso   1.000  N
  C8       1.0000 0.48483  0.88197  0.00637  Biso   1.000  C
  H5       1.0000 0.52593  0.90277  0.00957  Biso   1.000  H
  C9       1.0000 0.45593  0.82077  0.00457  Biso   1.000  C
  H6       1.0000 0.47753  0.80137  0.00507  Biso   1.000  H
  C10      1.0000 0.67650  0.74950  0.11610  Biso   1.000  C
  N4       1.0000 0.66890  0.78090  0.18930  Biso   1.000  N
  C11      1.0000 0.78470  0.93620  0.33970  Biso   1.000  C
  H7       1.0000 0.76390  0.95650  0.34290  Biso   1.000  H
  C12      1.0000 0.84590  0.96850  0.33790  Biso   1.000  C
  H8       1.0000 0.86530  0.00950  0.33840  Biso   1.000  H
  C13      1.0000 0.34317  0.08283  0.44943  Biso   1.000  C
  N5       1.0000 0.33557  0.11423  0.52263  Biso   1.000  N
  C14      1.0000 0.45137  0.26953  0.67303  Biso   1.000  C
  H9       1.0000 0.43057  0.28983  0.67623  Biso   1.000  H
  C15      1.0000 0.51257  0.30183  0.67123  Biso   1.000  C
  H10      1.0000 0.53197  0.34283  0.67173  Biso   1.000  H
  C16      1.0000 0.00983  0.41617  0.78277  Biso   1.000  C
  N6       1.0000 0.00223  0.44757  0.85597  Biso   1.000  N
  C17      1.0000 0.11803  0.60287  0.00637  Biso   1.000  C
  H11      1.0000 0.09723  0.62317  0.00957  Biso   1.000  H
  C18      1.0000 0.17923  0.63517  0.00457  Biso   1.000  C
  H12      1.0000 0.19863  0.67617  0.00507  Biso   1.000  H
  C19      1.0000 0.25050  0.92700  0.11610  Biso   1.000  C
  N7       1.0000 0.21910  0.88800  0.18930  Biso   1.000  N
  C20      1.0000 0.06380  0.84850  0.33970  Biso   1.000  C
  H13      1.0000 0.04350  0.80740  0.34290  Biso   1.000  H
  C21      1.0000 0.03150  0.87740  0.33790  Biso   1.000  C
  H14      1.0000 0.99050  0.85580  0.33840  Biso   1.000  H
  C22      1.0000 0.91717  0.26033  0.44943  Biso   1.000  C
  N8       1.0000 0.88577  0.22133  0.52263  Biso   1.000  N
  C23      1.0000 0.73047  0.18183  0.67303  Biso   1.000  C
  H15      1.0000 0.71017  0.14073  0.67623  Biso   1.000  H
  C24      1.0000 0.69817  0.21073  0.67123  Biso   1.000  C
  H16      1.0000 0.65717  0.18913  0.67173  Biso   1.000  H
  C25      1.0000 0.58383  0.59367  0.78277  Biso   1.000  C
  N9       1.0000 0.55243  0.55467  0.85597  Biso   1.000  N
  C26      1.0000 0.39713  0.51517  0.00637  Biso   1.000  C
  H17      1.0000 0.37683  0.47407  0.00957  Biso   1.000  H
  C27      1.0000 0.36483  0.54407  0.00457  Biso   1.000  C
  H18      1.0000 0.32383  0.52247  0.00507  Biso   1.000  H
  C28      1.0000 0.32350  0.07300  0.88390  Biso   1.000  C
  N10      1.0000 0.33110  0.11200  0.81070  Biso   1.000  N
  C29      1.0000 0.21530  0.15150  0.66030  Biso   1.000  C
  H19      1.0000 0.23610  0.19260  0.65710  Biso   1.000  H
  C30      1.0000 0.15410  0.12260  0.66210  Biso   1.000  C
  H20      1.0000 0.13470  0.14420  0.66160  Biso   1.000  H
  C31      1.0000 0.99017  0.40633  0.21723  Biso   1.000  C
  N11      1.0000 0.99777  0.44533  0.14403  Biso   1.000  N
  C32      1.0000 0.88197  0.48483  0.99363  Biso   1.000  C
  H21      1.0000 0.90277  0.52593  0.99043  Biso   1.000  H
  C33      1.0000 0.82077  0.45593  0.99543  Biso   1.000  C
  H22      1.0000 0.80137  0.47753  0.99493  Biso   1.000  H
  C34      1.0000 0.65683  0.73967  0.55057  Biso   1.000  C
  N12      1.0000 0.66443  0.77867  0.47737  Biso   1.000  N
  C35      1.0000 0.54863  0.81817  0.32697  Biso   1.000  C
  H23      1.0000 0.56943  0.85927  0.32377  Biso   1.000  H
  C36      1.0000 0.48743  0.78927  0.32877  Biso   1.000  C
  H24      1.0000 0.46803  0.81087  0.32827  Biso   1.000  H
  C37      1.0000 0.74950  0.67650  0.88390  Biso   1.000  C
  N13      1.0000 0.78090  0.66890  0.81070  Biso   1.000  N
  C38      1.0000 0.93620  0.78470  0.66030  Biso   1.000  C
  H25      1.0000 0.95650  0.76390  0.65710  Biso   1.000  H
  C39      1.0000 0.96850  0.84590  0.66210  Biso   1.000  C
  H26      1.0000 0.00950  0.86530  0.66160  Biso   1.000  H
  C40      1.0000 0.41617  0.00983  0.21723  Biso   1.000  C
  N14      1.0000 0.44757  0.00223  0.14403  Biso   1.000  N
  C41      1.0000 0.60287  0.11803  0.99363  Biso   1.000  C
  H27      1.0000 0.62317  0.09723  0.99043  Biso   1.000  H
  C42      1.0000 0.63517  0.17923  0.99543  Biso   1.000  C
  H28      1.0000 0.67617  0.19863  0.99493  Biso   1.000  H
  C43      1.0000 0.08283  0.34317  0.55057  Biso   1.000  C
  N15      1.0000 0.11423  0.33557  0.47737  Biso   1.000  N
  C44      1.0000 0.26953  0.45137  0.32697  Biso   1.000  C
  H29      1.0000 0.28983  0.43057  0.32377  Biso   1.000  H
  C45      1.0000 0.30183  0.51257  0.32877  Biso   1.000  C
  H30      1.0000 0.34283  0.53197  0.32827  Biso   1.000  H
  C46      1.0000 0.92700  0.25050  0.88390  Biso   1.000  C
  N16      1.0000 0.88800  0.21910  0.81070  Biso   1.000  N
  C47      1.0000 0.84850  0.06380  0.66030  Biso   1.000  C
  H31      1.0000 0.80740  0.04350  0.65710  Biso   1.000  H
  C48      1.0000 0.87740  0.03150  0.66210  Biso   1.000  C
  H32      1.0000 0.85580  0.99050  0.66160  Biso   1.000  H
  C49      1.0000 0.59367  0.58383  0.21723  Biso   1.000  C
  N17      1.0000 0.55467  0.55243  0.14403  Biso   1.000  N
  C50      1.0000 0.51517  0.39713  0.99363  Biso   1.000  C
  H33      1.0000 0.47407  0.37683  0.99043  Biso   1.000  H
  C51      1.0000 0.54407  0.36483  0.99543  Biso   1.000  C
  H34      1.0000 0.52247  0.32383  0.99493  Biso   1.000  H
  C52      1.0000 0.26033  0.91717  0.55057  Biso   1.000  C
  N18      1.0000 0.22133  0.88577  0.47737  Biso   1.000  N
  C53      1.0000 0.18183  0.73047  0.32697  Biso   1.000  C
  H35      1.0000 0.14073  0.71017  0.32377  Biso   1.000  H
  C54      1.0000 0.21073  0.69817  0.32877  Biso   1.000  C
  H36      1.0000 0.18913  0.65717  0.32827  Biso   1.000  H
  C55      1.0000 0.92700  0.67650  0.88390  Biso   1.000  C
  N19      1.0000 0.88800  0.66890  0.81070  Biso   1.000  N
  C56      1.0000 0.84850  0.78470  0.66030  Biso   1.000  C
  H37      1.0000 0.80740  0.76390  0.65710  Biso   1.000  H
  C57      1.0000 0.87740  0.84590  0.66210  Biso   1.000  C
  H38      1.0000 0.85580  0.86530  0.66160  Biso   1.000  H
  C58      1.0000 0.59367  0.00983  0.21723  Biso   1.000  C
  N20      1.0000 0.55467  0.00223  0.14403  Biso   1.000  N
  C59      1.0000 0.51517  0.11803  0.99363  Biso   1.000  C
  H39      1.0000 0.47407  0.09723  0.99043  Biso   1.000  H
  C60      1.0000 0.54407  0.17923  0.99543  Biso   1.000  C
  H40      1.0000 0.52247  0.19863  0.99493  Biso   1.000  H
  C61      1.0000 0.26033  0.34317  0.55057  Biso   1.000  C
  N21      1.0000 0.22133  0.33557  0.47737  Biso   1.000  N
  C62      1.0000 0.18183  0.45137  0.32697  Biso   1.000  C
  H41      1.0000 0.14073  0.43057  0.32377  Biso   1.000  H
  C63      1.0000 0.21073  0.51257  0.32877  Biso   1.000  C
  H42      1.0000 0.18913  0.53197  0.32827  Biso   1.000  H
  C64      1.0000 0.32350  0.25050  0.88390  Biso   1.000  C
  N22      1.0000 0.33110  0.21910  0.81070  Biso   1.000  N
  C65      1.0000 0.21530  0.06380  0.66030  Biso   1.000  C
  H43      1.0000 0.23610  0.04350  0.65710  Biso   1.000  H
  C66      1.0000 0.15410  0.03150  0.66210  Biso   1.000  C
  H44      1.0000 0.13470  0.99050  0.66160  Biso   1.000  H
  C67      1.0000 0.99017  0.58383  0.21723  Biso   1.000  C
  N23      1.0000 0.99777  0.55243  0.14403  Biso   1.000  N
  C68      1.0000 0.88197  0.39713  0.99363  Biso   1.000  C
  H45      1.0000 0.90277  0.37683  0.99043  Biso   1.000  H
  C69      1.0000 0.82077  0.36483  0.99543  Biso   1.000  C
  H46      1.0000 0.80137  0.32383  0.99493  Biso   1.000  H
  C70      1.0000 0.65683  0.91717  0.55057  Biso   1.000  C
  N24      1.0000 0.66443  0.88577  0.47737  Biso   1.000  N
  C71      1.0000 0.54863  0.73047  0.32697  Biso   1.000  C
  H47      1.0000 0.56943  0.71017  0.32377  Biso   1.000  H
  C72      1.0000 0.48743  0.69817  0.32877  Biso   1.000  C
  H48      1.0000 0.46803  0.65717  0.32827  Biso   1.000  H
  C73      1.0000 0.74950  0.07300  0.88390  Biso   1.000  C
  N25      1.0000 0.78090  0.11200  0.81070  Biso   1.000  N
  C74      1.0000 0.93620  0.15150  0.66030  Biso   1.000  C
  H49      1.0000 0.95650  0.19260  0.65710  Biso   1.000  H
  C75      1.0000 0.96850  0.12260  0.66210  Biso   1.000  C
  H50      1.0000 0.00950  0.14420  0.66160  Biso   1.000  H
  C76      1.0000 0.41617  0.40633  0.21723  Biso   1.000  C
  N26      1.0000 0.44757  0.44533  0.14403  Biso   1.000  N
  C77      1.0000 0.60287  0.48483  0.99363  Biso   1.000  C
  H51      1.0000 0.62317  0.52593  0.99043  Biso   1.000  H
  C78      1.0000 0.63517  0.45593  0.99543  Biso   1.000  C
  H52      1.0000 0.67617  0.47753  0.99493  Biso   1.000  H
  C79      1.0000 0.08283  0.73967  0.55057  Biso   1.000  C
  N27      1.0000 0.11423  0.77867  0.47737  Biso   1.000  N
  C80      1.0000 0.26953  0.81817  0.32697  Biso   1.000  C
  H53      1.0000 0.28983  0.85927  0.32377  Biso   1.000  H
  C81      1.0000 0.30183  0.78927  0.32877  Biso   1.000  C
  H54      1.0000 0.34283  0.81087  0.32827  Biso   1.000  H
  C82      1.0000 0.67650  0.92700  0.11610  Biso   1.000  C
  N28      1.0000 0.66890  0.88800  0.18930  Biso   1.000  N
  C83      1.0000 0.78470  0.84850  0.33970  Biso   1.000  C
  H55      1.0000 0.76390  0.80740  0.34290  Biso   1.000  H
  C84      1.0000 0.84590  0.87740  0.33790  Biso   1.000  C
  H56      1.0000 0.86530  0.85580  0.33840  Biso   1.000  H
  C85      1.0000 0.34317  0.26033  0.44943  Biso   1.000  C
  N29      1.0000 0.33557  0.22133  0.52263  Biso   1.000  N
  C86      1.0000 0.45137  0.18183  0.67303  Biso   1.000  C
  H57      1.0000 0.43057  0.14073  0.67623  Biso   1.000  H
  C87      1.0000 0.51257  0.21073  0.67123  Biso   1.000  C
  H58      1.0000 0.53197  0.18913  0.67173  Biso   1.000  H
  C88      1.0000 0.00983  0.59367  0.78277  Biso   1.000  C
  N30      1.0000 0.00223  0.55467  0.85597  Biso   1.000  N
  C89      1.0000 0.11803  0.51517  0.00637  Biso   1.000  C
  H59      1.0000 0.09723  0.47407  0.00957  Biso   1.000  H
  C90      1.0000 0.17923  0.54407  0.00457  Biso   1.000  C
  H60      1.0000 0.19863  0.52247  0.00507  Biso   1.000  H
  C91      1.0000 0.25050  0.32350  0.11610  Biso   1.000  C
  N31      1.0000 0.21910  0.33110  0.18930  Biso   1.000  N
  C92      1.0000 0.06380  0.21530  0.33970  Biso   1.000  C
  H61      1.0000 0.04350  0.23610  0.34290  Biso   1.000  H
  C93      1.0000 0.03150  0.15410  0.33790  Biso   1.000  C
  H62      1.0000 0.99050  0.13470  0.33840  Biso   1.000  H
  C94      1.0000 0.91717  0.65683  0.44943  Biso   1.000  C
  N32      1.0000 0.88577  0.66443  0.52263  Biso   1.000  N
  C95      1.0000 0.73047  0.54863  0.67303  Biso   1.000  C
  H63      1.0000 0.71017  0.56943  0.67623  Biso   1.000  H
  C96      1.0000 0.69817  0.48743  0.67123  Biso   1.000  C
  H64      1.0000 0.65717  0.46803  0.67173  Biso   1.000  H
  C97      1.0000 0.58383  0.99017  0.78277  Biso   1.000  C
  N33      1.0000 0.55243  0.99777  0.85597  Biso   1.000  N
  C98      1.0000 0.39713  0.88197  0.00637  Biso   1.000  C
  H65      1.0000 0.37683  0.90277  0.00957  Biso   1.000  H
  C99      1.0000 0.36483  0.82077  0.00457  Biso   1.000  C
  H66      1.0000 0.32383  0.80137  0.00507  Biso   1.000  H
  C100     1.0000 0.07300  0.74950  0.11610  Biso   1.000  C
  N34      1.0000 0.11200  0.78090  0.18930  Biso   1.000  N
  C101     1.0000 0.15150  0.93620  0.33970  Biso   1.000  C
  H67      1.0000 0.19260  0.95650  0.34290  Biso   1.000  H
  C102     1.0000 0.12260  0.96850  0.33790  Biso   1.000  C
  H68      1.0000 0.14420  0.00950  0.33840  Biso   1.000  H
  C103     1.0000 0.73967  0.08283  0.44943  Biso   1.000  C
  N35      1.0000 0.77867  0.11423  0.52263  Biso   1.000  N
  C104     1.0000 0.81817  0.26953  0.67303  Biso   1.000  C
  H69      1.0000 0.85927  0.28983  0.67623  Biso   1.000  H
  C105     1.0000 0.78927  0.30183  0.67123  Biso   1.000  C
  H70      1.0000 0.81087  0.34283  0.67173  Biso   1.000  H
  C106     1.0000 0.40633  0.41617  0.78277  Biso   1.000  C
  N36      1.0000 0.44533  0.44757  0.85597  Biso   1.000  N
  C107     1.0000 0.48483  0.60287  0.00637  Biso   1.000  C
  H71      1.0000 0.52593  0.62317  0.00957  Biso   1.000  H
  C108     1.0000 0.45593  0.63517  0.00457  Biso   1.000  C
  H72      1.0000 0.47753  0.67617  0.00507  Biso   1.000  H
  Au1      1.0000 0.00000  0.29377  0.00000  Biso   1.000  Au
  Au2      1.0000 0.66667  0.62710  0.33333  Biso   1.000  Au
  Au3      1.0000 0.33333  0.96044  0.66667  Biso   1.000  Au
  Au4      1.0000 0.70623  0.70623  0.00000  Biso   1.000  Au
  Au5      1.0000 0.37290  0.03956  0.33333  Biso   1.000  Au
  Au6      1.0000 0.03956  0.37290  0.66667  Biso   1.000  Au
  Au7      1.0000 0.29377  0.00000  0.00000  Biso   1.000  Au
  Au8      1.0000 0.96044  0.33333  0.33333  Biso   1.000  Au
  Au9      1.0000 0.62710  0.66667  0.66667  Biso   1.000  Au
  Au10     1.0000 0.00000  0.70623  0.00000  Biso   1.000  Au
  Au11     1.0000 0.66667  0.03956  0.33333  Biso   1.000  Au
  Au12     1.0000 0.33333  0.37290  0.66667  Biso   1.000  Au
  Au13     1.0000 0.29377  0.29377  0.00000  Biso   1.000  Au
  Au14     1.0000 0.96044  0.62710  0.33333  Biso   1.000  Au
  Au15     1.0000 0.62710  0.96044  0.66667  Biso   1.000  Au
  Au16     1.0000 0.70623  0.00000  0.00000  Biso   1.000  Au
  Au17     1.0000 0.37290  0.33333  0.33333  Biso   1.000  Au
  Au18     1.0000 0.03956  0.66667  0.66667  Biso   1.000  Au
  Fe1      1.0000 0.16667  0.33333  0.33333  Biso   1.000  Fe
  Fe2      1.0000 0.66667  0.83333  0.33333  Biso   1.000  Fe
  Fe3      1.0000 0.16667  0.83333  0.33333  Biso   1.000  Fe
  Fe4      1.0000 0.33333  0.16667  0.66667  Biso   1.000  Fe
  Fe5      1.0000 0.00000  0.50000  0.00000  Biso   1.000  Fe
  Fe6      1.0000 0.83333  0.66667  0.66667  Biso   1.000  Fe
  Fe7      1.0000 0.50000  0.00000  0.00000  Biso   1.000  Fe
  Fe8      1.0000 0.83333  0.16667  0.66667  Biso   1.000  Fe
  Fe9      1.0000 0.50000  0.50000  0.00000  Biso   1.000  Fe
  N37      1.0000 0.21050  0.42100  0.32980  Biso   1.000  N
  C109     1.0000 0.06095  0.12190  0.33530  Biso   1.000  C
  C110     1.0000 0.02905  0.05810  0.33390  Biso   1.000  C
  N38      1.0000 0.87717  0.75433  0.66313  Biso   1.000  N
  C111     1.0000 0.72762  0.45523  0.66863  Biso   1.000  C
  C112     1.0000 0.69572  0.39143  0.66723  Biso   1.000  C
  N39      1.0000 0.54383  0.08767  0.99647  Biso   1.000  N
  C113     1.0000 0.39428  0.78857  0.00197  Biso   1.000  C
  C114     1.0000 0.36238  0.72477  0.00057  Biso   1.000  C
  N40      1.0000 0.57900  0.78950  0.32980  Biso   1.000  N
  C115     1.0000 0.87810  0.93905  0.33530  Biso   1.000  C
  C116     1.0000 0.94190  0.97095  0.33390  Biso   1.000  C
  N41      1.0000 0.24567  0.12283  0.66313  Biso   1.000  N
  C117     1.0000 0.54477  0.27238  0.66863  Biso   1.000  C
  C118     1.0000 0.60857  0.30428  0.66723  Biso   1.000  C
  N42      1.0000 0.91233  0.45617  0.99647  Biso   1.000  N
  C119     1.0000 0.21143  0.60572  0.00197  Biso   1.000  C
  C120     1.0000 0.27523  0.63762  0.00057  Biso   1.000  C
  N43      1.0000 0.21050  0.78950  0.32980  Biso   1.000  N
  C121     1.0000 0.06095  0.93905  0.33530  Biso   1.000  C
  C122     1.0000 0.02905  0.97095  0.33390  Biso   1.000  C
  N44      1.0000 0.87717  0.12283  0.66313  Biso   1.000  N
  C123     1.0000 0.72762  0.27238  0.66863  Biso   1.000  C
  C124     1.0000 0.69572  0.30428  0.66723  Biso   1.000  C
  N45      1.0000 0.54383  0.45617  0.99647  Biso   1.000  N
  C125     1.0000 0.39428  0.60572  0.00197  Biso   1.000  C
  C126     1.0000 0.36238  0.63762  0.00057  Biso   1.000  C
  N46      1.0000 0.42100  0.21050  0.67020  Biso   1.000  N
  C127     1.0000 0.12190  0.06095  0.66470  Biso   1.000  C
  C128     1.0000 0.05810  0.02905  0.66610  Biso   1.000  C
  N47      1.0000 0.08767  0.54383  0.00353  Biso   1.000  N
  C129     1.0000 0.78857  0.39428  0.99803  Biso   1.000  C
  C130     1.0000 0.72477  0.36238  0.99943  Biso   1.000  C
  N48      1.0000 0.75433  0.87717  0.33687  Biso   1.000  N
  C131     1.0000 0.45523  0.72762  0.33137  Biso   1.000  C
  C132     1.0000 0.39143  0.69572  0.33277  Biso   1.000  C
  N49      1.0000 0.78950  0.57900  0.67020  Biso   1.000  N
  C133     1.0000 0.93905  0.87810  0.66470  Biso   1.000  C
  C134     1.0000 0.97095  0.94190  0.66610  Biso   1.000  C
  N50      1.0000 0.45617  0.91233  0.00353  Biso   1.000  N
  C135     1.0000 0.60572  0.21143  0.99803  Biso   1.000  C
  C136     1.0000 0.63762  0.27523  0.99943  Biso   1.000  C
  N51      1.0000 0.12283  0.24567  0.33687  Biso   1.000  N
  C137     1.0000 0.27238  0.54477  0.33137  Biso   1.000  C
  C138     1.0000 0.30428  0.60857  0.33277  Biso   1.000  C
  N52      1.0000 0.78950  0.21050  0.67020  Biso   1.000  N
  C139     1.0000 0.93905  0.06095  0.66470  Biso   1.000  C
  C140     1.0000 0.97095  0.02905  0.66610  Biso   1.000  C
  N53      1.0000 0.45617  0.54383  0.00353  Biso   1.000  N
  C141     1.0000 0.60572  0.39428  0.99803  Biso   1.000  C
  C142     1.0000 0.63762  0.36238  0.99943  Biso   1.000  C
  N54      1.0000 0.12283  0.87717  0.33687  Biso   1.000  N
  C143     1.0000 0.27238  0.72762  0.33137  Biso   1.000  C
  C144     1.0000 0.30428  0.69572  0.33277  Biso   1.000  C
  N55      1.0000 0.06050  0.03025  0.33250  Biso   1.000  N
  N56      1.0000 0.72717  0.36358  0.66583  Biso   1.000  N
  N57      1.0000 0.39383  0.69692  0.99917  Biso   1.000  N
  N58      1.0000 0.96975  0.03025  0.33250  Biso   1.000  N
  N59      1.0000 0.63642  0.36358  0.66583  Biso   1.000  N
  N60      1.0000 0.30308  0.69692  0.99917  Biso   1.000  N
  N61      1.0000 0.96975  0.93950  0.33250  Biso   1.000  N
  N62      1.0000 0.63642  0.27283  0.66583  Biso   1.000  N
  N63      1.0000 0.30308  0.60617  0.99917  Biso   1.000  N
  N64      1.0000 0.03025  0.06050  0.66750  Biso   1.000  N
  N65      1.0000 0.69692  0.39383  0.00083  Biso   1.000  N
  N66      1.0000 0.36358  0.72717  0.33417  Biso   1.000  N
  N67      1.0000 0.03025  0.96975  0.66750  Biso   1.000  N
  N68      1.0000 0.69692  0.30308  0.00083  Biso   1.000  N
  N69      1.0000 0.36358  0.63642  0.33417  Biso   1.000  N
  N70      1.0000 0.93950  0.96975  0.66750  Biso   1.000  N
  N71      1.0000 0.60617  0.30308  0.00083  Biso   1.000  N
  N72      1.0000 0.27283  0.63642  0.33417  Biso   1.000  N
