data_image0
_cell_length_a       26.604
_cell_length_b       18.113
_cell_length_c       18.925
_cell_angle_alpha    90
_cell_angle_beta     118.24
_cell_angle_gamma    90

_symmetry_space_group_name_H-M    "P 1"
_symmetry_int_tables_number       1

loop_
  _symmetry_equiv_pos_as_xyz
  'x, y, z'

loop_
  _atom_site_label
  _atom_site_occupancy
  _atom_site_fract_x
  _atom_site_fract_y
  _atom_site_fract_z
  _atom_site_thermal_displace_type
  _atom_site_B_iso_or_equiv
  _atom_site_type_symbol
  Co1      1.0000 0.99648  0.08090  0.77893  Biso   1.000  Co
  B1       1.0000 0.02760  0.95130  0.68930  Biso   1.000  B
  H1       1.0000 0.03880  0.91260  0.66170  Biso   1.000  H
  N1       1.0000 0.05540  0.99310  0.83490  Biso   1.000  N
  N2       1.0000 0.06130  0.94280  0.78190  Biso   1.000  N
  C1       1.0000 0.09090  0.96520  0.90390  Biso   1.000  C
  H2       1.0000 0.09980  0.99110  0.95210  Biso   1.000  H
  C2       1.0000 0.09840  0.88840  0.82680  Biso   1.000  C
  H3       1.0000 0.11100  0.84880  0.80630  Biso   1.000  H
  N3       1.0000 0.11440  0.90050  0.90640  Biso   1.000  N
  N4       1.0000 0.94220  0.99420  0.69880  Biso   1.000  N
  N5       1.0000 0.96690  0.94650  0.66610  Biso   1.000  N
  C3       1.0000 0.88940  0.97370  0.66370  Biso   1.000  C
  H4       1.0000 0.86160  0.00000  0.67160  Biso   1.000  H
  C4       1.0000 0.92550  0.90070  0.61700  Biso   1.000  C
  H5       1.0000 0.93110  0.86310  0.58650  Biso   1.000  H
  N6       1.0000 0.87480  0.91350  0.61530  Biso   1.000  N
  N7       1.0000 0.02990  0.08830  0.70050  Biso   1.000  N
  N8       1.0000 0.04040  0.02850  0.67010  Biso   1.000  N
  C5       1.0000 0.04270  0.14520  0.66470  Biso   1.000  C
  H6       1.0000 0.03800  0.19540  0.67500  Biso   1.000  H
  C6       1.0000 0.05680  0.05230  0.61340  Biso   1.000  C
  H7       1.0000 0.06340  0.02040  0.57870  Biso   1.000  H
  N9       1.0000 0.06200  0.12560  0.61460  Biso   1.000  N
  B2       1.0000 0.96130  0.21300  0.85730  Biso   1.000  B
  H8       1.0000 0.94910  0.25400  0.88110  Biso   1.000  H
  N10      1.0000 0.93620  0.16540  0.71870  Biso   1.000  N
  N11      1.0000 0.93000  0.21850  0.76570  Biso   1.000  N
  C7       1.0000 0.90510  0.19040  0.64390  Biso   1.000  C
  H9       1.0000 0.89940  0.16330  0.59770  Biso   1.000  H
  C8       1.0000 0.89760  0.27400  0.71760  Biso   1.000  C
  H10      1.0000 0.88730  0.31750  0.73560  Biso   1.000  H
  N12      1.0000 0.88220  0.25810  0.64050  Biso   1.000  N
  N13      1.0000 0.05070  0.16780  0.85650  Biso   1.000  N
  N14      1.0000 0.02540  0.21850  0.88520  Biso   1.000  N
  C9       1.0000 0.10160  0.19370  0.88310  Biso   1.000  C
  H11      1.0000 0.12990  0.16670  0.87700  Biso   1.000  H
  C10      1.0000 0.06420  0.27250  0.92280  Biso   1.000  C
  H12      1.0000 0.05830  0.31420  0.94820  Biso   1.000  H
  N15      1.0000 0.11330  0.25820  0.91880  Biso   1.000  N
  N16      1.0000 0.96170  0.07720  0.85630  Biso   1.000  N
  N17      1.0000 0.94860  0.13870  0.88300  Biso   1.000  N
  C11      1.0000 0.94610  0.02190  0.88820  Biso   1.000  C
  H13      1.0000 0.95020  0.97110  0.87940  Biso   1.000  H
  C12      1.0000 0.92440  0.11990  0.93080  Biso   1.000  C
  H14      1.0000 0.91070  0.15360  0.95620  Biso   1.000  H
  N18      1.0000 0.92350  0.04720  0.93530  Biso   1.000  N
  Cu1      1.0000 0.19695  0.85002  0.97582  Biso   1.000  Cu
  Cu2      1.0000 0.30583  0.81547  0.03345  Biso   1.000  Cu
  O1       1.0000 0.21710  0.89230  0.89380  Biso   1.000  O
  O2       1.0000 0.30950  0.87700  0.95120  Biso   1.000  O
  C13      1.0000 0.26570  0.89930  0.89810  Biso   1.000  C
  C14      1.0000 0.26310  0.94160  0.82740  Biso   1.000  C
  C15      1.0000 0.21640  0.99800  0.79190  Biso   1.000  C
  C16      1.0000 0.31570  0.97850  0.85330  Biso   1.000  C
  C17      1.0000 0.25390  0.89410  0.75580  Biso   1.000  C
  C18      1.0000 0.27190  0.82460  0.76770  Biso   1.000  C
  O3       1.0000 0.23080  0.93600  0.04590  Biso   1.000  O
  O4       1.0000 0.32050  0.90410  0.09940  Biso   1.000  O
  C19      1.0000 0.28190  0.94810  0.08980  Biso   1.000  C
  C20      1.0000 0.29490  0.01800  0.13690  Biso   1.000  C
  H15      1.0000 0.33210  0.01160  0.18680  Biso   1.000  H
  C21      1.0000 0.24950  0.04520  0.16150  Biso   1.000  C
  H16      1.0000 0.21170  0.02360  0.12570  Biso   1.000  H
  H17      1.0000 0.26070  0.03050  0.21740  Biso   1.000  H
  C22      1.0000 0.30050  0.08190  0.09030  Biso   1.000  C
  C23      1.0000 0.25260  0.08150  0.00090  Biso   1.000  C
  H18      1.0000 0.21530  0.07710  0.99900  Biso   1.000  H
  H19      1.0000 0.25840  0.03950  0.97290  Biso   1.000  H
  H20      1.0000 0.25420  0.12750  0.97490  Biso   1.000  H
  C24      1.0000 0.36100  0.08380  0.09250  Biso   1.000  C
  H21      1.0000 0.36350  0.04310  0.06010  Biso   1.000  H
  H22      1.0000 0.39130  0.07850  0.14800  Biso   1.000  H
  H23      1.0000 0.36560  0.13090  0.07080  Biso   1.000  H
  O5       1.0000 0.80160  0.79760  0.93270  Biso   1.000  O
  O6       1.0000 0.71050  0.76340  0.88920  Biso   1.000  O
  C25      1.0000 0.75530  0.76510  0.88450  Biso   1.000  C
  C26      1.0000 0.75910  0.72580  0.81360  Biso   1.000  C
  C27      1.0000 0.81710  0.69660  0.83190  Biso   1.000  C
  H24      1.0000 0.82400  0.64650  0.85550  Biso   1.000  H
  H25      1.0000 0.84820  0.73010  0.86740  Biso   1.000  H
  C28      1.0000 0.73270  0.77820  0.73610  Biso   1.000  C
  C29      1.0000 0.75140  0.85140  0.74940  Biso   1.000  C
  C30      1.0000 0.66850  0.78740  0.69690  Biso   1.000  C
  O7       1.0000 0.32280  0.25750  0.08490  Biso   1.000  O
  O8       1.0000 0.23020  0.23830  0.04660  Biso   1.000  O
  C31      1.0000 0.28290  0.22420  0.08740  Biso   1.000  C
  C32      1.0000 0.30050  0.15240  0.13870  Biso   1.000  C
  C33      1.0000 0.34890  0.16780  0.21430  Biso   1.000  C
  H26      1.0000 0.37900  0.19030  0.20560  Biso   1.000  H
  H27      1.0000 0.36310  0.12170  0.24450  Biso   1.000  H
  H28      1.0000 0.33790  0.20180  0.24480  Biso   1.000  H
  C34      1.0000 0.24750  0.12560  0.15420  Biso   1.000  C
  H29      1.0000 0.25100  0.14840  0.20390  Biso   1.000  H
  H30      1.0000 0.21060  0.14110  0.10880  Biso   1.000  H
  Cu3      1.0000 0.79717  0.86262  0.53850  Biso   1.000  Cu
  Cu4      1.0000 0.69168  0.81690  0.44980  Biso   1.000  Cu
  O9       1.0000 0.76010  0.94080  0.56160  Biso   1.000  O
  O10      1.0000 0.66820  0.91090  0.47610  Biso   1.000  O
  C35      1.0000 0.70630  0.95530  0.52690  Biso   1.000  C
  C36      1.0000 0.68310  0.02670  0.55030  Biso   1.000  C
  C37      1.0000 0.73190  0.05870  0.63340  Biso   1.000  C
  H31      1.0000 0.73190  0.03310  0.67960  Biso   1.000  H
  H32      1.0000 0.77000  0.05370  0.63690  Biso   1.000  H
  C38      1.0000 0.62790  0.01010  0.54670  Biso   1.000  C
  H33      1.0000 0.59770  0.01130  0.49080  Biso   1.000  H
  H34      1.0000 0.61970  0.04710  0.57780  Biso   1.000  H
  H35      1.0000 0.62930  0.96100  0.56920  Biso   1.000  H
  C39      1.0000 0.67860  0.09120  0.49560  Biso   1.000  C
  C40      1.0000 0.72870  0.09300  0.47470  Biso   1.000  C
  H36      1.0000 0.76300  0.07220  0.51940  Biso   1.000  H
  H37      1.0000 0.73610  0.14420  0.46550  Biso   1.000  H
  H38      1.0000 0.71840  0.06390  0.42620  Biso   1.000  H
  C41      1.0000 0.62470  0.09930  0.42530  Biso   1.000  C
  H39      1.0000 0.62240  0.14830  0.40200  Biso   1.000  H
  H40      1.0000 0.59400  0.09400  0.43960  Biso   1.000  H
  H41      1.0000 0.62070  0.06130  0.38620  Biso   1.000  H
  O11      1.0000 0.78900  0.79990  0.61920  Biso   1.000  O
  O12      1.0000 0.69630  0.77370  0.54550  Biso   1.000  O
  C42      1.0000 0.74250  0.76970  0.60860  Biso   1.000  C
  C43      1.0000 0.74550  0.72850  0.68100  Biso   1.000  C
  C44      1.0000 0.80810  0.69630  0.74200  Biso   1.000  C
  H42      1.0000 0.81180  0.64520  0.72630  Biso   1.000  H
  H43      1.0000 0.83790  0.72700  0.73910  Biso   1.000  H
  C45      1.0000 0.70190  0.67390  0.65830  Biso   1.000  C
  H44      1.0000 0.68760  0.67310  0.69750  Biso   1.000  H
  H45      1.0000 0.71760  0.62540  0.65670  Biso   1.000  H
  H46      1.0000 0.67050  0.68580  0.60510  Biso   1.000  H
  O13      1.0000 0.67110  0.27600  0.48780  Biso   1.000  O
  O14      1.0000 0.75930  0.23430  0.55800  Biso   1.000  O
  C46      1.0000 0.70540  0.22800  0.52940  Biso   1.000  C
  C47      1.0000 0.68470  0.15910  0.54800  Biso   1.000  C
  H47      1.0000 0.64540  0.17010  0.53950  Biso   1.000  H
  C48      1.0000 0.71680  0.13250  0.63090  Biso   1.000  C
  H48      1.0000 0.75170  0.16260  0.66000  Biso   1.000  H
  H49      1.0000 0.69320  0.13840  0.65820  Biso   1.000  H
  O15      1.0000 0.21500  0.91230  0.56240  Biso   1.000  O
  O16      1.0000 0.30380  0.86830  0.63750  Biso   1.000  O
  C49      1.0000 0.25930  0.90530  0.62610  Biso   1.000  C
  C50      1.0000 0.26540  0.94450  0.70080  Biso   1.000  C
  H50      1.0000 0.23690  0.98560  0.68330  Biso   1.000  H
  C51      1.0000 0.32750  0.97970  0.74890  Biso   1.000  C
  Co2      1.0000 0.49648  0.58090  0.77893  Biso   1.000  Co
  B3       1.0000 0.52760  0.45130  0.68930  Biso   1.000  B
  H51      1.0000 0.53880  0.41260  0.66170  Biso   1.000  H
  N19      1.0000 0.55540  0.49310  0.83490  Biso   1.000  N
  N20      1.0000 0.56130  0.44280  0.78190  Biso   1.000  N
  C52      1.0000 0.59090  0.46520  0.90390  Biso   1.000  C
  H52      1.0000 0.59980  0.49110  0.95210  Biso   1.000  H
  C53      1.0000 0.59840  0.38840  0.82680  Biso   1.000  C
  H53      1.0000 0.61100  0.34880  0.80630  Biso   1.000  H
  N21      1.0000 0.61440  0.40050  0.90640  Biso   1.000  N
  N22      1.0000 0.44220  0.49420  0.69880  Biso   1.000  N
  N23      1.0000 0.46690  0.44650  0.66610  Biso   1.000  N
  C54      1.0000 0.38940  0.47370  0.66370  Biso   1.000  C
  H54      1.0000 0.36160  0.50000  0.67160  Biso   1.000  H
  C55      1.0000 0.42550  0.40070  0.61700  Biso   1.000  C
  H55      1.0000 0.43110  0.36310  0.58650  Biso   1.000  H
  N24      1.0000 0.37480  0.41350  0.61530  Biso   1.000  N
  N25      1.0000 0.52990  0.58830  0.70050  Biso   1.000  N
  N26      1.0000 0.54040  0.52850  0.67010  Biso   1.000  N
  C56      1.0000 0.54270  0.64520  0.66470  Biso   1.000  C
  H56      1.0000 0.53800  0.69540  0.67500  Biso   1.000  H
  C57      1.0000 0.55680  0.55230  0.61340  Biso   1.000  C
  H57      1.0000 0.56340  0.52040  0.57870  Biso   1.000  H
  N27      1.0000 0.56200  0.62560  0.61460  Biso   1.000  N
  B4       1.0000 0.46130  0.71300  0.85730  Biso   1.000  B
  H58      1.0000 0.44910  0.75400  0.88110  Biso   1.000  H
  N28      1.0000 0.43620  0.66540  0.71870  Biso   1.000  N
  N29      1.0000 0.43000  0.71850  0.76570  Biso   1.000  N
  C58      1.0000 0.40510  0.69040  0.64390  Biso   1.000  C
  H59      1.0000 0.39940  0.66330  0.59770  Biso   1.000  H
  C59      1.0000 0.39760  0.77400  0.71760  Biso   1.000  C
  H60      1.0000 0.38730  0.81750  0.73560  Biso   1.000  H
  N30      1.0000 0.38220  0.75810  0.64050  Biso   1.000  N
  N31      1.0000 0.55070  0.66780  0.85650  Biso   1.000  N
  N32      1.0000 0.52540  0.71850  0.88520  Biso   1.000  N
  C60      1.0000 0.60160  0.69370  0.88310  Biso   1.000  C
  H61      1.0000 0.62990  0.66670  0.87700  Biso   1.000  H
  C61      1.0000 0.56420  0.77250  0.92280  Biso   1.000  C
  H62      1.0000 0.55830  0.81420  0.94820  Biso   1.000  H
  N33      1.0000 0.61330  0.75820  0.91880  Biso   1.000  N
  N34      1.0000 0.46170  0.57720  0.85630  Biso   1.000  N
  N35      1.0000 0.44860  0.63870  0.88300  Biso   1.000  N
  C62      1.0000 0.44610  0.52190  0.88820  Biso   1.000  C
  H63      1.0000 0.45020  0.47110  0.87940  Biso   1.000  H
  C63      1.0000 0.42440  0.61990  0.93080  Biso   1.000  C
  H64      1.0000 0.41070  0.65360  0.95620  Biso   1.000  H
  N36      1.0000 0.42350  0.54720  0.93530  Biso   1.000  N
  Cu5      1.0000 0.69695  0.35002  0.97582  Biso   1.000  Cu
  Cu6      1.0000 0.80583  0.31547  0.03345  Biso   1.000  Cu
  O17      1.0000 0.71710  0.39230  0.89380  Biso   1.000  O
  O18      1.0000 0.80950  0.37700  0.95120  Biso   1.000  O
  C64      1.0000 0.76570  0.39930  0.89810  Biso   1.000  C
  C65      1.0000 0.76310  0.44160  0.82740  Biso   1.000  C
  C66      1.0000 0.71640  0.49800  0.79190  Biso   1.000  C
  C67      1.0000 0.81570  0.47850  0.85330  Biso   1.000  C
  C68      1.0000 0.75390  0.39410  0.75580  Biso   1.000  C
  C69      1.0000 0.77190  0.32460  0.76770  Biso   1.000  C
  O19      1.0000 0.73080  0.43600  0.04590  Biso   1.000  O
  O20      1.0000 0.82050  0.40410  0.09940  Biso   1.000  O
  C70      1.0000 0.78190  0.44810  0.08980  Biso   1.000  C
  C71      1.0000 0.79490  0.51800  0.13690  Biso   1.000  C
  H65      1.0000 0.83210  0.51160  0.18680  Biso   1.000  H
  C72      1.0000 0.74950  0.54520  0.16150  Biso   1.000  C
  H66      1.0000 0.71170  0.52360  0.12570  Biso   1.000  H
  H67      1.0000 0.76070  0.53050  0.21740  Biso   1.000  H
  C73      1.0000 0.80050  0.58190  0.09030  Biso   1.000  C
  C74      1.0000 0.75260  0.58150  0.00090  Biso   1.000  C
  H68      1.0000 0.71530  0.57710  0.99900  Biso   1.000  H
  H69      1.0000 0.75840  0.53950  0.97290  Biso   1.000  H
  H70      1.0000 0.75420  0.62750  0.97490  Biso   1.000  H
  C75      1.0000 0.86100  0.58380  0.09250  Biso   1.000  C
  H71      1.0000 0.86350  0.54310  0.06010  Biso   1.000  H
  H72      1.0000 0.89130  0.57850  0.14800  Biso   1.000  H
  H73      1.0000 0.86560  0.63090  0.07080  Biso   1.000  H
  O21      1.0000 0.30160  0.29760  0.93270  Biso   1.000  O
  O22      1.0000 0.21050  0.26340  0.88920  Biso   1.000  O
  C76      1.0000 0.25530  0.26510  0.88450  Biso   1.000  C
  C77      1.0000 0.25910  0.22580  0.81360  Biso   1.000  C
  C78      1.0000 0.31710  0.19660  0.83190  Biso   1.000  C
  H74      1.0000 0.32400  0.14650  0.85550  Biso   1.000  H
  H75      1.0000 0.34820  0.23010  0.86740  Biso   1.000  H
  C79      1.0000 0.23270  0.27820  0.73610  Biso   1.000  C
  C80      1.0000 0.25140  0.35140  0.74940  Biso   1.000  C
  C81      1.0000 0.16850  0.28740  0.69690  Biso   1.000  C
  O23      1.0000 0.82280  0.75750  0.08490  Biso   1.000  O
  O24      1.0000 0.73020  0.73830  0.04660  Biso   1.000  O
  C82      1.0000 0.78290  0.72420  0.08740  Biso   1.000  C
  C83      1.0000 0.80050  0.65240  0.13870  Biso   1.000  C
  C84      1.0000 0.84890  0.66780  0.21430  Biso   1.000  C
  H76      1.0000 0.87900  0.69030  0.20560  Biso   1.000  H
  H77      1.0000 0.86310  0.62170  0.24450  Biso   1.000  H
  H78      1.0000 0.83790  0.70180  0.24480  Biso   1.000  H
  C85      1.0000 0.74750  0.62560  0.15420  Biso   1.000  C
  H79      1.0000 0.75100  0.64840  0.20390  Biso   1.000  H
  H80      1.0000 0.71060  0.64110  0.10880  Biso   1.000  H
  Cu7      1.0000 0.29717  0.36262  0.53850  Biso   1.000  Cu
  Cu8      1.0000 0.19168  0.31690  0.44980  Biso   1.000  Cu
  O25      1.0000 0.26010  0.44080  0.56160  Biso   1.000  O
  O26      1.0000 0.16820  0.41090  0.47610  Biso   1.000  O
  C86      1.0000 0.20630  0.45530  0.52690  Biso   1.000  C
  C87      1.0000 0.18310  0.52670  0.55030  Biso   1.000  C
  C88      1.0000 0.23190  0.55870  0.63340  Biso   1.000  C
  H81      1.0000 0.23190  0.53310  0.67960  Biso   1.000  H
  H82      1.0000 0.27000  0.55370  0.63690  Biso   1.000  H
  C89      1.0000 0.12790  0.51010  0.54670  Biso   1.000  C
  H83      1.0000 0.09770  0.51130  0.49080  Biso   1.000  H
  H84      1.0000 0.11970  0.54710  0.57780  Biso   1.000  H
  H85      1.0000 0.12930  0.46100  0.56920  Biso   1.000  H
  C90      1.0000 0.17860  0.59120  0.49560  Biso   1.000  C
  C91      1.0000 0.22870  0.59300  0.47470  Biso   1.000  C
  H86      1.0000 0.26300  0.57220  0.51940  Biso   1.000  H
  H87      1.0000 0.23610  0.64420  0.46550  Biso   1.000  H
  H88      1.0000 0.21840  0.56390  0.42620  Biso   1.000  H
  C92      1.0000 0.12470  0.59930  0.42530  Biso   1.000  C
  H89      1.0000 0.12240  0.64830  0.40200  Biso   1.000  H
  H90      1.0000 0.09400  0.59400  0.43960  Biso   1.000  H
  H91      1.0000 0.12070  0.56130  0.38620  Biso   1.000  H
  O27      1.0000 0.28900  0.29990  0.61920  Biso   1.000  O
  O28      1.0000 0.19630  0.27370  0.54550  Biso   1.000  O
  C93      1.0000 0.24250  0.26970  0.60860  Biso   1.000  C
  C94      1.0000 0.24550  0.22850  0.68100  Biso   1.000  C
  C95      1.0000 0.30810  0.19630  0.74200  Biso   1.000  C
  H92      1.0000 0.31180  0.14520  0.72630  Biso   1.000  H
  H93      1.0000 0.33790  0.22700  0.73910  Biso   1.000  H
  C96      1.0000 0.20190  0.17390  0.65830  Biso   1.000  C
  H94      1.0000 0.18760  0.17310  0.69750  Biso   1.000  H
  H95      1.0000 0.21760  0.12540  0.65670  Biso   1.000  H
  H96      1.0000 0.17050  0.18580  0.60510  Biso   1.000  H
  O29      1.0000 0.17110  0.77600  0.48780  Biso   1.000  O
  O30      1.0000 0.25930  0.73430  0.55800  Biso   1.000  O
  C97      1.0000 0.20540  0.72800  0.52940  Biso   1.000  C
  C98      1.0000 0.18470  0.65910  0.54800  Biso   1.000  C
  H97      1.0000 0.14540  0.67010  0.53950  Biso   1.000  H
  C99      1.0000 0.21680  0.63250  0.63090  Biso   1.000  C
  H98      1.0000 0.25170  0.66260  0.66000  Biso   1.000  H
  H99      1.0000 0.19320  0.63840  0.65820  Biso   1.000  H
  O31      1.0000 0.71500  0.41230  0.56240  Biso   1.000  O
  O32      1.0000 0.80380  0.36830  0.63750  Biso   1.000  O
  C100     1.0000 0.75930  0.40530  0.62610  Biso   1.000  C
  C101     1.0000 0.76540  0.44450  0.70080  Biso   1.000  C
  H100     1.0000 0.73690  0.48560  0.68330  Biso   1.000  H
  C102     1.0000 0.82750  0.47970  0.74890  Biso   1.000  C
  Co3      1.0000 0.00352  0.08090  0.22107  Biso   1.000  Co
  B5       1.0000 0.97240  0.95130  0.31070  Biso   1.000  B
  H101     1.0000 0.96120  0.91260  0.33830  Biso   1.000  H
  N37      1.0000 0.94460  0.99310  0.16510  Biso   1.000  N
  N38      1.0000 0.93870  0.94280  0.21810  Biso   1.000  N
  C103     1.0000 0.90910  0.96520  0.09610  Biso   1.000  C
  H102     1.0000 0.90020  0.99110  0.04790  Biso   1.000  H
  C104     1.0000 0.90160  0.88840  0.17320  Biso   1.000  C
  H103     1.0000 0.88900  0.84880  0.19370  Biso   1.000  H
  N39      1.0000 0.88560  0.90050  0.09360  Biso   1.000  N
  N40      1.0000 0.05780  0.99420  0.30120  Biso   1.000  N
  N41      1.0000 0.03310  0.94650  0.33390  Biso   1.000  N
  C105     1.0000 0.11060  0.97370  0.33630  Biso   1.000  C
  H104     1.0000 0.13840  0.00000  0.32840  Biso   1.000  H
  C106     1.0000 0.07450  0.90070  0.38300  Biso   1.000  C
  H105     1.0000 0.06890  0.86310  0.41350  Biso   1.000  H
  N42      1.0000 0.12520  0.91350  0.38470  Biso   1.000  N
  N43      1.0000 0.97010  0.08830  0.29950  Biso   1.000  N
  N44      1.0000 0.95960  0.02850  0.32990  Biso   1.000  N
  C107     1.0000 0.95730  0.14520  0.33530  Biso   1.000  C
  H106     1.0000 0.96200  0.19540  0.32500  Biso   1.000  H
  C108     1.0000 0.94320  0.05230  0.38660  Biso   1.000  C
  H107     1.0000 0.93660  0.02040  0.42130  Biso   1.000  H
  N45      1.0000 0.93800  0.12560  0.38540  Biso   1.000  N
  B6       1.0000 0.03870  0.21300  0.14270  Biso   1.000  B
  H108     1.0000 0.05090  0.25400  0.11890  Biso   1.000  H
  N46      1.0000 0.06380  0.16540  0.28130  Biso   1.000  N
  N47      1.0000 0.07000  0.21850  0.23430  Biso   1.000  N
  C109     1.0000 0.09490  0.19040  0.35610  Biso   1.000  C
  H109     1.0000 0.10060  0.16330  0.40230  Biso   1.000  H
  C110     1.0000 0.10240  0.27400  0.28240  Biso   1.000  C
  H110     1.0000 0.11270  0.31750  0.26440  Biso   1.000  H
  N48      1.0000 0.11780  0.25810  0.35950  Biso   1.000  N
  N49      1.0000 0.94930  0.16780  0.14350  Biso   1.000  N
  N50      1.0000 0.97460  0.21850  0.11480  Biso   1.000  N
  C111     1.0000 0.89840  0.19370  0.11690  Biso   1.000  C
  H111     1.0000 0.87010  0.16670  0.12300  Biso   1.000  H
  C112     1.0000 0.93580  0.27250  0.07720  Biso   1.000  C
  H112     1.0000 0.94170  0.31420  0.05180  Biso   1.000  H
  N51      1.0000 0.88670  0.25820  0.08120  Biso   1.000  N
  N52      1.0000 0.03830  0.07720  0.14370  Biso   1.000  N
  N53      1.0000 0.05140  0.13870  0.11700  Biso   1.000  N
  C113     1.0000 0.05390  0.02190  0.11180  Biso   1.000  C
  H113     1.0000 0.04980  0.97110  0.12060  Biso   1.000  H
  C114     1.0000 0.07560  0.11990  0.06920  Biso   1.000  C
  H114     1.0000 0.08930  0.15360  0.04380  Biso   1.000  H
  N54      1.0000 0.07650  0.04720  0.06470  Biso   1.000  N
  Cu9      1.0000 0.80305  0.85002  0.02418  Biso   1.000  Cu
  Cu10     1.0000 0.69417  0.81547  0.96655  Biso   1.000  Cu
  O33      1.0000 0.78290  0.89230  0.10620  Biso   1.000  O
  O34      1.0000 0.69050  0.87700  0.04880  Biso   1.000  O
  C115     1.0000 0.73430  0.89930  0.10190  Biso   1.000  C
  C116     1.0000 0.73690  0.94160  0.17260  Biso   1.000  C
  C117     1.0000 0.78360  0.99800  0.20810  Biso   1.000  C
  C118     1.0000 0.68430  0.97850  0.14670  Biso   1.000  C
  C119     1.0000 0.74610  0.89410  0.24420  Biso   1.000  C
  C120     1.0000 0.72810  0.82460  0.23230  Biso   1.000  C
  O35      1.0000 0.76920  0.93600  0.95410  Biso   1.000  O
  O36      1.0000 0.67950  0.90410  0.90060  Biso   1.000  O
  C121     1.0000 0.71810  0.94810  0.91020  Biso   1.000  C
  C122     1.0000 0.70510  0.01800  0.86310  Biso   1.000  C
  H115     1.0000 0.66790  0.01160  0.81320  Biso   1.000  H
  C123     1.0000 0.75050  0.04520  0.83850  Biso   1.000  C
  H116     1.0000 0.78830  0.02360  0.87430  Biso   1.000  H
  H117     1.0000 0.73930  0.03050  0.78260  Biso   1.000  H
  C124     1.0000 0.69950  0.08190  0.90970  Biso   1.000  C
  C125     1.0000 0.74740  0.08150  0.99910  Biso   1.000  C
  H118     1.0000 0.78470  0.07710  0.00100  Biso   1.000  H
  H119     1.0000 0.74160  0.03950  0.02710  Biso   1.000  H
  H120     1.0000 0.74580  0.12750  0.02510  Biso   1.000  H
  C126     1.0000 0.63900  0.08380  0.90750  Biso   1.000  C
  H121     1.0000 0.63650  0.04310  0.93990  Biso   1.000  H
  H122     1.0000 0.60870  0.07850  0.85200  Biso   1.000  H
  H123     1.0000 0.63440  0.13090  0.92920  Biso   1.000  H
  O37      1.0000 0.19840  0.79760  0.06730  Biso   1.000  O
  O38      1.0000 0.28950  0.76340  0.11080  Biso   1.000  O
  C127     1.0000 0.24470  0.76510  0.11550  Biso   1.000  C
  C128     1.0000 0.24090  0.72580  0.18640  Biso   1.000  C
  C129     1.0000 0.18290  0.69660  0.16810  Biso   1.000  C
  H124     1.0000 0.17600  0.64650  0.14450  Biso   1.000  H
  H125     1.0000 0.15180  0.73010  0.13260  Biso   1.000  H
  C130     1.0000 0.26730  0.77820  0.26390  Biso   1.000  C
  C131     1.0000 0.24860  0.85140  0.25060  Biso   1.000  C
  C132     1.0000 0.33150  0.78740  0.30310  Biso   1.000  C
  O39      1.0000 0.67720  0.25750  0.91510  Biso   1.000  O
  O40      1.0000 0.76980  0.23830  0.95340  Biso   1.000  O
  C133     1.0000 0.71710  0.22420  0.91260  Biso   1.000  C
  C134     1.0000 0.69950  0.15240  0.86130  Biso   1.000  C
  C135     1.0000 0.65110  0.16780  0.78570  Biso   1.000  C
  H126     1.0000 0.62100  0.19030  0.79440  Biso   1.000  H
  H127     1.0000 0.63690  0.12170  0.75550  Biso   1.000  H
  H128     1.0000 0.66210  0.20180  0.75520  Biso   1.000  H
  C136     1.0000 0.75250  0.12560  0.84580  Biso   1.000  C
  H129     1.0000 0.74900  0.14840  0.79610  Biso   1.000  H
  H130     1.0000 0.78940  0.14110  0.89120  Biso   1.000  H
  Cu11     1.0000 0.20283  0.86262  0.46150  Biso   1.000  Cu
  Cu12     1.0000 0.30832  0.81690  0.55020  Biso   1.000  Cu
  O41      1.0000 0.23990  0.94080  0.43840  Biso   1.000  O
  O42      1.0000 0.33180  0.91090  0.52390  Biso   1.000  O
  C137     1.0000 0.29370  0.95530  0.47310  Biso   1.000  C
  C138     1.0000 0.31690  0.02670  0.44970  Biso   1.000  C
  C139     1.0000 0.26810  0.05870  0.36660  Biso   1.000  C
  H131     1.0000 0.26810  0.03310  0.32040  Biso   1.000  H
  H132     1.0000 0.23000  0.05370  0.36310  Biso   1.000  H
  C140     1.0000 0.37210  0.01010  0.45330  Biso   1.000  C
  H133     1.0000 0.40230  0.01130  0.50920  Biso   1.000  H
  H134     1.0000 0.38030  0.04710  0.42220  Biso   1.000  H
  H135     1.0000 0.37070  0.96100  0.43080  Biso   1.000  H
  C141     1.0000 0.32140  0.09120  0.50440  Biso   1.000  C
  C142     1.0000 0.27130  0.09300  0.52530  Biso   1.000  C
  H136     1.0000 0.23700  0.07220  0.48060  Biso   1.000  H
  H137     1.0000 0.26390  0.14420  0.53450  Biso   1.000  H
  H138     1.0000 0.28160  0.06390  0.57380  Biso   1.000  H
  C143     1.0000 0.37530  0.09930  0.57470  Biso   1.000  C
  H139     1.0000 0.37760  0.14830  0.59800  Biso   1.000  H
  H140     1.0000 0.40600  0.09400  0.56040  Biso   1.000  H
  H141     1.0000 0.37930  0.06130  0.61380  Biso   1.000  H
  O43      1.0000 0.21100  0.79990  0.38080  Biso   1.000  O
  O44      1.0000 0.30370  0.77370  0.45450  Biso   1.000  O
  C144     1.0000 0.25750  0.76970  0.39140  Biso   1.000  C
  C145     1.0000 0.25450  0.72850  0.31900  Biso   1.000  C
  C146     1.0000 0.19190  0.69630  0.25800  Biso   1.000  C
  H142     1.0000 0.18820  0.64520  0.27370  Biso   1.000  H
  H143     1.0000 0.16210  0.72700  0.26090  Biso   1.000  H
  C147     1.0000 0.29810  0.67390  0.34170  Biso   1.000  C
  H144     1.0000 0.31240  0.67310  0.30250  Biso   1.000  H
  H145     1.0000 0.28240  0.62540  0.34330  Biso   1.000  H
  H146     1.0000 0.32950  0.68580  0.39490  Biso   1.000  H
  O45      1.0000 0.32890  0.27600  0.51220  Biso   1.000  O
  O46      1.0000 0.24070  0.23430  0.44200  Biso   1.000  O
  C148     1.0000 0.29460  0.22800  0.47060  Biso   1.000  C
  C149     1.0000 0.31530  0.15910  0.45200  Biso   1.000  C
  H147     1.0000 0.35460  0.17010  0.46050  Biso   1.000  H
  C150     1.0000 0.28320  0.13250  0.36910  Biso   1.000  C
  H148     1.0000 0.24830  0.16260  0.34000  Biso   1.000  H
  H149     1.0000 0.30680  0.13840  0.34180  Biso   1.000  H
  O47      1.0000 0.78500  0.91230  0.43760  Biso   1.000  O
  O48      1.0000 0.69620  0.86830  0.36250  Biso   1.000  O
  C151     1.0000 0.74070  0.90530  0.37390  Biso   1.000  C
  C152     1.0000 0.73460  0.94450  0.29920  Biso   1.000  C
  H150     1.0000 0.76310  0.98560  0.31670  Biso   1.000  H
  C153     1.0000 0.67250  0.97970  0.25110  Biso   1.000  C
  Co4      1.0000 0.50352  0.58090  0.22107  Biso   1.000  Co
  B7       1.0000 0.47240  0.45130  0.31070  Biso   1.000  B
  H151     1.0000 0.46120  0.41260  0.33830  Biso   1.000  H
  N55      1.0000 0.44460  0.49310  0.16510  Biso   1.000  N
  N56      1.0000 0.43870  0.44280  0.21810  Biso   1.000  N
  C154     1.0000 0.40910  0.46520  0.09610  Biso   1.000  C
  H152     1.0000 0.40020  0.49110  0.04790  Biso   1.000  H
  C155     1.0000 0.40160  0.38840  0.17320  Biso   1.000  C
  H153     1.0000 0.38900  0.34880  0.19370  Biso   1.000  H
  N57      1.0000 0.38560  0.40050  0.09360  Biso   1.000  N
  N58      1.0000 0.55780  0.49420  0.30120  Biso   1.000  N
  N59      1.0000 0.53310  0.44650  0.33390  Biso   1.000  N
  C156     1.0000 0.61060  0.47370  0.33630  Biso   1.000  C
  H154     1.0000 0.63840  0.50000  0.32840  Biso   1.000  H
  C157     1.0000 0.57450  0.40070  0.38300  Biso   1.000  C
  H155     1.0000 0.56890  0.36310  0.41350  Biso   1.000  H
  N60      1.0000 0.62520  0.41350  0.38470  Biso   1.000  N
  N61      1.0000 0.47010  0.58830  0.29950  Biso   1.000  N
  N62      1.0000 0.45960  0.52850  0.32990  Biso   1.000  N
  C158     1.0000 0.45730  0.64520  0.33530  Biso   1.000  C
  H156     1.0000 0.46200  0.69540  0.32500  Biso   1.000  H
  C159     1.0000 0.44320  0.55230  0.38660  Biso   1.000  C
  H157     1.0000 0.43660  0.52040  0.42130  Biso   1.000  H
  N63      1.0000 0.43800  0.62560  0.38540  Biso   1.000  N
  B8       1.0000 0.53870  0.71300  0.14270  Biso   1.000  B
  H158     1.0000 0.55090  0.75400  0.11890  Biso   1.000  H
  N64      1.0000 0.56380  0.66540  0.28130  Biso   1.000  N
  N65      1.0000 0.57000  0.71850  0.23430  Biso   1.000  N
  C160     1.0000 0.59490  0.69040  0.35610  Biso   1.000  C
  H159     1.0000 0.60060  0.66330  0.40230  Biso   1.000  H
  C161     1.0000 0.60240  0.77400  0.28240  Biso   1.000  C
  H160     1.0000 0.61270  0.81750  0.26440  Biso   1.000  H
  N66      1.0000 0.61780  0.75810  0.35950  Biso   1.000  N
  N67      1.0000 0.44930  0.66780  0.14350  Biso   1.000  N
  N68      1.0000 0.47460  0.71850  0.11480  Biso   1.000  N
  C162     1.0000 0.39840  0.69370  0.11690  Biso   1.000  C
  H161     1.0000 0.37010  0.66670  0.12300  Biso   1.000  H
  C163     1.0000 0.43580  0.77250  0.07720  Biso   1.000  C
  H162     1.0000 0.44170  0.81420  0.05180  Biso   1.000  H
  N69      1.0000 0.38670  0.75820  0.08120  Biso   1.000  N
  N70      1.0000 0.53830  0.57720  0.14370  Biso   1.000  N
  N71      1.0000 0.55140  0.63870  0.11700  Biso   1.000  N
  C164     1.0000 0.55390  0.52190  0.11180  Biso   1.000  C
  H163     1.0000 0.54980  0.47110  0.12060  Biso   1.000  H
  C165     1.0000 0.57560  0.61990  0.06920  Biso   1.000  C
  H164     1.0000 0.58930  0.65360  0.04380  Biso   1.000  H
  N72      1.0000 0.57650  0.54720  0.06470  Biso   1.000  N
  Cu13     1.0000 0.30305  0.35002  0.02418  Biso   1.000  Cu
  Cu14     1.0000 0.19417  0.31547  0.96655  Biso   1.000  Cu
  O49      1.0000 0.28290  0.39230  0.10620  Biso   1.000  O
  O50      1.0000 0.19050  0.37700  0.04880  Biso   1.000  O
  C166     1.0000 0.23430  0.39930  0.10190  Biso   1.000  C
  C167     1.0000 0.23690  0.44160  0.17260  Biso   1.000  C
  C168     1.0000 0.28360  0.49800  0.20810  Biso   1.000  C
  C169     1.0000 0.18430  0.47850  0.14670  Biso   1.000  C
  C170     1.0000 0.24610  0.39410  0.24420  Biso   1.000  C
  C171     1.0000 0.22810  0.32460  0.23230  Biso   1.000  C
  O51      1.0000 0.26920  0.43600  0.95410  Biso   1.000  O
  O52      1.0000 0.17950  0.40410  0.90060  Biso   1.000  O
  C172     1.0000 0.21810  0.44810  0.91020  Biso   1.000  C
  C173     1.0000 0.20510  0.51800  0.86310  Biso   1.000  C
  H165     1.0000 0.16790  0.51160  0.81320  Biso   1.000  H
  C174     1.0000 0.25050  0.54520  0.83850  Biso   1.000  C
  H166     1.0000 0.28830  0.52360  0.87430  Biso   1.000  H
  H167     1.0000 0.23930  0.53050  0.78260  Biso   1.000  H
  C175     1.0000 0.19950  0.58190  0.90970  Biso   1.000  C
  C176     1.0000 0.24740  0.58150  0.99910  Biso   1.000  C
  H168     1.0000 0.28470  0.57710  0.00100  Biso   1.000  H
  H169     1.0000 0.24160  0.53950  0.02710  Biso   1.000  H
  H170     1.0000 0.24580  0.62750  0.02510  Biso   1.000  H
  C177     1.0000 0.13900  0.58380  0.90750  Biso   1.000  C
  H171     1.0000 0.13650  0.54310  0.93990  Biso   1.000  H
  H172     1.0000 0.10870  0.57850  0.85200  Biso   1.000  H
  H173     1.0000 0.13440  0.63090  0.92920  Biso   1.000  H
  O53      1.0000 0.69840  0.29760  0.06730  Biso   1.000  O
  O54      1.0000 0.78950  0.26340  0.11080  Biso   1.000  O
  C178     1.0000 0.74470  0.26510  0.11550  Biso   1.000  C
  C179     1.0000 0.74090  0.22580  0.18640  Biso   1.000  C
  C180     1.0000 0.68290  0.19660  0.16810  Biso   1.000  C
  H174     1.0000 0.67600  0.14650  0.14450  Biso   1.000  H
  H175     1.0000 0.65180  0.23010  0.13260  Biso   1.000  H
  C181     1.0000 0.76730  0.27820  0.26390  Biso   1.000  C
  C182     1.0000 0.74860  0.35140  0.25060  Biso   1.000  C
  C183     1.0000 0.83150  0.28740  0.30310  Biso   1.000  C
  O55      1.0000 0.17720  0.75750  0.91510  Biso   1.000  O
  O56      1.0000 0.26980  0.73830  0.95340  Biso   1.000  O
  C184     1.0000 0.21710  0.72420  0.91260  Biso   1.000  C
  C185     1.0000 0.19950  0.65240  0.86130  Biso   1.000  C
  C186     1.0000 0.15110  0.66780  0.78570  Biso   1.000  C
  H176     1.0000 0.12100  0.69030  0.79440  Biso   1.000  H
  H177     1.0000 0.13690  0.62170  0.75550  Biso   1.000  H
  H178     1.0000 0.16210  0.70180  0.75520  Biso   1.000  H
  C187     1.0000 0.25250  0.62560  0.84580  Biso   1.000  C
  H179     1.0000 0.24900  0.64840  0.79610  Biso   1.000  H
  H180     1.0000 0.28940  0.64110  0.89120  Biso   1.000  H
  Cu15     1.0000 0.70283  0.36262  0.46150  Biso   1.000  Cu
  Cu16     1.0000 0.80832  0.31690  0.55020  Biso   1.000  Cu
  O57      1.0000 0.73990  0.44080  0.43840  Biso   1.000  O
  O58      1.0000 0.83180  0.41090  0.52390  Biso   1.000  O
  C188     1.0000 0.79370  0.45530  0.47310  Biso   1.000  C
  C189     1.0000 0.81690  0.52670  0.44970  Biso   1.000  C
  C190     1.0000 0.76810  0.55870  0.36660  Biso   1.000  C
  H181     1.0000 0.76810  0.53310  0.32040  Biso   1.000  H
  H182     1.0000 0.73000  0.55370  0.36310  Biso   1.000  H
  C191     1.0000 0.87210  0.51010  0.45330  Biso   1.000  C
  H183     1.0000 0.90230  0.51130  0.50920  Biso   1.000  H
  H184     1.0000 0.88030  0.54710  0.42220  Biso   1.000  H
  H185     1.0000 0.87070  0.46100  0.43080  Biso   1.000  H
  C192     1.0000 0.82140  0.59120  0.50440  Biso   1.000  C
  C193     1.0000 0.77130  0.59300  0.52530  Biso   1.000  C
  H186     1.0000 0.73700  0.57220  0.48060  Biso   1.000  H
  H187     1.0000 0.76390  0.64420  0.53450  Biso   1.000  H
  H188     1.0000 0.78160  0.56390  0.57380  Biso   1.000  H
  C194     1.0000 0.87530  0.59930  0.57470  Biso   1.000  C
  H189     1.0000 0.87760  0.64830  0.59800  Biso   1.000  H
  H190     1.0000 0.90600  0.59400  0.56040  Biso   1.000  H
  H191     1.0000 0.87930  0.56130  0.61380  Biso   1.000  H
  O59      1.0000 0.71100  0.29990  0.38080  Biso   1.000  O
  O60      1.0000 0.80370  0.27370  0.45450  Biso   1.000  O
  C195     1.0000 0.75750  0.26970  0.39140  Biso   1.000  C
  C196     1.0000 0.75450  0.22850  0.31900  Biso   1.000  C
  C197     1.0000 0.69190  0.19630  0.25800  Biso   1.000  C
  H192     1.0000 0.68820  0.14520  0.27370  Biso   1.000  H
  H193     1.0000 0.66210  0.22700  0.26090  Biso   1.000  H
  C198     1.0000 0.79810  0.17390  0.34170  Biso   1.000  C
  H194     1.0000 0.81240  0.17310  0.30250  Biso   1.000  H
  H195     1.0000 0.78240  0.12540  0.34330  Biso   1.000  H
  H196     1.0000 0.82950  0.18580  0.39490  Biso   1.000  H
  O61      1.0000 0.82890  0.77600  0.51220  Biso   1.000  O
  O62      1.0000 0.74070  0.73430  0.44200  Biso   1.000  O
  C199     1.0000 0.79460  0.72800  0.47060  Biso   1.000  C
  C200     1.0000 0.81530  0.65910  0.45200  Biso   1.000  C
  H197     1.0000 0.85460  0.67010  0.46050  Biso   1.000  H
  C201     1.0000 0.78320  0.63250  0.36910  Biso   1.000  C
  H198     1.0000 0.74830  0.66260  0.34000  Biso   1.000  H
  H199     1.0000 0.80680  0.63840  0.34180  Biso   1.000  H
  O63      1.0000 0.28500  0.41230  0.43760  Biso   1.000  O
  O64      1.0000 0.19620  0.36830  0.36250  Biso   1.000  O
  C202     1.0000 0.24070  0.40530  0.37390  Biso   1.000  C
  C203     1.0000 0.23460  0.44450  0.29920  Biso   1.000  C
  H200     1.0000 0.26310  0.48560  0.31670  Biso   1.000  H
  C204     1.0000 0.17250  0.47970  0.25110  Biso   1.000  C
