data_image0
_cell_length_a       26.2174
_cell_length_b       26.2174
_cell_length_c       9.5734
_cell_angle_alpha    90
_cell_angle_beta     90
_cell_angle_gamma    120

_symmetry_space_group_name_H-M    "P 1"
_symmetry_int_tables_number       1

loop_
  _symmetry_equiv_pos_as_xyz
  'x, y, z'

loop_
  _atom_site_label
  _atom_site_occupancy
  _atom_site_fract_x
  _atom_site_fract_y
  _atom_site_fract_z
  _atom_site_thermal_displace_type
  _atom_site_B_iso_or_equiv
  _atom_site_type_symbol
  N1       1.0000 0.44566  0.99845  0.85870  Biso   1.000  N
  C1       1.0000 0.60326  0.11858  0.99380  Biso   1.000  C
  H1       1.0000 0.62350  0.09790  0.99210  Biso   1.000  H
  C2       1.0000 0.63551  0.17955  0.99570  Biso   1.000  C
  H2       1.0000 0.67650  0.19930  0.99620  Biso   1.000  H
  C3       1.0000 0.40810  0.99340  0.78590  Biso   1.000  C
  N2       1.0000 0.11233  0.33178  0.19203  Biso   1.000  N
  C4       1.0000 0.26993  0.45191  0.32713  Biso   1.000  C
  H3       1.0000 0.29017  0.43123  0.32543  Biso   1.000  H
  C5       1.0000 0.30218  0.51288  0.32903  Biso   1.000  C
  H4       1.0000 0.34317  0.53263  0.32953  Biso   1.000  H
  C6       1.0000 0.07477  0.32673  0.11923  Biso   1.000  C
  N3       1.0000 0.77899  0.66512  0.52537  Biso   1.000  N
  C7       1.0000 0.93659  0.78525  0.66047  Biso   1.000  C
  H5       1.0000 0.95683  0.76457  0.65877  Biso   1.000  H
  C8       1.0000 0.96884  0.84622  0.66237  Biso   1.000  C
  H6       1.0000 0.00983  0.86597  0.66287  Biso   1.000  H
  C9       1.0000 0.74143  0.66007  0.45257  Biso   1.000  C
  N4       1.0000 0.00155  0.44721  0.85870  Biso   1.000  N
  C10      1.0000 0.88142  0.48468  0.99380  Biso   1.000  C
  H7       1.0000 0.90210  0.52560  0.99210  Biso   1.000  H
  C11      1.0000 0.82045  0.45596  0.99570  Biso   1.000  C
  H8       1.0000 0.80070  0.47720  0.99620  Biso   1.000  H
  C12      1.0000 0.00660  0.41470  0.78590  Biso   1.000  C
  N5       1.0000 0.66822  0.78054  0.19203  Biso   1.000  N
  C13      1.0000 0.54809  0.81801  0.32713  Biso   1.000  C
  H9       1.0000 0.56877  0.85893  0.32543  Biso   1.000  H
  C14      1.0000 0.48712  0.78929  0.32903  Biso   1.000  C
  H10      1.0000 0.46737  0.81053  0.32953  Biso   1.000  H
  C15      1.0000 0.67327  0.74803  0.11923  Biso   1.000  C
  N6       1.0000 0.33488  0.11388  0.52537  Biso   1.000  N
  C16      1.0000 0.21475  0.15135  0.66047  Biso   1.000  C
  H11      1.0000 0.23543  0.19227  0.65877  Biso   1.000  H
  C17      1.0000 0.15378  0.12263  0.66237  Biso   1.000  C
  H12      1.0000 0.13403  0.14387  0.66287  Biso   1.000  H
  C18      1.0000 0.33993  0.08137  0.45257  Biso   1.000  C
  N7       1.0000 0.55279  0.55434  0.85870  Biso   1.000  N
  C19      1.0000 0.51532  0.39674  0.99380  Biso   1.000  C
  H13      1.0000 0.47440  0.37650  0.99210  Biso   1.000  H
  C20      1.0000 0.54404  0.36449  0.99570  Biso   1.000  C
  H14      1.0000 0.52280  0.32350  0.99620  Biso   1.000  H
  C21      1.0000 0.58530  0.59190  0.78590  Biso   1.000  C
  N8       1.0000 0.21946  0.88767  0.19203  Biso   1.000  N
  C22      1.0000 0.18199  0.73007  0.32713  Biso   1.000  C
  H15      1.0000 0.14107  0.70983  0.32543  Biso   1.000  H
  C23      1.0000 0.21071  0.69782  0.32903  Biso   1.000  C
  H16      1.0000 0.18947  0.65683  0.32953  Biso   1.000  H
  C24      1.0000 0.25197  0.92523  0.11923  Biso   1.000  C
  N9       1.0000 0.88612  0.22101  0.52537  Biso   1.000  N
  C25      1.0000 0.84865  0.06341  0.66047  Biso   1.000  C
  H17      1.0000 0.80773  0.04317  0.65877  Biso   1.000  H
  C26      1.0000 0.87737  0.03116  0.66237  Biso   1.000  C
  H18      1.0000 0.85613  0.99017  0.66287  Biso   1.000  H
  C27      1.0000 0.91863  0.25857  0.45257  Biso   1.000  C
  N10      1.0000 0.99845  0.44566  0.14130  Biso   1.000  N
  C28      1.0000 0.11858  0.60326  0.00620  Biso   1.000  C
  H19      1.0000 0.09790  0.62350  0.00790  Biso   1.000  H
  C29      1.0000 0.17955  0.63551  0.00430  Biso   1.000  C
  H20      1.0000 0.19930  0.67650  0.00380  Biso   1.000  H
  C30      1.0000 0.99340  0.40810  0.21410  Biso   1.000  C
  N11      1.0000 0.66512  0.77899  0.47463  Biso   1.000  N
  C31      1.0000 0.78525  0.93659  0.33953  Biso   1.000  C
  H21      1.0000 0.76457  0.95683  0.34123  Biso   1.000  H
  C32      1.0000 0.84622  0.96884  0.33763  Biso   1.000  C
  H22      1.0000 0.86597  0.00983  0.33713  Biso   1.000  H
  C33      1.0000 0.66007  0.74143  0.54743  Biso   1.000  C
  N12      1.0000 0.33178  0.11233  0.80797  Biso   1.000  N
  C34      1.0000 0.45191  0.26993  0.67287  Biso   1.000  C
  H23      1.0000 0.43123  0.29017  0.67457  Biso   1.000  H
  C35      1.0000 0.51288  0.30218  0.67097  Biso   1.000  C
  H24      1.0000 0.53263  0.34317  0.67047  Biso   1.000  H
  C36      1.0000 0.32673  0.07477  0.88077  Biso   1.000  C
  N13      1.0000 0.44721  0.00155  0.14130  Biso   1.000  N
  C37      1.0000 0.48468  0.88142  0.00620  Biso   1.000  C
  H25      1.0000 0.52560  0.90210  0.00790  Biso   1.000  H
  C38      1.0000 0.45596  0.82045  0.00430  Biso   1.000  C
  H26      1.0000 0.47720  0.80070  0.00380  Biso   1.000  H
  C39      1.0000 0.41470  0.00660  0.21410  Biso   1.000  C
  N14      1.0000 0.11388  0.33488  0.47463  Biso   1.000  N
  C40      1.0000 0.15135  0.21475  0.33953  Biso   1.000  C
  H27      1.0000 0.19227  0.23543  0.34123  Biso   1.000  H
  C41      1.0000 0.12263  0.15378  0.33763  Biso   1.000  C
  H28      1.0000 0.14387  0.13403  0.33713  Biso   1.000  H
  C42      1.0000 0.08137  0.33993  0.54743  Biso   1.000  C
  N15      1.0000 0.78054  0.66822  0.80797  Biso   1.000  N
  C43      1.0000 0.81801  0.54809  0.67287  Biso   1.000  C
  H29      1.0000 0.85893  0.56877  0.67457  Biso   1.000  H
  C44      1.0000 0.78929  0.48712  0.67097  Biso   1.000  C
  H30      1.0000 0.81053  0.46737  0.67047  Biso   1.000  H
  C45      1.0000 0.74803  0.67327  0.88077  Biso   1.000  C
  N16      1.0000 0.55434  0.55279  0.14130  Biso   1.000  N
  C46      1.0000 0.39674  0.51532  0.00620  Biso   1.000  C
  H31      1.0000 0.37650  0.47440  0.00790  Biso   1.000  H
  C47      1.0000 0.36449  0.54404  0.00430  Biso   1.000  C
  H32      1.0000 0.32350  0.52280  0.00380  Biso   1.000  H
  C48      1.0000 0.59190  0.58530  0.21410  Biso   1.000  C
  N17      1.0000 0.22101  0.88612  0.47463  Biso   1.000  N
  C49      1.0000 0.06341  0.84865  0.33953  Biso   1.000  C
  H33      1.0000 0.04317  0.80773  0.34123  Biso   1.000  H
  C50      1.0000 0.03116  0.87737  0.33763  Biso   1.000  C
  H34      1.0000 0.99017  0.85613  0.33713  Biso   1.000  H
  C51      1.0000 0.25857  0.91863  0.54743  Biso   1.000  C
  N18      1.0000 0.88767  0.21946  0.80797  Biso   1.000  N
  C52      1.0000 0.73007  0.18199  0.67287  Biso   1.000  C
  H35      1.0000 0.70983  0.14107  0.67457  Biso   1.000  H
  C53      1.0000 0.69782  0.21071  0.67097  Biso   1.000  C
  H36      1.0000 0.65683  0.18947  0.67047  Biso   1.000  H
  C54      1.0000 0.92523  0.25197  0.88077  Biso   1.000  C
  N19      1.0000 0.55434  0.00155  0.14130  Biso   1.000  N
  C55      1.0000 0.39674  0.88142  0.00620  Biso   1.000  C
  H37      1.0000 0.37650  0.90210  0.00790  Biso   1.000  H
  C56      1.0000 0.36449  0.82045  0.00430  Biso   1.000  C
  H38      1.0000 0.32350  0.80070  0.00380  Biso   1.000  H
  C57      1.0000 0.59190  0.00660  0.21410  Biso   1.000  C
  N20      1.0000 0.22101  0.33488  0.47463  Biso   1.000  N
  C58      1.0000 0.06341  0.21475  0.33953  Biso   1.000  C
  H39      1.0000 0.04317  0.23543  0.34123  Biso   1.000  H
  C59      1.0000 0.03116  0.15378  0.33763  Biso   1.000  C
  H40      1.0000 0.99017  0.13403  0.33713  Biso   1.000  H
  C60      1.0000 0.25857  0.33993  0.54743  Biso   1.000  C
  N21      1.0000 0.88767  0.66822  0.80797  Biso   1.000  N
  C61      1.0000 0.73007  0.54809  0.67287  Biso   1.000  C
  H41      1.0000 0.70983  0.56877  0.67457  Biso   1.000  H
  C62      1.0000 0.69782  0.48712  0.67097  Biso   1.000  C
  H42      1.0000 0.65683  0.46737  0.67047  Biso   1.000  H
  C63      1.0000 0.92523  0.67327  0.88077  Biso   1.000  C
  N22      1.0000 0.99845  0.55279  0.14130  Biso   1.000  N
  C64      1.0000 0.11858  0.51532  0.00620  Biso   1.000  C
  H43      1.0000 0.09790  0.47440  0.00790  Biso   1.000  H
  C65      1.0000 0.17955  0.54404  0.00430  Biso   1.000  C
  H44      1.0000 0.19930  0.52280  0.00380  Biso   1.000  H
  C66      1.0000 0.99340  0.58530  0.21410  Biso   1.000  C
  N23      1.0000 0.66512  0.88612  0.47463  Biso   1.000  N
  C67      1.0000 0.78525  0.84865  0.33953  Biso   1.000  C
  H45      1.0000 0.76457  0.80773  0.34123  Biso   1.000  H
  C68      1.0000 0.84622  0.87737  0.33763  Biso   1.000  C
  H46      1.0000 0.86597  0.85613  0.33713  Biso   1.000  H
  C69      1.0000 0.66007  0.91863  0.54743  Biso   1.000  C
  N24      1.0000 0.33178  0.21946  0.80797  Biso   1.000  N
  C70      1.0000 0.45191  0.18199  0.67287  Biso   1.000  C
  H47      1.0000 0.43123  0.14107  0.67457  Biso   1.000  H
  C71      1.0000 0.51288  0.21071  0.67097  Biso   1.000  C
  H48      1.0000 0.53263  0.18947  0.67047  Biso   1.000  H
  C72      1.0000 0.32673  0.25197  0.88077  Biso   1.000  C
  N25      1.0000 0.44721  0.44566  0.14130  Biso   1.000  N
  C73      1.0000 0.48468  0.60326  0.00620  Biso   1.000  C
  H49      1.0000 0.52560  0.62350  0.00790  Biso   1.000  H
  C74      1.0000 0.45596  0.63551  0.00430  Biso   1.000  C
  H50      1.0000 0.47720  0.67650  0.00380  Biso   1.000  H
  C75      1.0000 0.41470  0.40810  0.21410  Biso   1.000  C
  N26      1.0000 0.11388  0.77899  0.47463  Biso   1.000  N
  C76      1.0000 0.15135  0.93659  0.33953  Biso   1.000  C
  H51      1.0000 0.19227  0.95683  0.34123  Biso   1.000  H
  C77      1.0000 0.12263  0.96884  0.33763  Biso   1.000  C
  H52      1.0000 0.14387  0.00983  0.33713  Biso   1.000  H
  C78      1.0000 0.08137  0.74143  0.54743  Biso   1.000  C
  N27      1.0000 0.78054  0.11233  0.80797  Biso   1.000  N
  C79      1.0000 0.81801  0.26993  0.67287  Biso   1.000  C
  H53      1.0000 0.85893  0.29017  0.67457  Biso   1.000  H
  C80      1.0000 0.78929  0.30218  0.67097  Biso   1.000  C
  H54      1.0000 0.81053  0.34317  0.67047  Biso   1.000  H
  C81      1.0000 0.74803  0.07477  0.88077  Biso   1.000  C
  N28      1.0000 0.00155  0.55434  0.85870  Biso   1.000  N
  C82      1.0000 0.88142  0.39674  0.99380  Biso   1.000  C
  H55      1.0000 0.90210  0.37650  0.99210  Biso   1.000  H
  C83      1.0000 0.82045  0.36449  0.99570  Biso   1.000  C
  H56      1.0000 0.80070  0.32350  0.99620  Biso   1.000  H
  C84      1.0000 0.00660  0.59190  0.78590  Biso   1.000  C
  N29      1.0000 0.66822  0.88767  0.19203  Biso   1.000  N
  C85      1.0000 0.54809  0.73007  0.32713  Biso   1.000  C
  H57      1.0000 0.56877  0.70983  0.32543  Biso   1.000  H
  C86      1.0000 0.48712  0.69782  0.32903  Biso   1.000  C
  H58      1.0000 0.46737  0.65683  0.32953  Biso   1.000  H
  C87      1.0000 0.67327  0.92523  0.11923  Biso   1.000  C
  N30      1.0000 0.33488  0.22101  0.52537  Biso   1.000  N
  C88      1.0000 0.21475  0.06341  0.66047  Biso   1.000  C
  H59      1.0000 0.23543  0.04317  0.65877  Biso   1.000  H
  C89      1.0000 0.15378  0.03116  0.66237  Biso   1.000  C
  H60      1.0000 0.13403  0.99017  0.66287  Biso   1.000  H
  C90      1.0000 0.33993  0.25857  0.45257  Biso   1.000  C
  N31      1.0000 0.55279  0.99845  0.85870  Biso   1.000  N
  C91      1.0000 0.51532  0.11858  0.99380  Biso   1.000  C
  H61      1.0000 0.47440  0.09790  0.99210  Biso   1.000  H
  C92      1.0000 0.54404  0.17955  0.99570  Biso   1.000  C
  H62      1.0000 0.52280  0.19930  0.99620  Biso   1.000  H
  C93      1.0000 0.58530  0.99340  0.78590  Biso   1.000  C
  N32      1.0000 0.21946  0.33178  0.19203  Biso   1.000  N
  C94      1.0000 0.18199  0.45191  0.32713  Biso   1.000  C
  H63      1.0000 0.14107  0.43123  0.32543  Biso   1.000  H
  C95      1.0000 0.21071  0.51288  0.32903  Biso   1.000  C
  H64      1.0000 0.18947  0.53263  0.32953  Biso   1.000  H
  C96      1.0000 0.25197  0.32673  0.11923  Biso   1.000  C
  N33      1.0000 0.88612  0.66512  0.52537  Biso   1.000  N
  C97      1.0000 0.84865  0.78525  0.66047  Biso   1.000  C
  H65      1.0000 0.80773  0.76457  0.65877  Biso   1.000  H
  C98      1.0000 0.87737  0.84622  0.66237  Biso   1.000  C
  H66      1.0000 0.85613  0.86597  0.66287  Biso   1.000  H
  C99      1.0000 0.91863  0.66007  0.45257  Biso   1.000  C
  N34      1.0000 0.44566  0.44721  0.85870  Biso   1.000  N
  C100     1.0000 0.60326  0.48468  0.99380  Biso   1.000  C
  H67      1.0000 0.62350  0.52560  0.99210  Biso   1.000  H
  C101     1.0000 0.63551  0.45596  0.99570  Biso   1.000  C
  H68      1.0000 0.67650  0.47720  0.99620  Biso   1.000  H
  C102     1.0000 0.40810  0.41470  0.78590  Biso   1.000  C
  N35      1.0000 0.11233  0.78054  0.19203  Biso   1.000  N
  C103     1.0000 0.26993  0.81801  0.32713  Biso   1.000  C
  H69      1.0000 0.29017  0.85893  0.32543  Biso   1.000  H
  C104     1.0000 0.30218  0.78929  0.32903  Biso   1.000  C
  H70      1.0000 0.34317  0.81053  0.32953  Biso   1.000  H
  C105     1.0000 0.07477  0.74803  0.11923  Biso   1.000  C
  N36      1.0000 0.77899  0.11388  0.52537  Biso   1.000  N
  C106     1.0000 0.93659  0.15135  0.66047  Biso   1.000  C
  H71      1.0000 0.95683  0.19227  0.65877  Biso   1.000  H
  C107     1.0000 0.96884  0.12263  0.66237  Biso   1.000  C
  H72      1.0000 0.00983  0.14387  0.66287  Biso   1.000  H
  C108     1.0000 0.74143  0.08137  0.45257  Biso   1.000  C
  Ag1      1.0000 0.33333  0.96595  0.66667  Biso   1.000  Ag
  Ag2      1.0000 0.00000  0.29928  0.00000  Biso   1.000  Ag
  Ag3      1.0000 0.03405  0.36739  0.66667  Biso   1.000  Ag
  Ag4      1.0000 0.70072  0.70072  0.00000  Biso   1.000  Ag
  Ag5      1.0000 0.63261  0.66667  0.66667  Biso   1.000  Ag
  Ag6      1.0000 0.29928  0.00000  0.00000  Biso   1.000  Ag
  Ag7      1.0000 0.96595  0.33333  0.33333  Biso   1.000  Ag
  Ag8      1.0000 0.36739  0.03405  0.33333  Biso   1.000  Ag
  Ag9      1.0000 0.66667  0.63261  0.33333  Biso   1.000  Ag
  Ag10     1.0000 0.66667  0.03405  0.33333  Biso   1.000  Ag
  Ag11     1.0000 0.96595  0.63261  0.33333  Biso   1.000  Ag
  Ag12     1.0000 0.36739  0.33333  0.33333  Biso   1.000  Ag
  Ag13     1.0000 0.03405  0.66667  0.66667  Biso   1.000  Ag
  Ag14     1.0000 0.70072  0.00000  0.00000  Biso   1.000  Ag
  Ag15     1.0000 0.63261  0.96595  0.66667  Biso   1.000  Ag
  Ag16     1.0000 0.29928  0.29928  0.00000  Biso   1.000  Ag
  Ag17     1.0000 0.33333  0.36739  0.66667  Biso   1.000  Ag
  Ag18     1.0000 0.00000  0.70072  0.00000  Biso   1.000  Ag
  Fe1      1.0000 0.50000  0.00000  0.00000  Biso   1.000  Fe
  Fe2      1.0000 0.16667  0.33333  0.33333  Biso   1.000  Fe
  Fe3      1.0000 0.83333  0.66667  0.66667  Biso   1.000  Fe
  Fe4      1.0000 0.00000  0.50000  0.00000  Biso   1.000  Fe
  Fe5      1.0000 0.66667  0.83333  0.33333  Biso   1.000  Fe
  Fe6      1.0000 0.33333  0.16667  0.66667  Biso   1.000  Fe
  Fe7      1.0000 0.50000  0.50000  0.00000  Biso   1.000  Fe
  Fe8      1.0000 0.16667  0.83333  0.33333  Biso   1.000  Fe
  Fe9      1.0000 0.83333  0.16667  0.66667  Biso   1.000  Fe
  N37      1.0000 0.54385  0.08770  0.99440  Biso   1.000  N
  C109     1.0000 0.60525  0.21050  0.99660  Biso   1.000  C
  C110     1.0000 0.63805  0.27610  0.99960  Biso   1.000  C
  N38      1.0000 0.21052  0.42103  0.32773  Biso   1.000  N
  C111     1.0000 0.27192  0.54383  0.32993  Biso   1.000  C
  C112     1.0000 0.30472  0.60943  0.33293  Biso   1.000  C
  N39      1.0000 0.87718  0.75437  0.66107  Biso   1.000  N
  C113     1.0000 0.93858  0.87717  0.66327  Biso   1.000  C
  C114     1.0000 0.97138  0.94277  0.66627  Biso   1.000  C
  N40      1.0000 0.91230  0.45615  0.99440  Biso   1.000  N
  C115     1.0000 0.78950  0.39475  0.99660  Biso   1.000  C
  C116     1.0000 0.72390  0.36195  0.99960  Biso   1.000  C
  N41      1.0000 0.57897  0.78948  0.32773  Biso   1.000  N
  C117     1.0000 0.45617  0.72808  0.32993  Biso   1.000  C
  C118     1.0000 0.39057  0.69528  0.33293  Biso   1.000  C
  N42      1.0000 0.24563  0.12282  0.66107  Biso   1.000  N
  C119     1.0000 0.12283  0.06142  0.66327  Biso   1.000  C
  C120     1.0000 0.05723  0.02862  0.66627  Biso   1.000  C
  N43      1.0000 0.54385  0.45615  0.99440  Biso   1.000  N
  C121     1.0000 0.60525  0.39475  0.99660  Biso   1.000  C
  C122     1.0000 0.63805  0.36195  0.99960  Biso   1.000  C
  N44      1.0000 0.21052  0.78948  0.32773  Biso   1.000  N
  C123     1.0000 0.27192  0.72808  0.32993  Biso   1.000  C
  C124     1.0000 0.30472  0.69528  0.33293  Biso   1.000  C
  N45      1.0000 0.87718  0.12282  0.66107  Biso   1.000  N
  C125     1.0000 0.93858  0.06142  0.66327  Biso   1.000  C
  C126     1.0000 0.97138  0.02862  0.66627  Biso   1.000  C
  N46      1.0000 0.08770  0.54385  0.00560  Biso   1.000  N
  C127     1.0000 0.21050  0.60525  0.00340  Biso   1.000  C
  C128     1.0000 0.27610  0.63805  0.00040  Biso   1.000  C
  N47      1.0000 0.75437  0.87718  0.33893  Biso   1.000  N
  C129     1.0000 0.87717  0.93858  0.33673  Biso   1.000  C
  C130     1.0000 0.94277  0.97138  0.33373  Biso   1.000  C
  N48      1.0000 0.42103  0.21052  0.67227  Biso   1.000  N
  C131     1.0000 0.54383  0.27192  0.67007  Biso   1.000  C
  C132     1.0000 0.60943  0.30472  0.66707  Biso   1.000  C
  N49      1.0000 0.45615  0.91230  0.00560  Biso   1.000  N
  C133     1.0000 0.39475  0.78950  0.00340  Biso   1.000  C
  C134     1.0000 0.36195  0.72390  0.00040  Biso   1.000  C
  N50      1.0000 0.12282  0.24563  0.33893  Biso   1.000  N
  C135     1.0000 0.06142  0.12283  0.33673  Biso   1.000  C
  C136     1.0000 0.02862  0.05723  0.33373  Biso   1.000  C
  N51      1.0000 0.78948  0.57897  0.67227  Biso   1.000  N
  C137     1.0000 0.72808  0.45617  0.67007  Biso   1.000  C
  C138     1.0000 0.69528  0.39057  0.66707  Biso   1.000  C
  N52      1.0000 0.45615  0.54385  0.00560  Biso   1.000  N
  C139     1.0000 0.39475  0.60525  0.00340  Biso   1.000  C
  C140     1.0000 0.36195  0.63805  0.00040  Biso   1.000  C
  N53      1.0000 0.12282  0.87718  0.33893  Biso   1.000  N
  C141     1.0000 0.06142  0.93858  0.33673  Biso   1.000  C
  C142     1.0000 0.02862  0.97138  0.33373  Biso   1.000  C
  N54      1.0000 0.78948  0.21052  0.67227  Biso   1.000  N
  C143     1.0000 0.72808  0.27192  0.67007  Biso   1.000  C
  C144     1.0000 0.69528  0.30472  0.66707  Biso   1.000  C
  N55      1.0000 0.60590  0.30295  0.99900  Biso   1.000  N
  N56      1.0000 0.27257  0.63628  0.33233  Biso   1.000  N
  N57      1.0000 0.93923  0.96962  0.66567  Biso   1.000  N
  N58      1.0000 0.69705  0.30295  0.99900  Biso   1.000  N
  N59      1.0000 0.36372  0.63628  0.33233  Biso   1.000  N
  N60      1.0000 0.03038  0.96962  0.66567  Biso   1.000  N
  N61      1.0000 0.69705  0.39410  0.99900  Biso   1.000  N
  N62      1.0000 0.36372  0.72743  0.33233  Biso   1.000  N
  N63      1.0000 0.03038  0.06077  0.66567  Biso   1.000  N
  N64      1.0000 0.30295  0.60590  0.00100  Biso   1.000  N
  N65      1.0000 0.96962  0.93923  0.33433  Biso   1.000  N
  N66      1.0000 0.63628  0.27257  0.66767  Biso   1.000  N
  N67      1.0000 0.30295  0.69705  0.00100  Biso   1.000  N
  N68      1.0000 0.96962  0.03038  0.33433  Biso   1.000  N
  N69      1.0000 0.63628  0.36372  0.66767  Biso   1.000  N
  N70      1.0000 0.39410  0.69705  0.00100  Biso   1.000  N
  N71      1.0000 0.06077  0.03038  0.33433  Biso   1.000  N
  N72      1.0000 0.72743  0.36372  0.66767  Biso   1.000  N
