data_image0
_cell_length_a       26.8761
_cell_length_b       26.8761
_cell_length_c       10.0456
_cell_angle_alpha    90
_cell_angle_beta     90
_cell_angle_gamma    120

_symmetry_space_group_name_H-M    "P 1"
_symmetry_int_tables_number       1

loop_
  _symmetry_equiv_pos_as_xyz
  'x, y, z'

loop_
  _atom_site_label
  _atom_site_occupancy
  _atom_site_fract_x
  _atom_site_fract_y
  _atom_site_fract_z
  _atom_site_thermal_displace_type
  _atom_site_B_iso_or_equiv
  _atom_site_type_symbol
  N1       1.0000 0.55882  0.00066  0.14660  Biso   1.000  N
  C1       1.0000 0.48015  0.87555  0.00530  Biso   1.000  C
  H1       1.0000 0.52010  0.89590  0.00580  Biso   1.000  H
  C2       1.0000 0.45279  0.81674  0.00590  Biso   1.000  C
  H2       1.0000 0.47390  0.79790  0.00820  Biso   1.000  H
  C3       1.0000 0.59580  0.00790  0.21370  Biso   1.000  C
  N2       1.0000 0.22549  0.33399  0.47993  Biso   1.000  N
  C4       1.0000 0.14682  0.20888  0.33863  Biso   1.000  C
  H3       1.0000 0.18677  0.22923  0.33913  Biso   1.000  H
  C5       1.0000 0.11946  0.15007  0.33923  Biso   1.000  C
  H4       1.0000 0.14057  0.13123  0.34153  Biso   1.000  H
  C6       1.0000 0.26247  0.34123  0.54703  Biso   1.000  C
  N3       1.0000 0.89215  0.66733  0.81327  Biso   1.000  N
  C7       1.0000 0.81348  0.54222  0.67197  Biso   1.000  C
  H5       1.0000 0.85343  0.56257  0.67247  Biso   1.000  H
  C8       1.0000 0.78612  0.48341  0.67257  Biso   1.000  C
  H6       1.0000 0.80723  0.46457  0.67487  Biso   1.000  H
  C9       1.0000 0.92913  0.67457  0.88037  Biso   1.000  C
  N4       1.0000 0.99934  0.55816  0.14660  Biso   1.000  N
  C10      1.0000 0.12445  0.60460  0.00530  Biso   1.000  C
  H7       1.0000 0.10410  0.62420  0.00580  Biso   1.000  H
  C11      1.0000 0.18326  0.63605  0.00590  Biso   1.000  C
  H8       1.0000 0.20210  0.67600  0.00820  Biso   1.000  H
  C12      1.0000 0.99210  0.58790  0.21370  Biso   1.000  C
  N5       1.0000 0.66601  0.89149  0.47993  Biso   1.000  N
  C13      1.0000 0.79112  0.93793  0.33863  Biso   1.000  C
  H9       1.0000 0.77077  0.95753  0.33913  Biso   1.000  H
  C14      1.0000 0.84993  0.96938  0.33923  Biso   1.000  C
  H10      1.0000 0.86877  0.00933  0.34153  Biso   1.000  H
  C15      1.0000 0.65877  0.92123  0.54703  Biso   1.000  C
  N6       1.0000 0.33267  0.22483  0.81327  Biso   1.000  N
  C16      1.0000 0.45778  0.27127  0.67197  Biso   1.000  C
  H11      1.0000 0.43743  0.29087  0.67247  Biso   1.000  H
  C17      1.0000 0.51659  0.30272  0.67257  Biso   1.000  C
  H12      1.0000 0.53543  0.34267  0.67487  Biso   1.000  H
  C18      1.0000 0.32543  0.25457  0.88037  Biso   1.000  C
  N7       1.0000 0.44184  0.44118  0.14660  Biso   1.000  N
  C19      1.0000 0.39540  0.51985  0.00530  Biso   1.000  C
  H13      1.0000 0.37580  0.47990  0.00580  Biso   1.000  H
  C20      1.0000 0.36395  0.54721  0.00590  Biso   1.000  C
  H14      1.0000 0.32400  0.52610  0.00820  Biso   1.000  H
  C21      1.0000 0.41210  0.40420  0.21370  Biso   1.000  C
  N8       1.0000 0.10851  0.77451  0.47993  Biso   1.000  N
  C22      1.0000 0.06207  0.85318  0.33863  Biso   1.000  C
  H15      1.0000 0.04247  0.81323  0.33913  Biso   1.000  H
  C23      1.0000 0.03062  0.88054  0.33923  Biso   1.000  C
  H16      1.0000 0.99067  0.85943  0.34153  Biso   1.000  H
  C24      1.0000 0.07877  0.73753  0.54703  Biso   1.000  C
  N9       1.0000 0.77517  0.10785  0.81327  Biso   1.000  N
  C25      1.0000 0.72873  0.18652  0.67197  Biso   1.000  C
  H17      1.0000 0.70913  0.14657  0.67247  Biso   1.000  H
  C26      1.0000 0.69728  0.21388  0.67257  Biso   1.000  C
  H18      1.0000 0.65733  0.19277  0.67487  Biso   1.000  H
  C27      1.0000 0.74543  0.07087  0.88037  Biso   1.000  C
  N10      1.0000 0.00066  0.55882  0.85340  Biso   1.000  N
  C28      1.0000 0.87555  0.48015  0.99470  Biso   1.000  C
  H19      1.0000 0.89590  0.52010  0.99420  Biso   1.000  H
  C29      1.0000 0.81674  0.45279  0.99410  Biso   1.000  C
  H20      1.0000 0.79790  0.47390  0.99180  Biso   1.000  H
  C30      1.0000 0.00790  0.59580  0.78630  Biso   1.000  C
  N11      1.0000 0.66733  0.89215  0.18673  Biso   1.000  N
  C31      1.0000 0.54222  0.81348  0.32803  Biso   1.000  C
  H21      1.0000 0.56257  0.85343  0.32753  Biso   1.000  H
  C32      1.0000 0.48341  0.78612  0.32743  Biso   1.000  C
  H22      1.0000 0.46457  0.80723  0.32513  Biso   1.000  H
  C33      1.0000 0.67457  0.92913  0.11963  Biso   1.000  C
  N12      1.0000 0.33399  0.22549  0.52007  Biso   1.000  N
  C34      1.0000 0.20888  0.14682  0.66137  Biso   1.000  C
  H23      1.0000 0.22923  0.18677  0.66087  Biso   1.000  H
  C35      1.0000 0.15007  0.11946  0.66077  Biso   1.000  C
  H24      1.0000 0.13123  0.14057  0.65847  Biso   1.000  H
  C36      1.0000 0.34123  0.26247  0.45297  Biso   1.000  C
  N13      1.0000 0.55816  0.99934  0.85340  Biso   1.000  N
  C37      1.0000 0.60460  0.12445  0.99470  Biso   1.000  C
  H25      1.0000 0.62420  0.10410  0.99420  Biso   1.000  H
  C38      1.0000 0.63605  0.18326  0.99410  Biso   1.000  C
  H26      1.0000 0.67600  0.20210  0.99180  Biso   1.000  H
  C39      1.0000 0.58790  0.99210  0.78630  Biso   1.000  C
  N14      1.0000 0.22483  0.33267  0.18673  Biso   1.000  N
  C40      1.0000 0.27127  0.45778  0.32803  Biso   1.000  C
  H27      1.0000 0.29087  0.43743  0.32753  Biso   1.000  H
  C41      1.0000 0.30272  0.51659  0.32743  Biso   1.000  C
  H28      1.0000 0.34267  0.53543  0.32513  Biso   1.000  H
  C42      1.0000 0.25457  0.32543  0.11963  Biso   1.000  C
  N15      1.0000 0.89149  0.66601  0.52007  Biso   1.000  N
  C43      1.0000 0.93793  0.79112  0.66137  Biso   1.000  C
  H29      1.0000 0.95753  0.77077  0.66087  Biso   1.000  H
  C44      1.0000 0.96938  0.84993  0.66077  Biso   1.000  C
  H30      1.0000 0.00933  0.86877  0.65847  Biso   1.000  H
  C45      1.0000 0.92123  0.65877  0.45297  Biso   1.000  C
  N16      1.0000 0.44118  0.44184  0.85340  Biso   1.000  N
  C46      1.0000 0.51985  0.39540  0.99470  Biso   1.000  C
  H31      1.0000 0.47990  0.37580  0.99420  Biso   1.000  H
  C47      1.0000 0.54721  0.36395  0.99410  Biso   1.000  C
  H32      1.0000 0.52610  0.32400  0.99180  Biso   1.000  H
  C48      1.0000 0.40420  0.41210  0.78630  Biso   1.000  C
  N17      1.0000 0.10785  0.77517  0.18673  Biso   1.000  N
  C49      1.0000 0.18652  0.72873  0.32803  Biso   1.000  C
  H33      1.0000 0.14657  0.70913  0.32753  Biso   1.000  H
  C50      1.0000 0.21388  0.69728  0.32743  Biso   1.000  C
  H34      1.0000 0.19277  0.65733  0.32513  Biso   1.000  H
  C51      1.0000 0.07087  0.74543  0.11963  Biso   1.000  C
  N18      1.0000 0.77451  0.10851  0.52007  Biso   1.000  N
  C52      1.0000 0.85318  0.06207  0.66137  Biso   1.000  C
  H35      1.0000 0.81323  0.04247  0.66087  Biso   1.000  H
  C53      1.0000 0.88054  0.03062  0.66077  Biso   1.000  C
  H36      1.0000 0.85943  0.99067  0.65847  Biso   1.000  H
  C54      1.0000 0.73753  0.07877  0.45297  Biso   1.000  C
  N19      1.0000 0.44118  0.99934  0.85340  Biso   1.000  N
  C55      1.0000 0.51985  0.12445  0.99470  Biso   1.000  C
  H37      1.0000 0.47990  0.10410  0.99420  Biso   1.000  H
  C56      1.0000 0.54721  0.18326  0.99410  Biso   1.000  C
  H38      1.0000 0.52610  0.20210  0.99180  Biso   1.000  H
  C57      1.0000 0.40420  0.99210  0.78630  Biso   1.000  C
  N20      1.0000 0.10785  0.33267  0.18673  Biso   1.000  N
  C58      1.0000 0.18652  0.45778  0.32803  Biso   1.000  C
  H39      1.0000 0.14657  0.43743  0.32753  Biso   1.000  H
  C59      1.0000 0.21388  0.51659  0.32743  Biso   1.000  C
  H40      1.0000 0.19277  0.53543  0.32513  Biso   1.000  H
  C60      1.0000 0.07087  0.32543  0.11963  Biso   1.000  C
  N21      1.0000 0.77451  0.66601  0.52007  Biso   1.000  N
  C61      1.0000 0.85318  0.79112  0.66137  Biso   1.000  C
  H41      1.0000 0.81323  0.77077  0.66087  Biso   1.000  H
  C62      1.0000 0.88054  0.84993  0.66077  Biso   1.000  C
  H42      1.0000 0.85943  0.86877  0.65847  Biso   1.000  H
  C63      1.0000 0.73753  0.65877  0.45297  Biso   1.000  C
  N22      1.0000 0.00066  0.44184  0.85340  Biso   1.000  N
  C64      1.0000 0.87555  0.39540  0.99470  Biso   1.000  C
  H43      1.0000 0.89590  0.37580  0.99420  Biso   1.000  H
  C65      1.0000 0.81674  0.36395  0.99410  Biso   1.000  C
  H44      1.0000 0.79790  0.32400  0.99180  Biso   1.000  H
  C66      1.0000 0.00790  0.41210  0.78630  Biso   1.000  C
  N23      1.0000 0.66733  0.77517  0.18673  Biso   1.000  N
  C67      1.0000 0.54222  0.72873  0.32803  Biso   1.000  C
  H45      1.0000 0.56257  0.70913  0.32753  Biso   1.000  H
  C68      1.0000 0.48341  0.69728  0.32743  Biso   1.000  C
  H46      1.0000 0.46457  0.65733  0.32513  Biso   1.000  H
  C69      1.0000 0.67457  0.74543  0.11963  Biso   1.000  C
  N24      1.0000 0.33399  0.10851  0.52007  Biso   1.000  N
  C70      1.0000 0.20888  0.06207  0.66137  Biso   1.000  C
  H47      1.0000 0.22923  0.04247  0.66087  Biso   1.000  H
  C71      1.0000 0.15007  0.03062  0.66077  Biso   1.000  C
  H48      1.0000 0.13123  0.99067  0.65847  Biso   1.000  H
  C72      1.0000 0.34123  0.07877  0.45297  Biso   1.000  C
  N25      1.0000 0.55816  0.55882  0.85340  Biso   1.000  N
  C73      1.0000 0.60460  0.48015  0.99470  Biso   1.000  C
  H49      1.0000 0.62420  0.52010  0.99420  Biso   1.000  H
  C74      1.0000 0.63605  0.45279  0.99410  Biso   1.000  C
  H50      1.0000 0.67600  0.47390  0.99180  Biso   1.000  H
  C75      1.0000 0.58790  0.59580  0.78630  Biso   1.000  C
  N26      1.0000 0.22483  0.89215  0.18673  Biso   1.000  N
  C76      1.0000 0.27127  0.81348  0.32803  Biso   1.000  C
  H51      1.0000 0.29087  0.85343  0.32753  Biso   1.000  H
  C77      1.0000 0.30272  0.78612  0.32743  Biso   1.000  C
  H52      1.0000 0.34267  0.80723  0.32513  Biso   1.000  H
  C78      1.0000 0.25457  0.92913  0.11963  Biso   1.000  C
  N27      1.0000 0.89149  0.22549  0.52007  Biso   1.000  N
  C79      1.0000 0.93793  0.14682  0.66137  Biso   1.000  C
  H53      1.0000 0.95753  0.18677  0.66087  Biso   1.000  H
  C80      1.0000 0.96938  0.11946  0.66077  Biso   1.000  C
  H54      1.0000 0.00933  0.14057  0.65847  Biso   1.000  H
  C81      1.0000 0.92123  0.26247  0.45297  Biso   1.000  C
  N28      1.0000 0.99934  0.44118  0.14660  Biso   1.000  N
  C82      1.0000 0.12445  0.51985  0.00530  Biso   1.000  C
  H55      1.0000 0.10410  0.47990  0.00580  Biso   1.000  H
  C83      1.0000 0.18326  0.54721  0.00590  Biso   1.000  C
  H56      1.0000 0.20210  0.52610  0.00820  Biso   1.000  H
  C84      1.0000 0.99210  0.40420  0.21370  Biso   1.000  C
  N29      1.0000 0.66601  0.77451  0.47993  Biso   1.000  N
  C85      1.0000 0.79112  0.85318  0.33863  Biso   1.000  C
  H57      1.0000 0.77077  0.81323  0.33913  Biso   1.000  H
  C86      1.0000 0.84993  0.88054  0.33923  Biso   1.000  C
  H58      1.0000 0.86877  0.85943  0.34153  Biso   1.000  H
  C87      1.0000 0.65877  0.73753  0.54703  Biso   1.000  C
  N30      1.0000 0.33267  0.10785  0.81327  Biso   1.000  N
  C88      1.0000 0.45778  0.18652  0.67197  Biso   1.000  C
  H59      1.0000 0.43743  0.14657  0.67247  Biso   1.000  H
  C89      1.0000 0.51659  0.21388  0.67257  Biso   1.000  C
  H60      1.0000 0.53543  0.19277  0.67487  Biso   1.000  H
  C90      1.0000 0.32543  0.07087  0.88037  Biso   1.000  C
  N31      1.0000 0.44184  0.00066  0.14660  Biso   1.000  N
  C91      1.0000 0.39540  0.87555  0.00530  Biso   1.000  C
  H61      1.0000 0.37580  0.89590  0.00580  Biso   1.000  H
  C92      1.0000 0.36395  0.81674  0.00590  Biso   1.000  C
  H62      1.0000 0.32400  0.79790  0.00820  Biso   1.000  H
  C93      1.0000 0.41210  0.00790  0.21370  Biso   1.000  C
  N32      1.0000 0.10851  0.33399  0.47993  Biso   1.000  N
  C94      1.0000 0.06207  0.20888  0.33863  Biso   1.000  C
  H63      1.0000 0.04247  0.22923  0.33913  Biso   1.000  H
  C95      1.0000 0.03062  0.15007  0.33923  Biso   1.000  C
  H64      1.0000 0.99067  0.13123  0.34153  Biso   1.000  H
  C96      1.0000 0.07877  0.34123  0.54703  Biso   1.000  C
  N33      1.0000 0.77517  0.66733  0.81327  Biso   1.000  N
  C97      1.0000 0.72873  0.54222  0.67197  Biso   1.000  C
  H65      1.0000 0.70913  0.56257  0.67247  Biso   1.000  H
  C98      1.0000 0.69728  0.48341  0.67257  Biso   1.000  C
  H66      1.0000 0.65733  0.46457  0.67487  Biso   1.000  H
  C99      1.0000 0.74543  0.67457  0.88037  Biso   1.000  C
  N34      1.0000 0.55882  0.55816  0.14660  Biso   1.000  N
  C100     1.0000 0.48015  0.60460  0.00530  Biso   1.000  C
  H67      1.0000 0.52010  0.62420  0.00580  Biso   1.000  H
  C101     1.0000 0.45279  0.63605  0.00590  Biso   1.000  C
  H68      1.0000 0.47390  0.67600  0.00820  Biso   1.000  H
  C102     1.0000 0.59580  0.58790  0.21370  Biso   1.000  C
  N35      1.0000 0.22549  0.89149  0.47993  Biso   1.000  N
  C103     1.0000 0.14682  0.93793  0.33863  Biso   1.000  C
  H69      1.0000 0.18677  0.95753  0.33913  Biso   1.000  H
  C104     1.0000 0.11946  0.96938  0.33923  Biso   1.000  C
  H70      1.0000 0.14057  0.00933  0.34153  Biso   1.000  H
  C105     1.0000 0.26247  0.92123  0.54703  Biso   1.000  C
  N36      1.0000 0.89215  0.22483  0.81327  Biso   1.000  N
  C106     1.0000 0.81348  0.27127  0.67197  Biso   1.000  C
  H71      1.0000 0.85343  0.29087  0.67247  Biso   1.000  H
  C107     1.0000 0.78612  0.30272  0.67257  Biso   1.000  C
  H72      1.0000 0.80723  0.34267  0.67487  Biso   1.000  H
  C108     1.0000 0.92913  0.25457  0.88037  Biso   1.000  C
  N37      1.0000 0.45255  0.90510  0.00400  Biso   1.000  N
  C109     1.0000 0.39265  0.78530  0.00310  Biso   1.000  C
  C110     1.0000 0.36150  0.72300  0.00310  Biso   1.000  C
  N38      1.0000 0.11922  0.23843  0.33733  Biso   1.000  N
  C111     1.0000 0.05932  0.11863  0.33643  Biso   1.000  C
  C112     1.0000 0.02817  0.05633  0.33643  Biso   1.000  C
  N39      1.0000 0.78588  0.57177  0.67067  Biso   1.000  N
  C113     1.0000 0.72598  0.45197  0.66977  Biso   1.000  C
  C114     1.0000 0.69483  0.38967  0.66977  Biso   1.000  C
  N40      1.0000 0.09490  0.54745  0.00400  Biso   1.000  N
  C115     1.0000 0.21470  0.60735  0.00310  Biso   1.000  C
  C116     1.0000 0.27700  0.63850  0.00310  Biso   1.000  C
  N41      1.0000 0.76157  0.88078  0.33733  Biso   1.000  N
  C117     1.0000 0.88137  0.94068  0.33643  Biso   1.000  C
  C118     1.0000 0.94367  0.97183  0.33643  Biso   1.000  C
  N42      1.0000 0.42823  0.21412  0.67067  Biso   1.000  N
  C119     1.0000 0.54803  0.27402  0.66977  Biso   1.000  C
  C120     1.0000 0.61033  0.30517  0.66977  Biso   1.000  C
  N43      1.0000 0.45255  0.54745  0.00400  Biso   1.000  N
  C121     1.0000 0.39265  0.60735  0.00310  Biso   1.000  C
  C122     1.0000 0.36150  0.63850  0.00310  Biso   1.000  C
  N44      1.0000 0.11922  0.88078  0.33733  Biso   1.000  N
  C123     1.0000 0.05932  0.94068  0.33643  Biso   1.000  C
  C124     1.0000 0.02817  0.97183  0.33643  Biso   1.000  C
  N45      1.0000 0.78588  0.21412  0.67067  Biso   1.000  N
  C125     1.0000 0.72598  0.27402  0.66977  Biso   1.000  C
  C126     1.0000 0.69483  0.30517  0.66977  Biso   1.000  C
  N46      1.0000 0.90510  0.45255  0.99600  Biso   1.000  N
  C127     1.0000 0.78530  0.39265  0.99690  Biso   1.000  C
  C128     1.0000 0.72300  0.36150  0.99690  Biso   1.000  C
  N47      1.0000 0.57177  0.78588  0.32933  Biso   1.000  N
  C129     1.0000 0.45197  0.72598  0.33023  Biso   1.000  C
  C130     1.0000 0.38967  0.69483  0.33023  Biso   1.000  C
  N48      1.0000 0.23843  0.11922  0.66267  Biso   1.000  N
  C131     1.0000 0.11863  0.05932  0.66357  Biso   1.000  C
  C132     1.0000 0.05633  0.02817  0.66357  Biso   1.000  C
  N49      1.0000 0.54745  0.09490  0.99600  Biso   1.000  N
  C133     1.0000 0.60735  0.21470  0.99690  Biso   1.000  C
  C134     1.0000 0.63850  0.27700  0.99690  Biso   1.000  C
  N50      1.0000 0.21412  0.42823  0.32933  Biso   1.000  N
  C135     1.0000 0.27402  0.54803  0.33023  Biso   1.000  C
  C136     1.0000 0.30517  0.61033  0.33023  Biso   1.000  C
  N51      1.0000 0.88078  0.76157  0.66267  Biso   1.000  N
  C137     1.0000 0.94068  0.88137  0.66357  Biso   1.000  C
  C138     1.0000 0.97183  0.94367  0.66357  Biso   1.000  C
  N52      1.0000 0.54745  0.45255  0.99600  Biso   1.000  N
  C139     1.0000 0.60735  0.39265  0.99690  Biso   1.000  C
  C140     1.0000 0.63850  0.36150  0.99690  Biso   1.000  C
  N53      1.0000 0.21412  0.78588  0.32933  Biso   1.000  N
  C141     1.0000 0.27402  0.72598  0.33023  Biso   1.000  C
  C142     1.0000 0.30517  0.69483  0.33023  Biso   1.000  C
  N54      1.0000 0.88078  0.11922  0.66267  Biso   1.000  N
  C143     1.0000 0.94068  0.05932  0.66357  Biso   1.000  C
  C144     1.0000 0.97183  0.02817  0.66357  Biso   1.000  C
  Ag1      1.0000 0.66667  0.03504  0.33333  Biso   1.000  Ag
  Ag2      1.0000 0.96496  0.63162  0.33333  Biso   1.000  Ag
  Ag3      1.0000 0.36838  0.33333  0.33333  Biso   1.000  Ag
  Ag4      1.0000 0.03504  0.66667  0.66667  Biso   1.000  Ag
  Ag5      1.0000 0.70171  0.00000  0.00000  Biso   1.000  Ag
  Ag6      1.0000 0.63162  0.96496  0.66667  Biso   1.000  Ag
  Ag7      1.0000 0.29829  0.29829  0.00000  Biso   1.000  Ag
  Ag8      1.0000 0.33333  0.36838  0.66667  Biso   1.000  Ag
  Ag9      1.0000 0.00000  0.70171  0.00000  Biso   1.000  Ag
  Ag10     1.0000 0.33333  0.96496  0.66667  Biso   1.000  Ag
  Ag11     1.0000 0.00000  0.29829  0.00000  Biso   1.000  Ag
  Ag12     1.0000 0.03504  0.36838  0.66667  Biso   1.000  Ag
  Ag13     1.0000 0.70171  0.70171  0.00000  Biso   1.000  Ag
  Ag14     1.0000 0.63162  0.66667  0.66667  Biso   1.000  Ag
  Ag15     1.0000 0.29829  0.00000  0.00000  Biso   1.000  Ag
  Ag16     1.0000 0.96496  0.33333  0.33333  Biso   1.000  Ag
  Ag17     1.0000 0.36838  0.03504  0.33333  Biso   1.000  Ag
  Ag18     1.0000 0.66667  0.63162  0.33333  Biso   1.000  Ag
  Fe1      1.0000 0.50000  0.00000  0.00000  Biso   1.000  Fe
  Fe2      1.0000 0.16667  0.33333  0.33333  Biso   1.000  Fe
  Fe3      1.0000 0.83333  0.66667  0.66667  Biso   1.000  Fe
  Fe4      1.0000 0.00000  0.50000  0.00000  Biso   1.000  Fe
  Fe5      1.0000 0.66667  0.83333  0.33333  Biso   1.000  Fe
  Fe6      1.0000 0.33333  0.16667  0.66667  Biso   1.000  Fe
  Fe7      1.0000 0.50000  0.50000  0.00000  Biso   1.000  Fe
  Fe8      1.0000 0.16667  0.83333  0.33333  Biso   1.000  Fe
  Fe9      1.0000 0.83333  0.16667  0.66667  Biso   1.000  Fe
  N55      1.0000 0.30391  0.69609  0.00440  Biso   1.000  N
  N56      1.0000 0.97058  0.02942  0.33773  Biso   1.000  N
  N57      1.0000 0.63724  0.36276  0.67107  Biso   1.000  N
  N58      1.0000 0.30391  0.60782  0.00440  Biso   1.000  N
  N59      1.0000 0.97058  0.94115  0.33773  Biso   1.000  N
  N60      1.0000 0.63724  0.27449  0.67107  Biso   1.000  N
  N61      1.0000 0.39218  0.69609  0.00440  Biso   1.000  N
  N62      1.0000 0.05885  0.02942  0.33773  Biso   1.000  N
  N63      1.0000 0.72551  0.36276  0.67107  Biso   1.000  N
  N64      1.0000 0.69609  0.30391  0.99560  Biso   1.000  N
  N65      1.0000 0.36276  0.63724  0.32893  Biso   1.000  N
  N66      1.0000 0.02942  0.97058  0.66227  Biso   1.000  N
  N67      1.0000 0.60782  0.30391  0.99560  Biso   1.000  N
  N68      1.0000 0.27449  0.63724  0.32893  Biso   1.000  N
  N69      1.0000 0.94115  0.97058  0.66227  Biso   1.000  N
  N70      1.0000 0.69609  0.39218  0.99560  Biso   1.000  N
  N71      1.0000 0.36276  0.72551  0.32893  Biso   1.000  N
  N72      1.0000 0.02942  0.05885  0.66227  Biso   1.000  N
