data_image0
_cell_length_a       11.3128
_cell_length_b       11.3128
_cell_length_c       34.111
_cell_angle_alpha    90
_cell_angle_beta     90
_cell_angle_gamma    120

_symmetry_space_group_name_H-M    "P 1"
_symmetry_int_tables_number       1

loop_
  _symmetry_equiv_pos_as_xyz
  'x, y, z'

loop_
  _atom_site_label
  _atom_site_occupancy
  _atom_site_fract_x
  _atom_site_fract_y
  _atom_site_fract_z
  _atom_site_thermal_displace_type
  _atom_site_B_iso_or_equiv
  _atom_site_type_symbol
  N1       1.0000 0.60654  0.35560  0.87376  Biso   1.000  N
  N2       1.0000 0.79290  0.21620  0.82982  Biso   1.000  N
  H1       1.0000 0.87380  0.26040  0.83950  Biso   1.000  H
  H2       1.0000 0.77340  0.15320  0.81270  Biso   1.000  H
  N3       1.0000 0.72189  0.34459  0.86838  Biso   1.000  N
  C1       1.0000 0.84750  0.43770  0.88702  Biso   1.000  C
  C2       1.0000 0.51210  0.26180  0.85061  Biso   1.000  C
  H3       1.0000 0.42330  0.24600  0.84860  Biso   1.000  H
  C3       1.0000 0.69710  0.24570  0.84135  Biso   1.000  C
  C4       1.0000 0.04310  0.48110  0.92472  Biso   1.000  C
  H4       1.0000 0.09670  0.45000  0.93650  Biso   1.000  H
  C5       1.0000 0.92500  0.39020  0.90511  Biso   1.000  C
  H5       1.0000 0.89800  0.29800  0.90410  Biso   1.000  H
  C6       1.0000 0.08120  0.61550  0.92681  Biso   1.000  C
  H6       1.0000 0.15850  0.67550  0.94090  Biso   1.000  H
  C7       1.0000 0.00530  0.66290  0.90807  Biso   1.000  C
  H7       1.0000 0.03330  0.75540  0.90910  Biso   1.000  H
  C8       1.0000 0.88770  0.57460  0.88762  Biso   1.000  C
  H8       1.0000 0.83720  0.60700  0.87470  Biso   1.000  H
  C9       1.0000 0.56160  0.19010  0.82974  Biso   1.000  C
  C10      1.0000 0.48480  0.07540  0.80284  Biso   1.000  C
  O1       1.0000 0.55223  0.02481  0.78742  Biso   1.000  O
  O2       1.0000 0.36113  0.03209  0.79631  Biso   1.000  O
  N4       1.0000 0.64440  0.25094  0.20709  Biso   1.000  N
  N5       1.0000 0.78380  0.57670  0.16315  Biso   1.000  N
  H9       1.0000 0.73960  0.61340  0.17283  Biso   1.000  H
  H10      1.0000 0.84680  0.62020  0.14603  Biso   1.000  H
  N6       1.0000 0.65541  0.37730  0.20171  Biso   1.000  N
  C11      1.0000 0.56230  0.40980  0.22035  Biso   1.000  C
  C12      1.0000 0.73820  0.25030  0.18394  Biso   1.000  C
  H11      1.0000 0.75400  0.17730  0.18193  Biso   1.000  H
  C13      1.0000 0.75430  0.45140  0.17468  Biso   1.000  C
  C14      1.0000 0.51890  0.56200  0.25805  Biso   1.000  C
  H12      1.0000 0.55000  0.64670  0.26983  Biso   1.000  H
  C15      1.0000 0.60980  0.53480  0.23844  Biso   1.000  C
  H13      1.0000 0.70200  0.60000  0.23743  Biso   1.000  H
  C16      1.0000 0.38450  0.46570  0.26014  Biso   1.000  C
  H14      1.0000 0.32450  0.48300  0.27423  Biso   1.000  H
  C17      1.0000 0.33710  0.34240  0.24140  Biso   1.000  C
  H15      1.0000 0.24460  0.27790  0.24243  Biso   1.000  H
  C18      1.0000 0.42540  0.31310  0.22095  Biso   1.000  C
  H16      1.0000 0.39300  0.23020  0.20803  Biso   1.000  H
  C19      1.0000 0.80990  0.37150  0.16307  Biso   1.000  C
  C20      1.0000 0.92460  0.40940  0.13617  Biso   1.000  C
  O3       1.0000 0.97519  0.52742  0.12075  Biso   1.000  O
  O4       1.0000 0.96791  0.32904  0.12964  Biso   1.000  O
  N7       1.0000 0.74906  0.39346  0.54043  Biso   1.000  N
  N8       1.0000 0.42330  0.20710  0.49649  Biso   1.000  N
  H17      1.0000 0.38660  0.12620  0.50617  Biso   1.000  H
  H18      1.0000 0.37980  0.22660  0.47937  Biso   1.000  H
  N9       1.0000 0.62270  0.27811  0.53505  Biso   1.000  N
  C21      1.0000 0.59020  0.15250  0.55369  Biso   1.000  C
  C22      1.0000 0.74970  0.48790  0.51728  Biso   1.000  C
  H19      1.0000 0.82270  0.57670  0.51527  Biso   1.000  H
  C23      1.0000 0.54860  0.30290  0.50802  Biso   1.000  C
  C24      1.0000 0.43800  0.95690  0.59139  Biso   1.000  C
  H20      1.0000 0.35330  0.90330  0.60317  Biso   1.000  H
  C25      1.0000 0.46520  0.07500  0.57178  Biso   1.000  C
  H21      1.0000 0.40000  0.10200  0.57077  Biso   1.000  H
  C26      1.0000 0.53430  0.91880  0.59348  Biso   1.000  C
  H22      1.0000 0.51700  0.84150  0.60757  Biso   1.000  H
  C27      1.0000 0.65760  0.99470  0.57474  Biso   1.000  C
  H23      1.0000 0.72210  0.96670  0.57577  Biso   1.000  H
  C28      1.0000 0.68690  0.11230  0.55429  Biso   1.000  C
  H24      1.0000 0.76980  0.16280  0.54137  Biso   1.000  H
  C29      1.0000 0.62850  0.43840  0.49641  Biso   1.000  C
  C30      1.0000 0.59060  0.51520  0.46951  Biso   1.000  C
  O5       1.0000 0.47258  0.44777  0.45409  Biso   1.000  O
  O6       1.0000 0.67096  0.63887  0.46298  Biso   1.000  O
  N10      1.0000 0.39346  0.64440  0.37376  Biso   1.000  N
  N11      1.0000 0.20710  0.78380  0.32982  Biso   1.000  N
  H25      1.0000 0.12620  0.73960  0.33950  Biso   1.000  H
  H26      1.0000 0.22660  0.84680  0.31270  Biso   1.000  H
  N12      1.0000 0.27811  0.65541  0.36838  Biso   1.000  N
  C31      1.0000 0.15250  0.56230  0.38702  Biso   1.000  C
  C32      1.0000 0.48790  0.73820  0.35061  Biso   1.000  C
  H27      1.0000 0.57670  0.75400  0.34860  Biso   1.000  H
  C33      1.0000 0.30290  0.75430  0.34135  Biso   1.000  C
  C34      1.0000 0.95690  0.51890  0.42472  Biso   1.000  C
  H28      1.0000 0.90330  0.55000  0.43650  Biso   1.000  H
  C35      1.0000 0.07500  0.60980  0.40511  Biso   1.000  C
  H29      1.0000 0.10200  0.70200  0.40410  Biso   1.000  H
  C36      1.0000 0.91880  0.38450  0.42681  Biso   1.000  C
  H30      1.0000 0.84150  0.32450  0.44090  Biso   1.000  H
  C37      1.0000 0.99470  0.33710  0.40807  Biso   1.000  C
  H31      1.0000 0.96670  0.24460  0.40910  Biso   1.000  H
  C38      1.0000 0.11230  0.42540  0.38762  Biso   1.000  C
  H32      1.0000 0.16280  0.39300  0.37470  Biso   1.000  H
  C39      1.0000 0.43840  0.80990  0.32974  Biso   1.000  C
  C40      1.0000 0.51520  0.92460  0.30284  Biso   1.000  C
  O7       1.0000 0.44777  0.97519  0.28742  Biso   1.000  O
  O8       1.0000 0.63887  0.96791  0.29631  Biso   1.000  O
  N13      1.0000 0.35560  0.74906  0.70709  Biso   1.000  N
  N14      1.0000 0.21620  0.42330  0.66315  Biso   1.000  N
  H33      1.0000 0.26040  0.38660  0.67283  Biso   1.000  H
  H34      1.0000 0.15320  0.37980  0.64603  Biso   1.000  H
  N15      1.0000 0.34459  0.62270  0.70171  Biso   1.000  N
  C41      1.0000 0.43770  0.59020  0.72035  Biso   1.000  C
  C42      1.0000 0.26180  0.74970  0.68394  Biso   1.000  C
  H35      1.0000 0.24600  0.82270  0.68193  Biso   1.000  H
  C43      1.0000 0.24570  0.54860  0.67468  Biso   1.000  C
  C44      1.0000 0.48110  0.43800  0.75805  Biso   1.000  C
  H36      1.0000 0.45000  0.35330  0.76983  Biso   1.000  H
  C45      1.0000 0.39020  0.46520  0.73844  Biso   1.000  C
  H37      1.0000 0.29800  0.40000  0.73743  Biso   1.000  H
  C46      1.0000 0.61550  0.53430  0.76014  Biso   1.000  C
  H38      1.0000 0.67550  0.51700  0.77423  Biso   1.000  H
  C47      1.0000 0.66290  0.65760  0.74140  Biso   1.000  C
  H39      1.0000 0.75540  0.72210  0.74243  Biso   1.000  H
  C48      1.0000 0.57460  0.68690  0.72095  Biso   1.000  C
  H40      1.0000 0.60700  0.76980  0.70803  Biso   1.000  H
  C49      1.0000 0.19010  0.62850  0.66307  Biso   1.000  C
  C50      1.0000 0.07540  0.59060  0.63617  Biso   1.000  C
  O9       1.0000 0.02481  0.47258  0.62075  Biso   1.000  O
  O10      1.0000 0.03209  0.67096  0.62964  Biso   1.000  O
  N16      1.0000 0.25094  0.60654  0.04043  Biso   1.000  N
  N17      1.0000 0.57670  0.79290  0.99649  Biso   1.000  N
  H41      1.0000 0.61340  0.87380  0.00617  Biso   1.000  H
  H42      1.0000 0.62020  0.77340  0.97937  Biso   1.000  H
  N18      1.0000 0.37730  0.72189  0.03505  Biso   1.000  N
  C51      1.0000 0.40980  0.84750  0.05369  Biso   1.000  C
  C52      1.0000 0.25030  0.51210  0.01728  Biso   1.000  C
  H43      1.0000 0.17730  0.42330  0.01527  Biso   1.000  H
  C53      1.0000 0.45140  0.69710  0.00802  Biso   1.000  C
  C54      1.0000 0.56200  0.04310  0.09139  Biso   1.000  C
  H44      1.0000 0.64670  0.09670  0.10317  Biso   1.000  H
  C55      1.0000 0.53480  0.92500  0.07178  Biso   1.000  C
  H45      1.0000 0.60000  0.89800  0.07077  Biso   1.000  H
  C56      1.0000 0.46570  0.08120  0.09348  Biso   1.000  C
  H46      1.0000 0.48300  0.15850  0.10757  Biso   1.000  H
  C57      1.0000 0.34240  0.00530  0.07474  Biso   1.000  C
  H47      1.0000 0.27790  0.03330  0.07577  Biso   1.000  H
  C58      1.0000 0.31310  0.88770  0.05429  Biso   1.000  C
  H48      1.0000 0.23020  0.83720  0.04137  Biso   1.000  H
  C59      1.0000 0.37150  0.56160  0.99641  Biso   1.000  C
  C60      1.0000 0.40940  0.48480  0.96951  Biso   1.000  C
  O11      1.0000 0.52742  0.55223  0.95409  Biso   1.000  O
  O12      1.0000 0.32904  0.36113  0.96298  Biso   1.000  O
  N19      1.0000 0.35560  0.60654  0.45957  Biso   1.000  N
  N20      1.0000 0.21620  0.79290  0.50351  Biso   1.000  N
  H49      1.0000 0.26040  0.87380  0.49383  Biso   1.000  H
  H50      1.0000 0.15320  0.77340  0.52063  Biso   1.000  H
  N21      1.0000 0.34459  0.72189  0.46495  Biso   1.000  N
  C61      1.0000 0.43770  0.84750  0.44631  Biso   1.000  C
  C62      1.0000 0.26180  0.51210  0.48272  Biso   1.000  C
  H51      1.0000 0.24600  0.42330  0.48473  Biso   1.000  H
  C63      1.0000 0.24570  0.69710  0.49198  Biso   1.000  C
  C64      1.0000 0.48110  0.04310  0.40861  Biso   1.000  C
  H52      1.0000 0.45000  0.09670  0.39683  Biso   1.000  H
  C65      1.0000 0.39020  0.92500  0.42822  Biso   1.000  C
  H53      1.0000 0.29800  0.89800  0.42923  Biso   1.000  H
  C66      1.0000 0.61550  0.08120  0.40652  Biso   1.000  C
  H54      1.0000 0.67550  0.15850  0.39243  Biso   1.000  H
  C67      1.0000 0.66290  0.00530  0.42526  Biso   1.000  C
  H55      1.0000 0.75540  0.03330  0.42423  Biso   1.000  H
  C68      1.0000 0.57460  0.88770  0.44571  Biso   1.000  C
  H56      1.0000 0.60700  0.83720  0.45863  Biso   1.000  H
  C69      1.0000 0.19010  0.56160  0.50359  Biso   1.000  C
  C70      1.0000 0.07540  0.48480  0.53049  Biso   1.000  C
  O13      1.0000 0.02481  0.55223  0.54591  Biso   1.000  O
  O14      1.0000 0.03209  0.36113  0.53702  Biso   1.000  O
  N22      1.0000 0.25094  0.64440  0.12624  Biso   1.000  N
  N23      1.0000 0.57670  0.78380  0.17018  Biso   1.000  N
  H57      1.0000 0.61340  0.73960  0.16050  Biso   1.000  H
  H58      1.0000 0.62020  0.84680  0.18730  Biso   1.000  H
  N24      1.0000 0.37730  0.65541  0.13162  Biso   1.000  N
  C71      1.0000 0.40980  0.56230  0.11298  Biso   1.000  C
  C72      1.0000 0.25030  0.73820  0.14939  Biso   1.000  C
  H59      1.0000 0.17730  0.75400  0.15140  Biso   1.000  H
  C73      1.0000 0.45140  0.75430  0.15865  Biso   1.000  C
  C74      1.0000 0.56200  0.51890  0.07528  Biso   1.000  C
  H60      1.0000 0.64670  0.55000  0.06350  Biso   1.000  H
  C75      1.0000 0.53480  0.60980  0.09489  Biso   1.000  C
  H61      1.0000 0.60000  0.70200  0.09590  Biso   1.000  H
  C76      1.0000 0.46570  0.38450  0.07319  Biso   1.000  C
  H62      1.0000 0.48300  0.32450  0.05910  Biso   1.000  H
  C77      1.0000 0.34240  0.33710  0.09193  Biso   1.000  C
  H63      1.0000 0.27790  0.24460  0.09090  Biso   1.000  H
  C78      1.0000 0.31310  0.42540  0.11238  Biso   1.000  C
  H64      1.0000 0.23020  0.39300  0.12530  Biso   1.000  H
  C79      1.0000 0.37150  0.80990  0.17026  Biso   1.000  C
  C80      1.0000 0.40940  0.92460  0.19716  Biso   1.000  C
  O15      1.0000 0.52742  0.97519  0.21258  Biso   1.000  O
  O16      1.0000 0.32904  0.96791  0.20369  Biso   1.000  O
  N25      1.0000 0.39346  0.74906  0.79291  Biso   1.000  N
  N26      1.0000 0.20710  0.42330  0.83685  Biso   1.000  N
  H65      1.0000 0.12620  0.38660  0.82717  Biso   1.000  H
  H66      1.0000 0.22660  0.37980  0.85397  Biso   1.000  H
  N27      1.0000 0.27811  0.62270  0.79829  Biso   1.000  N
  C81      1.0000 0.15250  0.59020  0.77965  Biso   1.000  C
  C82      1.0000 0.48790  0.74970  0.81606  Biso   1.000  C
  H67      1.0000 0.57670  0.82270  0.81807  Biso   1.000  H
  C83      1.0000 0.30290  0.54860  0.82532  Biso   1.000  C
  C84      1.0000 0.95690  0.43800  0.74195  Biso   1.000  C
  H68      1.0000 0.90330  0.35330  0.73017  Biso   1.000  H
  C85      1.0000 0.07500  0.46520  0.76156  Biso   1.000  C
  H69      1.0000 0.10200  0.40000  0.76257  Biso   1.000  H
  C86      1.0000 0.91880  0.53430  0.73986  Biso   1.000  C
  H70      1.0000 0.84150  0.51700  0.72577  Biso   1.000  H
  C87      1.0000 0.99470  0.65760  0.75860  Biso   1.000  C
  H71      1.0000 0.96670  0.72210  0.75757  Biso   1.000  H
  C88      1.0000 0.11230  0.68690  0.77905  Biso   1.000  C
  H72      1.0000 0.16280  0.76980  0.79197  Biso   1.000  H
  C89      1.0000 0.43840  0.62850  0.83693  Biso   1.000  C
  C90      1.0000 0.51520  0.59060  0.86383  Biso   1.000  C
  O17      1.0000 0.44777  0.47258  0.87925  Biso   1.000  O
  O18      1.0000 0.63887  0.67096  0.87036  Biso   1.000  O
  N28      1.0000 0.64440  0.39346  0.95957  Biso   1.000  N
  N29      1.0000 0.78380  0.20710  0.00351  Biso   1.000  N
  H73      1.0000 0.73960  0.12620  0.99383  Biso   1.000  H
  H74      1.0000 0.84680  0.22660  0.02063  Biso   1.000  H
  N30      1.0000 0.65541  0.27811  0.96495  Biso   1.000  N
  C91      1.0000 0.56230  0.15250  0.94631  Biso   1.000  C
  C92      1.0000 0.73820  0.48790  0.98272  Biso   1.000  C
  H75      1.0000 0.75400  0.57670  0.98473  Biso   1.000  H
  C93      1.0000 0.75430  0.30290  0.99198  Biso   1.000  C
  C94      1.0000 0.51890  0.95690  0.90861  Biso   1.000  C
  H76      1.0000 0.55000  0.90330  0.89683  Biso   1.000  H
  C95      1.0000 0.60980  0.07500  0.92822  Biso   1.000  C
  H77      1.0000 0.70200  0.10200  0.92923  Biso   1.000  H
  C96      1.0000 0.38450  0.91880  0.90652  Biso   1.000  C
  H78      1.0000 0.32450  0.84150  0.89243  Biso   1.000  H
  C97      1.0000 0.33710  0.99470  0.92526  Biso   1.000  C
  H79      1.0000 0.24460  0.96670  0.92423  Biso   1.000  H
  C98      1.0000 0.42540  0.11230  0.94571  Biso   1.000  C
  H80      1.0000 0.39300  0.16280  0.95863  Biso   1.000  H
  C99      1.0000 0.80990  0.43840  0.00359  Biso   1.000  C
  C100     1.0000 0.92460  0.51520  0.03049  Biso   1.000  C
  O19      1.0000 0.97519  0.44777  0.04591  Biso   1.000  O
  O20      1.0000 0.96791  0.63887  0.03702  Biso   1.000  O
  N31      1.0000 0.74906  0.35560  0.62624  Biso   1.000  N
  N32      1.0000 0.42330  0.21620  0.67018  Biso   1.000  N
  H81      1.0000 0.38660  0.26040  0.66050  Biso   1.000  H
  H82      1.0000 0.37980  0.15320  0.68730  Biso   1.000  H
  N33      1.0000 0.62270  0.34459  0.63162  Biso   1.000  N
  C101     1.0000 0.59020  0.43770  0.61298  Biso   1.000  C
  C102     1.0000 0.74970  0.26180  0.64939  Biso   1.000  C
  H83      1.0000 0.82270  0.24600  0.65140  Biso   1.000  H
  C103     1.0000 0.54860  0.24570  0.65865  Biso   1.000  C
  C104     1.0000 0.43800  0.48110  0.57528  Biso   1.000  C
  H84      1.0000 0.35330  0.45000  0.56350  Biso   1.000  H
  C105     1.0000 0.46520  0.39020  0.59489  Biso   1.000  C
  H85      1.0000 0.40000  0.29800  0.59590  Biso   1.000  H
  C106     1.0000 0.53430  0.61550  0.57319  Biso   1.000  C
  H86      1.0000 0.51700  0.67550  0.55910  Biso   1.000  H
  C107     1.0000 0.65760  0.66290  0.59193  Biso   1.000  C
  H87      1.0000 0.72210  0.75540  0.59090  Biso   1.000  H
  C108     1.0000 0.68690  0.57460  0.61238  Biso   1.000  C
  H88      1.0000 0.76980  0.60700  0.62530  Biso   1.000  H
  C109     1.0000 0.62850  0.19010  0.67026  Biso   1.000  C
  C110     1.0000 0.59060  0.07540  0.69716  Biso   1.000  C
  O21      1.0000 0.47258  0.02481  0.71258  Biso   1.000  O
  O22      1.0000 0.67096  0.03209  0.70369  Biso   1.000  O
  N34      1.0000 0.60654  0.25094  0.29291  Biso   1.000  N
  N35      1.0000 0.79290  0.57670  0.33685  Biso   1.000  N
  H89      1.0000 0.87380  0.61340  0.32717  Biso   1.000  H
  H90      1.0000 0.77340  0.62020  0.35397  Biso   1.000  H
  N36      1.0000 0.72189  0.37730  0.29829  Biso   1.000  N
  C111     1.0000 0.84750  0.40980  0.27965  Biso   1.000  C
  C112     1.0000 0.51210  0.25030  0.31606  Biso   1.000  C
  H91      1.0000 0.42330  0.17730  0.31807  Biso   1.000  H
  C113     1.0000 0.69710  0.45140  0.32532  Biso   1.000  C
  C114     1.0000 0.04310  0.56200  0.24195  Biso   1.000  C
  H92      1.0000 0.09670  0.64670  0.23017  Biso   1.000  H
  C115     1.0000 0.92500  0.53480  0.26156  Biso   1.000  C
  H93      1.0000 0.89800  0.60000  0.26257  Biso   1.000  H
  C116     1.0000 0.08120  0.46570  0.23986  Biso   1.000  C
  H94      1.0000 0.15850  0.48300  0.22577  Biso   1.000  H
  C117     1.0000 0.00530  0.34240  0.25860  Biso   1.000  C
  H95      1.0000 0.03330  0.27790  0.25757  Biso   1.000  H
  C118     1.0000 0.88770  0.31310  0.27905  Biso   1.000  C
  H96      1.0000 0.83720  0.23020  0.29197  Biso   1.000  H
  C119     1.0000 0.56160  0.37150  0.33693  Biso   1.000  C
  C120     1.0000 0.48480  0.40940  0.36383  Biso   1.000  C
  O23      1.0000 0.55223  0.52742  0.37925  Biso   1.000  O
  O24      1.0000 0.36113  0.32904  0.37036  Biso   1.000  O
  Cu1      1.0000 0.55853  0.44147  0.91667  Biso   1.000  Cu
  Cu2      1.0000 0.55853  0.11706  0.25000  Biso   1.000  Cu
  Cu3      1.0000 0.88294  0.44147  0.58333  Biso   1.000  Cu
  Cu4      1.0000 0.44147  0.55853  0.41667  Biso   1.000  Cu
  Cu5      1.0000 0.44147  0.88294  0.75000  Biso   1.000  Cu
  Cu6      1.0000 0.11706  0.55853  0.08333  Biso   1.000  Cu
