data_image0
_cell_length_a       21.441
_cell_length_b       23.212
_cell_length_c       24.646
_cell_angle_alpha    68.1
_cell_angle_beta     67.49
_cell_angle_gamma    79.99

_symmetry_space_group_name_H-M    "P 1"
_symmetry_int_tables_number       1

loop_
  _symmetry_equiv_pos_as_xyz
  'x, y, z'

loop_
  _atom_site_label
  _atom_site_occupancy
  _atom_site_fract_x
  _atom_site_fract_y
  _atom_site_fract_z
  _atom_site_thermal_displace_type
  _atom_site_B_iso_or_equiv
  _atom_site_type_symbol
  Zn1      1.0000 0.74203  0.18920  0.22661  Biso   1.000  Zn
  Zn2      1.0000 0.09323  0.80013  0.80771  Biso   1.000  Zn
  Zn3      1.0000 0.75922  0.30872  0.09234  Biso   1.000  Zn
  Zn4      1.0000 0.83055  0.08328  0.27453  Biso   1.000  Zn
  Zn5      1.0000 0.19742  0.79560  0.67778  Biso   1.000  Zn
  Zn6      1.0000 0.31898  0.67422  0.76368  Biso   1.000  Zn
  S1       1.0000 0.59393  0.85877  0.49061  Biso   1.000  S
  O1       1.0000 0.39078  0.71790  0.68321  Biso   1.000  O
  O2       1.0000 0.29730  0.77667  0.68080  Biso   1.000  O
  C1       1.0000 0.36040  0.76590  0.65750  Biso   1.000  C
  C2       1.0000 0.40000  0.81360  0.59830  Biso   1.000  C
  C3       1.0000 0.36780  0.86590  0.56880  Biso   1.000  C
  H1       1.0000 0.32090  0.86930  0.58300  Biso   1.000  H
  C4       1.0000 0.46810  0.80720  0.57720  Biso   1.000  C
  H2       1.0000 0.49000  0.77150  0.59600  Biso   1.000  H
  C5       1.0000 0.40450  0.91250  0.51890  Biso   1.000  C
  H3       1.0000 0.38200  0.94750  0.50000  Biso   1.000  H
  C6       1.0000 0.50490  0.85570  0.52610  Biso   1.000  C
  C7       1.0000 0.47380  0.90880  0.49600  Biso   1.000  C
  C8       1.0000 0.52130  0.95400  0.44560  Biso   1.000  C
  C9       1.0000 0.50830  0.01280  0.40920  Biso   1.000  C
  H4       1.0000 0.46400  0.02760  0.41400  Biso   1.000  H
  C10      1.0000 0.58830  0.93360  0.43840  Biso   1.000  C
  C11      1.0000 0.56080  0.04900  0.36590  Biso   1.000  C
  H5       1.0000 0.55160  0.08850  0.34100  Biso   1.000  H
  C12      1.0000 0.64170  0.96850  0.39400  Biso   1.000  C
  H6       1.0000 0.68580  0.95260  0.38800  Biso   1.000  H
  C13      1.0000 0.62820  0.02870  0.35780  Biso   1.000  C
  C14      1.0000 0.68650  0.07010  0.31050  Biso   1.000  C
  O3       1.0000 0.74500  0.04483  0.30214  Biso   1.000  O
  O4       1.0000 0.67204  0.12580  0.28566  Biso   1.000  O
  O5       1.0000 0.62380  0.86000  0.53240  Biso   1.000  O
  O6       1.0000 0.62150  0.81460  0.45710  Biso   1.000  O
  S2       1.0000 0.97677  0.89301  0.50705  Biso   1.000  S
  O7       1.0000 0.78700  0.11060  0.39218  Biso   1.000  O
  O8       1.0000 0.86070  0.04550  0.34680  Biso   1.000  O
  C15      1.0000 0.82930  0.06600  0.39210  Biso   1.000  C
  C16      1.0000 0.85030  0.03110  0.44860  Biso   1.000  C
  C17      1.0000 0.89900  0.98370  0.44660  Biso   1.000  C
  H7       1.0000 0.91840  0.97130  0.41170  Biso   1.000  H
  C18      1.0000 0.82220  0.04890  0.50010  Biso   1.000  C
  H8       1.0000 0.78940  0.08100  0.50010  Biso   1.000  H
  C19      1.0000 0.84070  0.02100  0.55230  Biso   1.000  C
  H9       1.0000 0.82130  0.03420  0.58670  Biso   1.000  H
  C20      1.0000 0.91740  0.95610  0.49740  Biso   1.000  C
  C21      1.0000 0.88970  0.97220  0.55180  Biso   1.000  C
  C22      1.0000 0.92230  0.93730  0.59840  Biso   1.000  C
  C23      1.0000 0.90940  0.94310  0.65440  Biso   1.000  C
  H10      1.0000 0.87540  0.97020  0.66890  Biso   1.000  H
  C24      1.0000 0.97320  0.89600  0.57850  Biso   1.000  C
  C25      1.0000 0.00160  0.86680  0.66670  Biso   1.000  C
  C26      1.0000 0.04710  0.83430  0.70740  Biso   1.000  C
  C27      1.0000 0.01460  0.86180  0.61120  Biso   1.000  C
  H11      1.0000 0.05000  0.83640  0.59530  Biso   1.000  H
  C28      1.0000 0.94990  0.90590  0.69060  Biso   1.000  C
  H12      1.0000 0.94190  0.90790  0.72970  Biso   1.000  H
  O9       1.0000 0.09870  0.81013  0.67710  Biso   1.000  O
  O10      1.0000 0.02910  0.83220  0.76280  Biso   1.000  O
  O11      1.0000 0.04160  0.91160  0.45990  Biso   1.000  O
  O12      1.0000 0.94990  0.83660  0.51630  Biso   1.000  O
  S3       1.0000 0.54301  0.45108  0.91277  Biso   1.000  S
  O13      1.0000 0.26750  0.60165  0.89305  Biso   1.000  O
  O14      1.0000 0.36328  0.60285  0.81270  Biso   1.000  O
  C29      1.0000 0.32560  0.58280  0.87090  Biso   1.000  C
  C30      1.0000 0.36000  0.53450  0.91240  Biso   1.000  C
  C31      1.0000 0.42940  0.51990  0.88990  Biso   1.000  C
  H13      1.0000 0.45560  0.53880  0.84840  Biso   1.000  H
  C32      1.0000 0.32310  0.50670  0.97430  Biso   1.000  C
  H14      1.0000 0.27720  0.51690  0.98900  Biso   1.000  H
  C33      1.0000 0.45760  0.47660  0.93120  Biso   1.000  C
  C34      1.0000 0.35220  0.46410  0.01510  Biso   1.000  C
  H15      1.0000 0.32630  0.44600  0.05690  Biso   1.000  H
  C35      1.0000 0.42040  0.44830  0.99350  Biso   1.000  C
  C36      1.0000 0.46330  0.40590  0.02740  Biso   1.000  C
  C37      1.0000 0.44460  0.36970  0.09050  Biso   1.000  C
  H16      1.0000 0.39960  0.36860  0.11640  Biso   1.000  H
  C38      1.0000 0.52950  0.40490  0.99220  Biso   1.000  C
  C39      1.0000 0.49370  0.33540  0.11400  Biso   1.000  C
  H17      1.0000 0.48060  0.30980  0.15560  Biso   1.000  H
  C40      1.0000 0.57990  0.37200  0.01660  Biso   1.000  C
  H18      1.0000 0.62510  0.37350  0.99110  Biso   1.000  H
  C41      1.0000 0.56050  0.33770  0.07860  Biso   1.000  C
  C42      1.0000 0.61100  0.30650  0.10760  Biso   1.000  C
  O15      1.0000 0.67300  0.31684  0.07222  Biso   1.000  O
  O16      1.0000 0.59470  0.27154  0.16330  Biso   1.000  O
  O17      1.0000 0.58780  0.50070  0.89060  Biso   1.000  O
  O18      1.0000 0.55980  0.41280  0.87580  Biso   1.000  O
  S4       1.0000 0.87681  0.57211  0.07417  Biso   1.000  S
  O19      1.0000 0.75140  0.36240  0.24205  Biso   1.000  O
  O20      1.0000 0.83488  0.29190  0.25653  Biso   1.000  O
  C43      1.0000 0.81260  0.34570  0.23360  Biso   1.000  C
  C44      1.0000 0.86330  0.39260  0.19290  Biso   1.000  C
  C45      1.0000 0.84200  0.45160  0.16200  Biso   1.000  C
  H19      1.0000 0.79630  0.46180  0.16900  Biso   1.000  H
  C46      1.0000 0.93370  0.37970  0.18180  Biso   1.000  C
  H20      1.0000 0.94810  0.34090  0.20360  Biso   1.000  H
  C47      1.0000 0.98150  0.42360  0.13910  Biso   1.000  C
  H21      1.0000 0.02730  0.41410  0.13210  Biso   1.000  H
  C48      1.0000 0.89140  0.49570  0.12000  Biso   1.000  C
  C49      1.0000 0.96040  0.48090  0.10770  Biso   1.000  C
  C50      1.0000 0.00290  0.52960  0.05460  Biso   1.000  C
  C51      1.0000 0.07280  0.53120  0.02590  Biso   1.000  C
  H22      1.0000 0.09980  0.49740  0.04010  Biso   1.000  H
  C52      1.0000 0.96400  0.58280  0.03150  Biso   1.000  C
  C53      1.0000 0.10180  0.58220  0.97700  Biso   1.000  C
  H23      1.0000 0.14860  0.58260  0.95800  Biso   1.000  H
  C54      1.0000 0.99220  0.63300  0.98340  Biso   1.000  C
  H24      1.0000 0.96540  0.66690  0.96910  Biso   1.000  H
  C55      1.0000 0.06270  0.63380  0.95480  Biso   1.000  C
  C56      1.0000 0.09680  0.68820  0.89980  Biso   1.000  C
  O21      1.0000 0.05483  0.72650  0.87542  Biso   1.000  O
  O22      1.0000 0.15760  0.69702  0.88098  Biso   1.000  O
  O23      1.0000 0.84131  0.57355  0.03450  Biso   1.000  O
  O24      1.0000 0.84990  0.61140  0.11230  Biso   1.000  O
  S5       1.0000 0.95201  0.11750  0.89981  Biso   1.000  S
  O25      1.0000 0.10150  0.95032  0.78810  Biso   1.000  O
  O26      1.0000 0.06380  0.85730  0.85702  Biso   1.000  O
  C57      1.0000 0.06430  0.91640  0.84120  Biso   1.000  C
  C58      1.0000 0.02110  0.94720  0.88440  Biso   1.000  C
  C59      1.0000 0.98390  0.91260  0.94760  Biso   1.000  C
  H25      1.0000 0.98800  0.86950  0.96020  Biso   1.000  H
  C60      1.0000 0.01280  0.01090  0.86730  Biso   1.000  C
  H26      1.0000 0.03560  0.03580  0.82670  Biso   1.000  H
  C61      1.0000 0.94480  0.93780  0.98850  Biso   1.000  C
  H27      1.0000 0.92290  0.91280  0.02930  Biso   1.000  H
  C62      1.0000 0.97100  0.03730  0.91000  Biso   1.000  C
  C63      1.0000 0.93540  0.00200  0.97170  Biso   1.000  C
  C64      1.0000 0.89510  0.03820  0.01150  Biso   1.000  C
  C65      1.0000 0.85400  0.02020  0.07440  Biso   1.000  C
  H28      1.0000 0.84700  0.97830  0.09730  Biso   1.000  H
  C66      1.0000 0.89850  0.10450  0.97820  Biso   1.000  C
  C67      1.0000 0.86770  0.14580  0.00640  Biso   1.000  C
  H29      1.0000 0.87170  0.18810  0.98380  Biso   1.000  H
  C68      1.0000 0.82450  0.06310  0.10220  Biso   1.000  C
  H30      1.0000 0.79990  0.05000  0.14480  Biso   1.000  H
  C69      1.0000 0.82980  0.12630  0.06910  Biso   1.000  C
  C70      1.0000 0.79710  0.16840  0.10410  Biso   1.000  C
  O27      1.0000 0.77210  0.14800  0.16340  Biso   1.000  O
  O28      1.0000 0.79700  0.22740  0.07190  Biso   1.000  O
  O29      1.0000 0.01090  0.14840  0.88750  Biso   1.000  O
  O30      1.0000 0.91430  0.14380  0.85810  Biso   1.000  O
  O31      1.0000 0.81952  0.17319  0.25085  Biso   1.000  O
  O32      1.0000 0.70355  0.26915  0.18865  Biso   1.000  O
  Zn7      1.0000 0.25797  0.81080  0.77339  Biso   1.000  Zn
  Zn8      1.0000 0.90677  0.19987  0.19229  Biso   1.000  Zn
  Zn9      1.0000 0.24078  0.69128  0.90766  Biso   1.000  Zn
  Zn10     1.0000 0.16945  0.91672  0.72547  Biso   1.000  Zn
  Zn11     1.0000 0.80258  0.20440  0.32222  Biso   1.000  Zn
  Zn12     1.0000 0.68102  0.32578  0.23632  Biso   1.000  Zn
  S6       1.0000 0.40607  0.14123  0.50939  Biso   1.000  S
  O33      1.0000 0.60922  0.28210  0.31679  Biso   1.000  O
  O34      1.0000 0.70270  0.22333  0.31920  Biso   1.000  O
  C71      1.0000 0.63960  0.23410  0.34250  Biso   1.000  C
  C72      1.0000 0.60000  0.18640  0.40170  Biso   1.000  C
  C73      1.0000 0.63220  0.13410  0.43120  Biso   1.000  C
  H31      1.0000 0.67910  0.13070  0.41700  Biso   1.000  H
  C74      1.0000 0.53190  0.19280  0.42280  Biso   1.000  C
  H32      1.0000 0.51000  0.22850  0.40400  Biso   1.000  H
  C75      1.0000 0.59550  0.08750  0.48110  Biso   1.000  C
  H33      1.0000 0.61800  0.05250  0.50000  Biso   1.000  H
  C76      1.0000 0.49510  0.14430  0.47390  Biso   1.000  C
  C77      1.0000 0.52620  0.09120  0.50400  Biso   1.000  C
  C78      1.0000 0.47870  0.04600  0.55440  Biso   1.000  C
  C79      1.0000 0.49170  0.98720  0.59080  Biso   1.000  C
  H34      1.0000 0.53600  0.97240  0.58600  Biso   1.000  H
  C80      1.0000 0.41170  0.06640  0.56160  Biso   1.000  C
  C81      1.0000 0.43920  0.95100  0.63410  Biso   1.000  C
  H35      1.0000 0.44840  0.91150  0.65900  Biso   1.000  H
  C82      1.0000 0.35830  0.03150  0.60600  Biso   1.000  C
  H36      1.0000 0.31420  0.04740  0.61200  Biso   1.000  H
  C83      1.0000 0.37180  0.97130  0.64220  Biso   1.000  C
  C84      1.0000 0.31350  0.92990  0.68950  Biso   1.000  C
  O35      1.0000 0.25500  0.95517  0.69786  Biso   1.000  O
  O36      1.0000 0.32796  0.87420  0.71434  Biso   1.000  O
  O37      1.0000 0.37620  0.14000  0.46760  Biso   1.000  O
  O38      1.0000 0.37850  0.18540  0.54290  Biso   1.000  O
  S7       1.0000 0.02323  0.10699  0.49295  Biso   1.000  S
  O39      1.0000 0.21300  0.88940  0.60782  Biso   1.000  O
  O40      1.0000 0.13930  0.95450  0.65320  Biso   1.000  O
  C85      1.0000 0.17070  0.93400  0.60790  Biso   1.000  C
  C86      1.0000 0.14970  0.96890  0.55140  Biso   1.000  C
  C87      1.0000 0.10100  0.01630  0.55340  Biso   1.000  C
  H37      1.0000 0.08160  0.02870  0.58830  Biso   1.000  H
  C88      1.0000 0.17780  0.95110  0.49990  Biso   1.000  C
  H38      1.0000 0.21060  0.91900  0.49990  Biso   1.000  H
  C89      1.0000 0.15930  0.97900  0.44770  Biso   1.000  C
  H39      1.0000 0.17870  0.96580  0.41330  Biso   1.000  H
  C90      1.0000 0.08260  0.04390  0.50260  Biso   1.000  C
  C91      1.0000 0.11030  0.02780  0.44820  Biso   1.000  C
  C92      1.0000 0.07770  0.06270  0.40160  Biso   1.000  C
  C93      1.0000 0.09060  0.05690  0.34560  Biso   1.000  C
  H40      1.0000 0.12460  0.02980  0.33110  Biso   1.000  H
  C94      1.0000 0.02680  0.10400  0.42150  Biso   1.000  C
  C95      1.0000 0.99840  0.13320  0.33330  Biso   1.000  C
  C96      1.0000 0.95290  0.16570  0.29260  Biso   1.000  C
  C97      1.0000 0.98540  0.13820  0.38880  Biso   1.000  C
  H41      1.0000 0.95000  0.16360  0.40470  Biso   1.000  H
  C98      1.0000 0.05010  0.09410  0.30940  Biso   1.000  C
  H42      1.0000 0.05810  0.09210  0.27030  Biso   1.000  H
  O41      1.0000 0.90130  0.18987  0.32290  Biso   1.000  O
  O42      1.0000 0.97090  0.16780  0.23720  Biso   1.000  O
  O43      1.0000 0.95840  0.08840  0.54010  Biso   1.000  O
  O44      1.0000 0.05010  0.16340  0.48370  Biso   1.000  O
  S8       1.0000 0.45699  0.54892  0.08723  Biso   1.000  S
  O45      1.0000 0.73250  0.39835  0.10695  Biso   1.000  O
  O46      1.0000 0.63672  0.39715  0.18730  Biso   1.000  O
  C99      1.0000 0.67440  0.41720  0.12910  Biso   1.000  C
  C100     1.0000 0.64000  0.46550  0.08760  Biso   1.000  C
  C101     1.0000 0.57060  0.48010  0.11010  Biso   1.000  C
  H43      1.0000 0.54440  0.46120  0.15160  Biso   1.000  H
  C102     1.0000 0.67690  0.49330  0.02570  Biso   1.000  C
  H44      1.0000 0.72280  0.48310  0.01100  Biso   1.000  H
  C103     1.0000 0.54240  0.52340  0.06880  Biso   1.000  C
  C104     1.0000 0.64780  0.53590  0.98490  Biso   1.000  C
  H45      1.0000 0.67370  0.55400  0.94310  Biso   1.000  H
  C105     1.0000 0.57960  0.55170  0.00650  Biso   1.000  C
  C106     1.0000 0.53670  0.59410  0.97260  Biso   1.000  C
  C107     1.0000 0.55540  0.63030  0.90950  Biso   1.000  C
  H46      1.0000 0.60040  0.63140  0.88360  Biso   1.000  H
  C108     1.0000 0.47050  0.59510  0.00780  Biso   1.000  C
  C109     1.0000 0.50630  0.66460  0.88600  Biso   1.000  C
  H47      1.0000 0.51940  0.69020  0.84440  Biso   1.000  H
  C110     1.0000 0.42010  0.62800  0.98340  Biso   1.000  C
  H48      1.0000 0.37490  0.62650  0.00890  Biso   1.000  H
  C111     1.0000 0.43950  0.66230  0.92140  Biso   1.000  C
  C112     1.0000 0.38900  0.69350  0.89240  Biso   1.000  C
  O47      1.0000 0.32700  0.68316  0.92778  Biso   1.000  O
  O48      1.0000 0.40530  0.72846  0.83670  Biso   1.000  O
  O49      1.0000 0.41220  0.49930  0.10940  Biso   1.000  O
  O50      1.0000 0.44020  0.58720  0.12420  Biso   1.000  O
  S9       1.0000 0.12319  0.42789  0.92583  Biso   1.000  S
  O51      1.0000 0.24860  0.63760  0.75795  Biso   1.000  O
  O52      1.0000 0.16512  0.70810  0.74347  Biso   1.000  O
  C113     1.0000 0.18740  0.65430  0.76640  Biso   1.000  C
  C114     1.0000 0.13670  0.60740  0.80710  Biso   1.000  C
  C115     1.0000 0.15800  0.54840  0.83800  Biso   1.000  C
  H49      1.0000 0.20370  0.53820  0.83100  Biso   1.000  H
  C116     1.0000 0.06630  0.62030  0.81820  Biso   1.000  C
  H50      1.0000 0.05190  0.65910  0.79640  Biso   1.000  H
  C117     1.0000 0.01850  0.57640  0.86090  Biso   1.000  C
  H51      1.0000 0.97270  0.58590  0.86790  Biso   1.000  H
  C118     1.0000 0.10860  0.50430  0.88000  Biso   1.000  C
  C119     1.0000 0.03960  0.51910  0.89230  Biso   1.000  C
  C120     1.0000 0.99710  0.47040  0.94540  Biso   1.000  C
  C121     1.0000 0.92720  0.46880  0.97410  Biso   1.000  C
  H52      1.0000 0.90020  0.50260  0.95990  Biso   1.000  H
  C122     1.0000 0.03600  0.41720  0.96850  Biso   1.000  C
  C123     1.0000 0.89820  0.41780  0.02300  Biso   1.000  C
  H53      1.0000 0.85140  0.41740  0.04200  Biso   1.000  H
  C124     1.0000 0.00780  0.36700  0.01660  Biso   1.000  C
  H54      1.0000 0.03460  0.33310  0.03090  Biso   1.000  H
  C125     1.0000 0.93730  0.36620  0.04520  Biso   1.000  C
  C126     1.0000 0.90320  0.31180  0.10020  Biso   1.000  C
  O53      1.0000 0.94517  0.27350  0.12458  Biso   1.000  O
  O54      1.0000 0.84240  0.30298  0.11902  Biso   1.000  O
  O55      1.0000 0.15869  0.42645  0.96550  Biso   1.000  O
  O56      1.0000 0.15010  0.38860  0.88770  Biso   1.000  O
  S10      1.0000 0.04799  0.88250  0.10019  Biso   1.000  S
  O57      1.0000 0.89850  0.04968  0.21190  Biso   1.000  O
  O58      1.0000 0.93620  0.14270  0.14298  Biso   1.000  O
  C127     1.0000 0.93570  0.08360  0.15880  Biso   1.000  C
  C128     1.0000 0.97890  0.05280  0.11560  Biso   1.000  C
  C129     1.0000 0.01610  0.08740  0.05240  Biso   1.000  C
  H55      1.0000 0.01200  0.13050  0.03980  Biso   1.000  H
  C130     1.0000 0.98720  0.98910  0.13270  Biso   1.000  C
  H56      1.0000 0.96440  0.96420  0.17330  Biso   1.000  H
  C131     1.0000 0.05520  0.06220  0.01150  Biso   1.000  C
  H57      1.0000 0.07710  0.08720  0.97070  Biso   1.000  H
  C132     1.0000 0.02900  0.96270  0.09000  Biso   1.000  C
  C133     1.0000 0.06460  0.99800  0.02830  Biso   1.000  C
  C134     1.0000 0.10490  0.96180  0.98850  Biso   1.000  C
  C135     1.0000 0.14600  0.97980  0.92560  Biso   1.000  C
  H58      1.0000 0.15300  0.02170  0.90270  Biso   1.000  H
  C136     1.0000 0.10150  0.89550  0.02180  Biso   1.000  C
  C137     1.0000 0.13230  0.85420  0.99360  Biso   1.000  C
  H59      1.0000 0.12830  0.81190  0.01620  Biso   1.000  H
  C138     1.0000 0.17550  0.93690  0.89780  Biso   1.000  C
  H60      1.0000 0.20010  0.95000  0.85520  Biso   1.000  H
  C139     1.0000 0.17020  0.87370  0.93090  Biso   1.000  C
  C140     1.0000 0.20290  0.83160  0.89590  Biso   1.000  C
  O59      1.0000 0.22790  0.85200  0.83660  Biso   1.000  O
  O60      1.0000 0.20300  0.77260  0.92810  Biso   1.000  O
  O61      1.0000 0.98910  0.85160  0.11250  Biso   1.000  O
  O62      1.0000 0.08570  0.85620  0.14190  Biso   1.000  O
  O63      1.0000 0.18048  0.82681  0.74915  Biso   1.000  O
  O64      1.0000 0.29645  0.73085  0.81135  Biso   1.000  O
