data_image0
_cell_length_a       11.3528
_cell_length_b       11.3528
_cell_length_c       23.145
_cell_angle_alpha    90
_cell_angle_beta     90
_cell_angle_gamma    90

_symmetry_space_group_name_H-M    "P 1"
_symmetry_int_tables_number       1

loop_
  _symmetry_equiv_pos_as_xyz
  'x, y, z'

loop_
  _atom_site_label
  _atom_site_occupancy
  _atom_site_fract_x
  _atom_site_fract_y
  _atom_site_fract_z
  _atom_site_thermal_displace_type
  _atom_site_B_iso_or_equiv
  _atom_site_type_symbol
  N1       1.0000 0.07290  0.95050  0.08140  Biso   1.000  N
  N2       1.0000 0.15600  0.84440  0.18130  Biso   1.000  N
  C1       1.0000 0.06850  0.83310  0.08820  Biso   1.000  C
  C2       1.0000 0.11460  0.01390  0.12530  Biso   1.000  C
  H1       1.0000 0.11570  0.09560  0.12260  Biso   1.000  H
  C3       1.0000 0.15570  0.96070  0.17440  Biso   1.000  C
  H2       1.0000 0.18450  0.00780  0.20410  Biso   1.000  H
  C4       1.0000 0.10980  0.78060  0.13830  Biso   1.000  C
  H3       1.0000 0.10530  0.69920  0.14210  Biso   1.000  H
  C5       1.0000 0.01790  0.76240  0.03880  Biso   1.000  C
  O1       1.0000 0.01710  0.65500  0.04610  Biso   1.000  O
  O2       1.0000 0.98210  0.81750  0.99530  Biso   1.000  O
  N3       1.0000 0.42710  0.54950  0.08140  Biso   1.000  N
  N4       1.0000 0.34400  0.65560  0.18130  Biso   1.000  N
  C6       1.0000 0.43150  0.66690  0.08820  Biso   1.000  C
  C7       1.0000 0.38540  0.48610  0.12530  Biso   1.000  C
  H4       1.0000 0.38430  0.40440  0.12260  Biso   1.000  H
  C8       1.0000 0.34430  0.53930  0.17440  Biso   1.000  C
  H5       1.0000 0.31550  0.49220  0.20410  Biso   1.000  H
  C9       1.0000 0.39020  0.71940  0.13830  Biso   1.000  C
  H6       1.0000 0.39470  0.80080  0.14210  Biso   1.000  H
  C10      1.0000 0.48210  0.73760  0.03880  Biso   1.000  C
  O3       1.0000 0.48290  0.84500  0.04610  Biso   1.000  O
  O4       1.0000 0.51790  0.68250  0.99530  Biso   1.000  O
  N5       1.0000 0.54950  0.07290  0.08140  Biso   1.000  N
  N6       1.0000 0.65560  0.15600  0.18130  Biso   1.000  N
  C11      1.0000 0.66690  0.06850  0.08820  Biso   1.000  C
  C12      1.0000 0.48610  0.11460  0.12530  Biso   1.000  C
  H7       1.0000 0.40440  0.11570  0.12260  Biso   1.000  H
  C13      1.0000 0.53930  0.15570  0.17440  Biso   1.000  C
  H8       1.0000 0.49220  0.18450  0.20410  Biso   1.000  H
  C14      1.0000 0.71940  0.10980  0.13830  Biso   1.000  C
  H9       1.0000 0.80080  0.10530  0.14210  Biso   1.000  H
  C15      1.0000 0.73760  0.01790  0.03880  Biso   1.000  C
  O5       1.0000 0.84500  0.01710  0.04610  Biso   1.000  O
  O6       1.0000 0.68250  0.98210  0.99530  Biso   1.000  O
  N7       1.0000 0.95050  0.42710  0.08140  Biso   1.000  N
  N8       1.0000 0.84440  0.34400  0.18130  Biso   1.000  N
  C16      1.0000 0.83310  0.43150  0.08820  Biso   1.000  C
  C17      1.0000 0.01390  0.38540  0.12530  Biso   1.000  C
  H10      1.0000 0.09560  0.38430  0.12260  Biso   1.000  H
  C18      1.0000 0.96070  0.34430  0.17440  Biso   1.000  C
  H11      1.0000 0.00780  0.31550  0.20410  Biso   1.000  H
  C19      1.0000 0.78060  0.39020  0.13830  Biso   1.000  C
  H12      1.0000 0.69920  0.39470  0.14210  Biso   1.000  H
  C20      1.0000 0.76240  0.48210  0.03880  Biso   1.000  C
  O7       1.0000 0.65500  0.48290  0.04610  Biso   1.000  O
  O8       1.0000 0.81750  0.51790  0.99530  Biso   1.000  O
  N9       1.0000 0.92710  0.45050  0.41860  Biso   1.000  N
  N10      1.0000 0.84400  0.34440  0.31870  Biso   1.000  N
  C21      1.0000 0.93150  0.33310  0.41180  Biso   1.000  C
  C22      1.0000 0.88540  0.51390  0.37470  Biso   1.000  C
  H13      1.0000 0.88430  0.59560  0.37740  Biso   1.000  H
  C23      1.0000 0.84430  0.46070  0.32560  Biso   1.000  C
  H14      1.0000 0.81550  0.50780  0.29590  Biso   1.000  H
  C24      1.0000 0.89020  0.28060  0.36170  Biso   1.000  C
  H15      1.0000 0.89470  0.19920  0.35790  Biso   1.000  H
  C25      1.0000 0.98210  0.26240  0.46120  Biso   1.000  C
  O9       1.0000 0.98290  0.15500  0.45390  Biso   1.000  O
  O10      1.0000 0.01790  0.31750  0.50470  Biso   1.000  O
  N11      1.0000 0.57290  0.04950  0.41860  Biso   1.000  N
  N12      1.0000 0.65600  0.15560  0.31870  Biso   1.000  N
  C26      1.0000 0.56850  0.16690  0.41180  Biso   1.000  C
  C27      1.0000 0.61460  0.98610  0.37470  Biso   1.000  C
  H16      1.0000 0.61570  0.90440  0.37740  Biso   1.000  H
  C28      1.0000 0.65570  0.03930  0.32560  Biso   1.000  C
  H17      1.0000 0.68450  0.99220  0.29590  Biso   1.000  H
  C29      1.0000 0.60980  0.21940  0.36170  Biso   1.000  C
  H18      1.0000 0.60530  0.30080  0.35790  Biso   1.000  H
  C30      1.0000 0.51790  0.23760  0.46120  Biso   1.000  C
  O11      1.0000 0.51710  0.34500  0.45390  Biso   1.000  O
  O12      1.0000 0.48210  0.18250  0.50470  Biso   1.000  O
  N13      1.0000 0.45050  0.57290  0.41860  Biso   1.000  N
  N14      1.0000 0.34440  0.65600  0.31870  Biso   1.000  N
  C31      1.0000 0.33310  0.56850  0.41180  Biso   1.000  C
  C32      1.0000 0.51390  0.61460  0.37470  Biso   1.000  C
  H19      1.0000 0.59560  0.61570  0.37740  Biso   1.000  H
  C33      1.0000 0.46070  0.65570  0.32560  Biso   1.000  C
  H20      1.0000 0.50780  0.68450  0.29590  Biso   1.000  H
  C34      1.0000 0.28060  0.60980  0.36170  Biso   1.000  C
  H21      1.0000 0.19920  0.60530  0.35790  Biso   1.000  H
  C35      1.0000 0.26240  0.51790  0.46120  Biso   1.000  C
  O13      1.0000 0.15500  0.51710  0.45390  Biso   1.000  O
  O14      1.0000 0.31750  0.48210  0.50470  Biso   1.000  O
  N15      1.0000 0.04950  0.92710  0.41860  Biso   1.000  N
  N16      1.0000 0.15560  0.84400  0.31870  Biso   1.000  N
  C36      1.0000 0.16690  0.93150  0.41180  Biso   1.000  C
  C37      1.0000 0.98610  0.88540  0.37470  Biso   1.000  C
  H22      1.0000 0.90440  0.88430  0.37740  Biso   1.000  H
  C38      1.0000 0.03930  0.84430  0.32560  Biso   1.000  C
  H23      1.0000 0.99220  0.81550  0.29590  Biso   1.000  H
  C39      1.0000 0.21940  0.89020  0.36170  Biso   1.000  C
  H24      1.0000 0.30080  0.89470  0.35790  Biso   1.000  H
  C40      1.0000 0.23760  0.98210  0.46120  Biso   1.000  C
  O15      1.0000 0.34500  0.98290  0.45390  Biso   1.000  O
  O16      1.0000 0.18250  0.01790  0.50470  Biso   1.000  O
  N17      1.0000 0.92710  0.04950  0.91860  Biso   1.000  N
  N18      1.0000 0.84400  0.15560  0.81870  Biso   1.000  N
  C41      1.0000 0.93150  0.16690  0.91180  Biso   1.000  C
  C42      1.0000 0.88540  0.98610  0.87470  Biso   1.000  C
  H25      1.0000 0.88430  0.90440  0.87740  Biso   1.000  H
  C43      1.0000 0.84430  0.03930  0.82560  Biso   1.000  C
  H26      1.0000 0.81550  0.99220  0.79590  Biso   1.000  H
  C44      1.0000 0.89020  0.21940  0.86170  Biso   1.000  C
  H27      1.0000 0.89470  0.30080  0.85790  Biso   1.000  H
  C45      1.0000 0.98210  0.23760  0.96120  Biso   1.000  C
  O17      1.0000 0.98290  0.34500  0.95390  Biso   1.000  O
  O18      1.0000 0.01790  0.18250  0.00470  Biso   1.000  O
  N19      1.0000 0.57290  0.45050  0.91860  Biso   1.000  N
  N20      1.0000 0.65600  0.34440  0.81870  Biso   1.000  N
  C46      1.0000 0.56850  0.33310  0.91180  Biso   1.000  C
  C47      1.0000 0.61460  0.51390  0.87470  Biso   1.000  C
  H28      1.0000 0.61570  0.59560  0.87740  Biso   1.000  H
  C48      1.0000 0.65570  0.46070  0.82560  Biso   1.000  C
  H29      1.0000 0.68450  0.50780  0.79590  Biso   1.000  H
  C49      1.0000 0.60980  0.28060  0.86170  Biso   1.000  C
  H30      1.0000 0.60530  0.19920  0.85790  Biso   1.000  H
  C50      1.0000 0.51790  0.26240  0.96120  Biso   1.000  C
  O19      1.0000 0.51710  0.15500  0.95390  Biso   1.000  O
  O20      1.0000 0.48210  0.31750  0.00470  Biso   1.000  O
  N21      1.0000 0.45050  0.92710  0.91860  Biso   1.000  N
  N22      1.0000 0.34440  0.84400  0.81870  Biso   1.000  N
  C51      1.0000 0.33310  0.93150  0.91180  Biso   1.000  C
  C52      1.0000 0.51390  0.88540  0.87470  Biso   1.000  C
  H31      1.0000 0.59560  0.88430  0.87740  Biso   1.000  H
  C53      1.0000 0.46070  0.84430  0.82560  Biso   1.000  C
  H32      1.0000 0.50780  0.81550  0.79590  Biso   1.000  H
  C54      1.0000 0.28060  0.89020  0.86170  Biso   1.000  C
  H33      1.0000 0.19920  0.89470  0.85790  Biso   1.000  H
  C55      1.0000 0.26240  0.98210  0.96120  Biso   1.000  C
  O21      1.0000 0.15500  0.98290  0.95390  Biso   1.000  O
  O22      1.0000 0.31750  0.01790  0.00470  Biso   1.000  O
  N23      1.0000 0.04950  0.57290  0.91860  Biso   1.000  N
  N24      1.0000 0.15560  0.65600  0.81870  Biso   1.000  N
  C56      1.0000 0.16690  0.56850  0.91180  Biso   1.000  C
  C57      1.0000 0.98610  0.61460  0.87470  Biso   1.000  C
  H34      1.0000 0.90440  0.61570  0.87740  Biso   1.000  H
  C58      1.0000 0.03930  0.65570  0.82560  Biso   1.000  C
  H35      1.0000 0.99220  0.68450  0.79590  Biso   1.000  H
  C59      1.0000 0.21940  0.60980  0.86170  Biso   1.000  C
  H36      1.0000 0.30080  0.60530  0.85790  Biso   1.000  H
  C60      1.0000 0.23760  0.51790  0.96120  Biso   1.000  C
  O23      1.0000 0.34500  0.51710  0.95390  Biso   1.000  O
  O24      1.0000 0.18250  0.48210  0.00470  Biso   1.000  O
  N25      1.0000 0.07290  0.54950  0.58140  Biso   1.000  N
  N26      1.0000 0.15600  0.65560  0.68130  Biso   1.000  N
  C61      1.0000 0.06850  0.66690  0.58820  Biso   1.000  C
  C62      1.0000 0.11460  0.48610  0.62530  Biso   1.000  C
  H37      1.0000 0.11570  0.40440  0.62260  Biso   1.000  H
  C63      1.0000 0.15570  0.53930  0.67440  Biso   1.000  C
  H38      1.0000 0.18450  0.49220  0.70410  Biso   1.000  H
  C64      1.0000 0.10980  0.71940  0.63830  Biso   1.000  C
  H39      1.0000 0.10530  0.80080  0.64210  Biso   1.000  H
  C65      1.0000 0.01790  0.73760  0.53880  Biso   1.000  C
  O25      1.0000 0.01710  0.84500  0.54610  Biso   1.000  O
  O26      1.0000 0.98210  0.68250  0.49530  Biso   1.000  O
  N27      1.0000 0.42710  0.95050  0.58140  Biso   1.000  N
  N28      1.0000 0.34400  0.84440  0.68130  Biso   1.000  N
  C66      1.0000 0.43150  0.83310  0.58820  Biso   1.000  C
  C67      1.0000 0.38540  0.01390  0.62530  Biso   1.000  C
  H40      1.0000 0.38430  0.09560  0.62260  Biso   1.000  H
  C68      1.0000 0.34430  0.96070  0.67440  Biso   1.000  C
  H41      1.0000 0.31550  0.00780  0.70410  Biso   1.000  H
  C69      1.0000 0.39020  0.78060  0.63830  Biso   1.000  C
  H42      1.0000 0.39470  0.69920  0.64210  Biso   1.000  H
  C70      1.0000 0.48210  0.76240  0.53880  Biso   1.000  C
  O27      1.0000 0.48290  0.65500  0.54610  Biso   1.000  O
  O28      1.0000 0.51790  0.81750  0.49530  Biso   1.000  O
  N29      1.0000 0.54950  0.42710  0.58140  Biso   1.000  N
  N30      1.0000 0.65560  0.34400  0.68130  Biso   1.000  N
  C71      1.0000 0.66690  0.43150  0.58820  Biso   1.000  C
  C72      1.0000 0.48610  0.38540  0.62530  Biso   1.000  C
  H43      1.0000 0.40440  0.38430  0.62260  Biso   1.000  H
  C73      1.0000 0.53930  0.34430  0.67440  Biso   1.000  C
  H44      1.0000 0.49220  0.31550  0.70410  Biso   1.000  H
  C74      1.0000 0.71940  0.39020  0.63830  Biso   1.000  C
  H45      1.0000 0.80080  0.39470  0.64210  Biso   1.000  H
  C75      1.0000 0.73760  0.48210  0.53880  Biso   1.000  C
  O29      1.0000 0.84500  0.48290  0.54610  Biso   1.000  O
  O30      1.0000 0.68250  0.51790  0.49530  Biso   1.000  O
  N31      1.0000 0.95050  0.07290  0.58140  Biso   1.000  N
  N32      1.0000 0.84440  0.15600  0.68130  Biso   1.000  N
  C76      1.0000 0.83310  0.06850  0.58820  Biso   1.000  C
  C77      1.0000 0.01390  0.11460  0.62530  Biso   1.000  C
  H46      1.0000 0.09560  0.11570  0.62260  Biso   1.000  H
  C78      1.0000 0.96070  0.15570  0.67440  Biso   1.000  C
  H47      1.0000 0.00780  0.18450  0.70410  Biso   1.000  H
  C79      1.0000 0.78060  0.10980  0.63830  Biso   1.000  C
  H48      1.0000 0.69920  0.10530  0.64210  Biso   1.000  H
  C80      1.0000 0.76240  0.01790  0.53880  Biso   1.000  C
  O31      1.0000 0.65500  0.01710  0.54610  Biso   1.000  O
  O32      1.0000 0.81750  0.98210  0.49530  Biso   1.000  O
  Co1      1.0000 0.25000  0.75000  0.25000  Biso   1.000  Co
  Co2      1.0000 0.75000  0.25000  0.25000  Biso   1.000  Co
  Co3      1.0000 0.75000  0.25000  0.75000  Biso   1.000  Co
  Co4      1.0000 0.25000  0.75000  0.75000  Biso   1.000  Co
  Co5      1.0000 0.00000  0.00000  0.00000  Biso   1.000  Co
  Co6      1.0000 0.50000  0.50000  0.00000  Biso   1.000  Co
  Co7      1.0000 0.50000  0.00000  0.00000  Biso   1.000  Co
  Co8      1.0000 0.00000  0.50000  0.00000  Biso   1.000  Co
  Co9      1.0000 0.00000  0.50000  0.50000  Biso   1.000  Co
  Co10     1.0000 0.50000  0.00000  0.50000  Biso   1.000  Co
  Co11     1.0000 0.50000  0.50000  0.50000  Biso   1.000  Co
  Co12     1.0000 0.00000  0.00000  0.50000  Biso   1.000  Co
  Cl1      1.0000 0.09940  0.59940  0.25000  Biso   1.000  Cl
  Cl2      1.0000 0.40060  0.90060  0.25000  Biso   1.000  Cl
  Cl3      1.0000 0.90060  0.09940  0.25000  Biso   1.000  Cl
  Cl4      1.0000 0.59940  0.40060  0.25000  Biso   1.000  Cl
  Cl5      1.0000 0.90060  0.40060  0.75000  Biso   1.000  Cl
  Cl6      1.0000 0.59940  0.09940  0.75000  Biso   1.000  Cl
  Cl7      1.0000 0.09940  0.90060  0.75000  Biso   1.000  Cl
  Cl8      1.0000 0.40060  0.59940  0.75000  Biso   1.000  Cl
