data_image0
_cell_length_a       8.9978
_cell_length_b       9.4638
_cell_length_c       10.433
_cell_angle_alpha    90
_cell_angle_beta     90
_cell_angle_gamma    90

_symmetry_space_group_name_H-M    "P 1"
_symmetry_int_tables_number       1

loop_
  _symmetry_equiv_pos_as_xyz
  'x, y, z'

loop_
  _atom_site_label
  _atom_site_occupancy
  _atom_site_fract_x
  _atom_site_fract_y
  _atom_site_fract_z
  _atom_site_thermal_displace_type
  _atom_site_B_iso_or_equiv
  _atom_site_type_symbol
  Co1      1.0000 0.70432  0.05272  0.73099  Biso   1.000  Co
  O1       1.0000 0.53970  0.91550  0.67950  Biso   1.000  O
  O2       1.0000 0.41510  0.71650  0.68480  Biso   1.000  O
  O3       1.0000 0.15250  0.34720  0.44310  Biso   1.000  O
  O4       1.0000 0.28050  0.47950  0.58110  Biso   1.000  O
  N1       1.0000 0.12810  0.38560  0.77700  Biso   1.000  N
  N2       1.0000 0.89870  0.18830  0.74770  Biso   1.000  N
  C1       1.0000 0.50570  0.80140  0.72590  Biso   1.000  C
  H1       1.0000 0.55430  0.77630  0.80120  Biso   1.000  H
  C2       1.0000 0.18340  0.39050  0.55270  Biso   1.000  C
  C3       1.0000 0.09620  0.33320  0.66380  Biso   1.000  C
  C4       1.0000 0.97770  0.23540  0.64690  Biso   1.000  C
  H2       1.0000 0.95450  0.20350  0.56500  Biso   1.000  H
  C5       1.0000 0.93710  0.24150  0.86290  Biso   1.000  C
  H3       1.0000 0.88340  0.21310  0.93460  Biso   1.000  H
  C6       1.0000 0.05210  0.33590  0.87940  Biso   1.000  C
  H4       1.0000 0.07760  0.36570  0.96150  Biso   1.000  H
  Co2      1.0000 0.79568  0.94728  0.23099  Biso   1.000  Co
  O5       1.0000 0.96030  0.08450  0.17950  Biso   1.000  O
  O6       1.0000 0.08490  0.28350  0.18480  Biso   1.000  O
  O7       1.0000 0.34750  0.65280  0.94310  Biso   1.000  O
  O8       1.0000 0.21950  0.52050  0.08110  Biso   1.000  O
  N3       1.0000 0.37190  0.61440  0.27700  Biso   1.000  N
  N4       1.0000 0.60130  0.81170  0.24770  Biso   1.000  N
  C7       1.0000 0.99430  0.19860  0.22590  Biso   1.000  C
  H5       1.0000 0.94570  0.22370  0.30120  Biso   1.000  H
  C8       1.0000 0.31660  0.60950  0.05270  Biso   1.000  C
  C9       1.0000 0.40380  0.66680  0.16380  Biso   1.000  C
  C10      1.0000 0.52230  0.76460  0.14690  Biso   1.000  C
  H6       1.0000 0.54550  0.79650  0.06500  Biso   1.000  H
  C11      1.0000 0.56290  0.75850  0.36290  Biso   1.000  C
  H7       1.0000 0.61660  0.78690  0.43460  Biso   1.000  H
  C12      1.0000 0.44790  0.66410  0.37940  Biso   1.000  C
  H8       1.0000 0.42240  0.63430  0.46150  Biso   1.000  H
  Co3      1.0000 0.29568  0.55272  0.76901  Biso   1.000  Co
  O9       1.0000 0.46030  0.41550  0.82050  Biso   1.000  O
  O10      1.0000 0.58490  0.21650  0.81520  Biso   1.000  O
  O11      1.0000 0.84750  0.84720  0.05690  Biso   1.000  O
  O12      1.0000 0.71950  0.97950  0.91890  Biso   1.000  O
  N5       1.0000 0.87190  0.88560  0.72300  Biso   1.000  N
  N6       1.0000 0.10130  0.68830  0.75230  Biso   1.000  N
  C13      1.0000 0.49430  0.30140  0.77410  Biso   1.000  C
  H9       1.0000 0.44570  0.27630  0.69880  Biso   1.000  H
  C14      1.0000 0.81660  0.89050  0.94730  Biso   1.000  C
  C15      1.0000 0.90380  0.83320  0.83620  Biso   1.000  C
  C16      1.0000 0.02230  0.73540  0.85310  Biso   1.000  C
  H10      1.0000 0.04550  0.70350  0.93500  Biso   1.000  H
  C17      1.0000 0.06290  0.74150  0.63710  Biso   1.000  C
  H11      1.0000 0.11660  0.71310  0.56540  Biso   1.000  H
  C18      1.0000 0.94790  0.83590  0.62060  Biso   1.000  C
  H12      1.0000 0.92240  0.86570  0.53850  Biso   1.000  H
  Co4      1.0000 0.20432  0.44728  0.26901  Biso   1.000  Co
  O13      1.0000 0.03970  0.58450  0.32050  Biso   1.000  O
  O14      1.0000 0.91510  0.78350  0.31520  Biso   1.000  O
  O15      1.0000 0.65250  0.15280  0.55690  Biso   1.000  O
  O16      1.0000 0.78050  0.02050  0.41890  Biso   1.000  O
  N7       1.0000 0.62810  0.11440  0.22300  Biso   1.000  N
  N8       1.0000 0.39870  0.31170  0.25230  Biso   1.000  N
  C19      1.0000 0.00570  0.69860  0.27410  Biso   1.000  C
  H13      1.0000 0.05430  0.72370  0.19880  Biso   1.000  H
  C20      1.0000 0.68340  0.10950  0.44730  Biso   1.000  C
  C21      1.0000 0.59620  0.16680  0.33620  Biso   1.000  C
  C22      1.0000 0.47770  0.26460  0.35310  Biso   1.000  C
  H14      1.0000 0.45450  0.29650  0.43500  Biso   1.000  H
  C23      1.0000 0.43710  0.25850  0.13710  Biso   1.000  C
  H15      1.0000 0.38340  0.28690  0.06540  Biso   1.000  H
  C24      1.0000 0.55210  0.16410  0.12060  Biso   1.000  C
  H16      1.0000 0.57760  0.13430  0.03850  Biso   1.000  H
