data_image0
_cell_length_a       8.9199
_cell_length_b       9.4566
_cell_length_c       10.414
_cell_angle_alpha    90
_cell_angle_beta     90
_cell_angle_gamma    90

_symmetry_space_group_name_H-M    "P 1"
_symmetry_int_tables_number       1

loop_
  _symmetry_equiv_pos_as_xyz
  'x, y, z'

loop_
  _atom_site_label
  _atom_site_occupancy
  _atom_site_fract_x
  _atom_site_fract_y
  _atom_site_fract_z
  _atom_site_thermal_displace_type
  _atom_site_B_iso_or_equiv
  _atom_site_type_symbol
  Co1      1.0000 0.79756  0.55381  0.27399  Biso   1.000  Co
  O1       1.0000 0.93130  0.39050  0.32960  Biso   1.000  O
  O2       1.0000 0.04700  0.19020  0.30570  Biso   1.000  O
  O3       1.0000 0.77850  0.48060  0.08460  Biso   1.000  O
  O4       1.0000 0.64410  0.35310  0.94820  Biso   1.000  O
  N1       1.0000 0.61360  0.39950  0.27900  Biso   1.000  N
  N2       1.0000 0.38140  0.20850  0.24880  Biso   1.000  N
  C1       1.0000 0.00480  0.30630  0.27700  Biso   1.000  C
  H1       1.0000 0.03730  0.33530  0.19640  Biso   1.000  H
  C2       1.0000 0.67560  0.39780  0.05820  Biso   1.000  C
  C3       1.0000 0.58150  0.34510  0.17040  Biso   1.000  C
  C4       1.0000 0.46150  0.25140  0.15050  Biso   1.000  C
  H2       1.0000 0.43900  0.22000  0.06810  Biso   1.000  H
  C5       1.0000 0.41180  0.26110  0.36470  Biso   1.000  C
  H3       1.0000 0.35400  0.23280  0.43450  Biso   1.000  H
  C6       1.0000 0.52770  0.35710  0.38400  Biso   1.000  C
  H4       1.0000 0.54760  0.39250  0.46560  Biso   1.000  H
  Co2      1.0000 0.70244  0.44619  0.77399  Biso   1.000  Co
  O5       1.0000 0.56870  0.60950  0.82960  Biso   1.000  O
  O6       1.0000 0.45300  0.80980  0.80570  Biso   1.000  O
  O7       1.0000 0.72150  0.51940  0.58460  Biso   1.000  O
  O8       1.0000 0.85590  0.64690  0.44820  Biso   1.000  O
  N3       1.0000 0.88640  0.60050  0.77900  Biso   1.000  N
  N4       1.0000 0.11860  0.79150  0.74880  Biso   1.000  N
  C7       1.0000 0.49520  0.69370  0.77700  Biso   1.000  C
  H5       1.0000 0.46270  0.66470  0.69640  Biso   1.000  H
  C8       1.0000 0.82440  0.60220  0.55820  Biso   1.000  C
  C9       1.0000 0.91850  0.65490  0.67040  Biso   1.000  C
  C10      1.0000 0.03850  0.74860  0.65050  Biso   1.000  C
  H6       1.0000 0.06100  0.78000  0.56810  Biso   1.000  H
  C11      1.0000 0.08820  0.73890  0.86470  Biso   1.000  C
  H7       1.0000 0.14600  0.76720  0.93450  Biso   1.000  H
  C12      1.0000 0.97230  0.64290  0.88400  Biso   1.000  C
  H8       1.0000 0.95240  0.60750  0.96560  Biso   1.000  H
  Co3      1.0000 0.20244  0.05381  0.22601  Biso   1.000  Co
  O9       1.0000 0.06870  0.89050  0.17040  Biso   1.000  O
  O10      1.0000 0.95300  0.69020  0.19430  Biso   1.000  O
  O11      1.0000 0.22150  0.98060  0.41540  Biso   1.000  O
  O12      1.0000 0.35590  0.85310  0.55180  Biso   1.000  O
  N5       1.0000 0.38640  0.89950  0.22100  Biso   1.000  N
  N6       1.0000 0.61860  0.70850  0.25120  Biso   1.000  N
  C13      1.0000 0.99520  0.80630  0.22300  Biso   1.000  C
  H9       1.0000 0.96270  0.83530  0.30360  Biso   1.000  H
  C14      1.0000 0.32440  0.89780  0.44180  Biso   1.000  C
  C15      1.0000 0.41850  0.84510  0.32960  Biso   1.000  C
  C16      1.0000 0.53850  0.75140  0.34950  Biso   1.000  C
  H10      1.0000 0.56100  0.72000  0.43190  Biso   1.000  H
  C17      1.0000 0.58820  0.76110  0.13530  Biso   1.000  C
  H11      1.0000 0.64600  0.73280  0.06550  Biso   1.000  H
  C18      1.0000 0.47230  0.85710  0.11600  Biso   1.000  C
  H12      1.0000 0.45240  0.89250  0.03440  Biso   1.000  H
  Co4      1.0000 0.29756  0.94619  0.72601  Biso   1.000  Co
  O13      1.0000 0.43130  0.10950  0.67040  Biso   1.000  O
  O14      1.0000 0.54700  0.30980  0.69430  Biso   1.000  O
  O15      1.0000 0.27850  0.01940  0.91540  Biso   1.000  O
  O16      1.0000 0.14410  0.14690  0.05180  Biso   1.000  O
  N7       1.0000 0.11360  0.10050  0.72100  Biso   1.000  N
  N8       1.0000 0.88140  0.29150  0.75120  Biso   1.000  N
  C19      1.0000 0.50480  0.19370  0.72300  Biso   1.000  C
  H13      1.0000 0.53730  0.16470  0.80360  Biso   1.000  H
  C20      1.0000 0.17560  0.10220  0.94180  Biso   1.000  C
  C21      1.0000 0.08150  0.15490  0.82960  Biso   1.000  C
  C22      1.0000 0.96150  0.24860  0.84950  Biso   1.000  C
  H14      1.0000 0.93900  0.28000  0.93190  Biso   1.000  H
  C23      1.0000 0.91180  0.23890  0.63530  Biso   1.000  C
  H15      1.0000 0.85400  0.26720  0.56550  Biso   1.000  H
  C24      1.0000 0.02770  0.14290  0.61600  Biso   1.000  C
  H16      1.0000 0.04760  0.10750  0.53440  Biso   1.000  H
