data_image0
_cell_length_a       12.145
_cell_length_b       30.72
_cell_length_c       22.75
_cell_angle_alpha    90
_cell_angle_beta     94
_cell_angle_gamma    90

_symmetry_space_group_name_H-M    "P 1"
_symmetry_int_tables_number       1

loop_
  _symmetry_equiv_pos_as_xyz
  'x, y, z'

loop_
  _atom_site_label
  _atom_site_occupancy
  _atom_site_fract_x
  _atom_site_fract_y
  _atom_site_fract_z
  _atom_site_thermal_displace_type
  _atom_site_B_iso_or_equiv
  _atom_site_type_symbol
  Zn1      1.0000 0.31427  0.13252  0.48747  Biso   1.000  Zn
  Zn2      1.0000 0.25880  0.08310  0.34284  Biso   1.000  Zn
  O1       1.0000 0.26060  0.17288  0.42348  Biso   1.000  O
  O2       1.0000 0.17560  0.13581  0.34893  Biso   1.000  O
  O3       1.0000 0.15940  0.32299  0.45454  Biso   1.000  O
  O4       1.0000 0.06910  0.36042  0.38530  Biso   1.000  O
  O5       1.0000 0.22460  0.02983  0.38104  Biso   1.000  O
  O6       1.0000 0.05230  0.03438  0.34154  Biso   1.000  O
  O7       1.0000 0.76250  0.93940  0.42700  Biso   1.000  O
  O8       1.0000 0.81630  0.90119  0.50493  Biso   1.000  O
  O9       1.0000 0.12230  0.92340  0.72850  Biso   1.000  O
  O10      1.0000 0.29790  0.92036  0.76138  Biso   1.000  O
  O11      1.0000 0.58900  0.90365  0.62561  Biso   1.000  O
  O12      1.0000 0.54600  0.89388  0.53066  Biso   1.000  O
  C1       1.0000 0.19770  0.17015  0.37800  Biso   1.000  C
  C2       1.0000 0.14300  0.21065  0.35510  Biso   1.000  C
  C3       1.0000 0.15130  0.24828  0.38870  Biso   1.000  C
  H1       1.0000 0.19020  0.24790  0.42540  Biso   1.000  H
  C4       1.0000 0.10190  0.28647  0.36790  Biso   1.000  C
  C5       1.0000 0.04170  0.28636  0.31360  Biso   1.000  C
  H2       1.0000 0.00700  0.31180  0.30000  Biso   1.000  H
  C6       1.0000 0.03260  0.24882  0.27930  Biso   1.000  C
  C7       1.0000 0.08310  0.21121  0.30080  Biso   1.000  C
  H3       1.0000 0.07690  0.18580  0.27860  Biso   1.000  H
  C8       1.0000 0.10970  0.32700  0.40450  Biso   1.000  C
  C9       1.0000 0.12250  0.01769  0.37660  Biso   1.000  C
  C10      1.0000 0.09080  0.98446  0.41900  Biso   1.000  C
  C11      1.0000 0.98320  0.97038  0.41880  Biso   1.000  C
  H4       1.0000 0.93120  0.98020  0.38990  Biso   1.000  H
  C12      1.0000 0.95160  0.94147  0.46190  Biso   1.000  C
  C13      1.0000 0.02850  0.92735  0.50540  Biso   1.000  C
  H5       1.0000 0.00730  0.90830  0.53430  Biso   1.000  H
  C14      1.0000 0.13830  0.94165  0.50630  Biso   1.000  C
  C15      1.0000 0.16800  0.96951  0.46270  Biso   1.000  C
  H6       1.0000 0.24100  0.97860  0.46230  Biso   1.000  H
  C16      1.0000 0.21860  0.92911  0.55540  Biso   1.000  C
  C17      1.0000 0.18580  0.92970  0.61280  Biso   1.000  C
  H7       1.0000 0.11260  0.93550  0.61960  Biso   1.000  H
  C18      1.0000 0.26240  0.92160  0.66030  Biso   1.000  C
  C19      1.0000 0.37310  0.91332  0.65010  Biso   1.000  C
  H8       1.0000 0.42490  0.90900  0.68160  Biso   1.000  H
  C20      1.0000 0.40470  0.91151  0.59240  Biso   1.000  C
  C21      1.0000 0.32790  0.91904  0.54530  Biso   1.000  C
  H9       1.0000 0.34940  0.91740  0.50700  Biso   1.000  H
  C22      1.0000 0.83340  0.92630  0.46360  Biso   1.000  C
  C23      1.0000 0.22610  0.92450  0.72150  Biso   1.000  C
  C24      1.0000 0.52230  0.90234  0.58220  Biso   1.000  C
  O13      1.0000 0.16330  0.96070  0.72820  Biso   1.000  O
  Zn3      1.0000 0.81427  0.63252  0.48747  Biso   1.000  Zn
  Zn4      1.0000 0.75880  0.58310  0.34284  Biso   1.000  Zn
  O14      1.0000 0.76060  0.67288  0.42348  Biso   1.000  O
  O15      1.0000 0.67560  0.63581  0.34893  Biso   1.000  O
  O16      1.0000 0.65940  0.82299  0.45454  Biso   1.000  O
  O17      1.0000 0.56910  0.86042  0.38530  Biso   1.000  O
  O18      1.0000 0.72460  0.52983  0.38104  Biso   1.000  O
  O19      1.0000 0.55230  0.53438  0.34154  Biso   1.000  O
  O20      1.0000 0.26250  0.43940  0.42700  Biso   1.000  O
  O21      1.0000 0.31630  0.40119  0.50493  Biso   1.000  O
  O22      1.0000 0.62230  0.42340  0.72850  Biso   1.000  O
  O23      1.0000 0.79790  0.42036  0.76138  Biso   1.000  O
  O24      1.0000 0.08900  0.40365  0.62561  Biso   1.000  O
  O25      1.0000 0.04600  0.39388  0.53066  Biso   1.000  O
  C25      1.0000 0.69770  0.67015  0.37800  Biso   1.000  C
  C26      1.0000 0.64300  0.71065  0.35510  Biso   1.000  C
  C27      1.0000 0.65130  0.74828  0.38870  Biso   1.000  C
  H10      1.0000 0.69020  0.74790  0.42540  Biso   1.000  H
  C28      1.0000 0.60190  0.78647  0.36790  Biso   1.000  C
  C29      1.0000 0.54170  0.78636  0.31360  Biso   1.000  C
  H11      1.0000 0.50700  0.81180  0.30000  Biso   1.000  H
  C30      1.0000 0.53260  0.74882  0.27930  Biso   1.000  C
  C31      1.0000 0.58310  0.71121  0.30080  Biso   1.000  C
  H12      1.0000 0.57690  0.68580  0.27860  Biso   1.000  H
  C32      1.0000 0.60970  0.82700  0.40450  Biso   1.000  C
  C33      1.0000 0.62250  0.51769  0.37660  Biso   1.000  C
  C34      1.0000 0.59080  0.48446  0.41900  Biso   1.000  C
  C35      1.0000 0.48320  0.47038  0.41880  Biso   1.000  C
  H13      1.0000 0.43120  0.48020  0.38990  Biso   1.000  H
  C36      1.0000 0.45160  0.44147  0.46190  Biso   1.000  C
  C37      1.0000 0.52850  0.42735  0.50540  Biso   1.000  C
  H14      1.0000 0.50730  0.40830  0.53430  Biso   1.000  H
  C38      1.0000 0.63830  0.44165  0.50630  Biso   1.000  C
  C39      1.0000 0.66800  0.46951  0.46270  Biso   1.000  C
  H15      1.0000 0.74100  0.47860  0.46230  Biso   1.000  H
  C40      1.0000 0.71860  0.42911  0.55540  Biso   1.000  C
  C41      1.0000 0.68580  0.42970  0.61280  Biso   1.000  C
  H16      1.0000 0.61260  0.43550  0.61960  Biso   1.000  H
  C42      1.0000 0.76240  0.42160  0.66030  Biso   1.000  C
  C43      1.0000 0.87310  0.41332  0.65010  Biso   1.000  C
  H17      1.0000 0.92490  0.40900  0.68160  Biso   1.000  H
  C44      1.0000 0.90470  0.41151  0.59240  Biso   1.000  C
  C45      1.0000 0.82790  0.41904  0.54530  Biso   1.000  C
  H18      1.0000 0.84940  0.41740  0.50700  Biso   1.000  H
  C46      1.0000 0.33340  0.42630  0.46360  Biso   1.000  C
  C47      1.0000 0.72610  0.42450  0.72150  Biso   1.000  C
  C48      1.0000 0.02230  0.40234  0.58220  Biso   1.000  C
  O26      1.0000 0.66330  0.46070  0.72820  Biso   1.000  O
  Zn5      1.0000 0.68573  0.13252  0.01253  Biso   1.000  Zn
  Zn6      1.0000 0.74120  0.08310  0.15716  Biso   1.000  Zn
  O27      1.0000 0.73940  0.17288  0.07652  Biso   1.000  O
  O28      1.0000 0.82440  0.13581  0.15107  Biso   1.000  O
  O29      1.0000 0.84060  0.32299  0.04546  Biso   1.000  O
  O30      1.0000 0.93090  0.36042  0.11470  Biso   1.000  O
  O31      1.0000 0.77540  0.02983  0.11896  Biso   1.000  O
  O32      1.0000 0.94770  0.03438  0.15846  Biso   1.000  O
  O33      1.0000 0.23750  0.93940  0.07300  Biso   1.000  O
  O34      1.0000 0.18370  0.90119  0.99507  Biso   1.000  O
  O35      1.0000 0.87770  0.92340  0.77150  Biso   1.000  O
  O36      1.0000 0.70210  0.92036  0.73862  Biso   1.000  O
  O37      1.0000 0.41100  0.90365  0.87439  Biso   1.000  O
  O38      1.0000 0.45400  0.89388  0.96934  Biso   1.000  O
  C49      1.0000 0.80230  0.17015  0.12200  Biso   1.000  C
  C50      1.0000 0.85700  0.21065  0.14490  Biso   1.000  C
  C51      1.0000 0.84870  0.24828  0.11130  Biso   1.000  C
  H19      1.0000 0.80980  0.24790  0.07460  Biso   1.000  H
  C52      1.0000 0.89810  0.28647  0.13210  Biso   1.000  C
  C53      1.0000 0.95830  0.28636  0.18640  Biso   1.000  C
  H20      1.0000 0.99300  0.31180  0.20000  Biso   1.000  H
  C54      1.0000 0.96740  0.24882  0.22070  Biso   1.000  C
  C55      1.0000 0.91690  0.21121  0.19920  Biso   1.000  C
  H21      1.0000 0.92310  0.18580  0.22140  Biso   1.000  H
  C56      1.0000 0.89030  0.32700  0.09550  Biso   1.000  C
  C57      1.0000 0.87750  0.01769  0.12340  Biso   1.000  C
  C58      1.0000 0.90920  0.98446  0.08100  Biso   1.000  C
  C59      1.0000 0.01680  0.97038  0.08120  Biso   1.000  C
  H22      1.0000 0.06880  0.98020  0.11010  Biso   1.000  H
  C60      1.0000 0.04840  0.94147  0.03810  Biso   1.000  C
  C61      1.0000 0.97150  0.92735  0.99460  Biso   1.000  C
  H23      1.0000 0.99270  0.90830  0.96570  Biso   1.000  H
  C62      1.0000 0.86170  0.94165  0.99370  Biso   1.000  C
  C63      1.0000 0.83200  0.96951  0.03730  Biso   1.000  C
  H24      1.0000 0.75900  0.97860  0.03770  Biso   1.000  H
  C64      1.0000 0.78140  0.92911  0.94460  Biso   1.000  C
  C65      1.0000 0.81420  0.92970  0.88720  Biso   1.000  C
  H25      1.0000 0.88740  0.93550  0.88040  Biso   1.000  H
  C66      1.0000 0.73760  0.92160  0.83970  Biso   1.000  C
  C67      1.0000 0.62690  0.91332  0.84990  Biso   1.000  C
  H26      1.0000 0.57510  0.90900  0.81840  Biso   1.000  H
  C68      1.0000 0.59530  0.91151  0.90760  Biso   1.000  C
  C69      1.0000 0.67210  0.91904  0.95470  Biso   1.000  C
  H27      1.0000 0.65060  0.91740  0.99300  Biso   1.000  H
  C70      1.0000 0.16660  0.92630  0.03640  Biso   1.000  C
  C71      1.0000 0.77390  0.92450  0.77850  Biso   1.000  C
  C72      1.0000 0.47770  0.90234  0.91780  Biso   1.000  C
  O39      1.0000 0.83670  0.96070  0.77180  Biso   1.000  O
  Zn7      1.0000 0.18573  0.63252  0.01253  Biso   1.000  Zn
  Zn8      1.0000 0.24120  0.58310  0.15716  Biso   1.000  Zn
  O40      1.0000 0.23940  0.67288  0.07652  Biso   1.000  O
  O41      1.0000 0.32440  0.63581  0.15107  Biso   1.000  O
  O42      1.0000 0.34060  0.82299  0.04546  Biso   1.000  O
  O43      1.0000 0.43090  0.86042  0.11470  Biso   1.000  O
  O44      1.0000 0.27540  0.52983  0.11896  Biso   1.000  O
  O45      1.0000 0.44770  0.53438  0.15846  Biso   1.000  O
  O46      1.0000 0.73750  0.43940  0.07300  Biso   1.000  O
  O47      1.0000 0.68370  0.40119  0.99507  Biso   1.000  O
  O48      1.0000 0.37770  0.42340  0.77150  Biso   1.000  O
  O49      1.0000 0.20210  0.42036  0.73862  Biso   1.000  O
  O50      1.0000 0.91100  0.40365  0.87439  Biso   1.000  O
  O51      1.0000 0.95400  0.39388  0.96934  Biso   1.000  O
  C73      1.0000 0.30230  0.67015  0.12200  Biso   1.000  C
  C74      1.0000 0.35700  0.71065  0.14490  Biso   1.000  C
  C75      1.0000 0.34870  0.74828  0.11130  Biso   1.000  C
  H28      1.0000 0.30980  0.74790  0.07460  Biso   1.000  H
  C76      1.0000 0.39810  0.78647  0.13210  Biso   1.000  C
  C77      1.0000 0.45830  0.78636  0.18640  Biso   1.000  C
  H29      1.0000 0.49300  0.81180  0.20000  Biso   1.000  H
  C78      1.0000 0.46740  0.74882  0.22070  Biso   1.000  C
  C79      1.0000 0.41690  0.71121  0.19920  Biso   1.000  C
  H30      1.0000 0.42310  0.68580  0.22140  Biso   1.000  H
  C80      1.0000 0.39030  0.82700  0.09550  Biso   1.000  C
  C81      1.0000 0.37750  0.51769  0.12340  Biso   1.000  C
  C82      1.0000 0.40920  0.48446  0.08100  Biso   1.000  C
  C83      1.0000 0.51680  0.47038  0.08120  Biso   1.000  C
  H31      1.0000 0.56880  0.48020  0.11010  Biso   1.000  H
  C84      1.0000 0.54840  0.44147  0.03810  Biso   1.000  C
  C85      1.0000 0.47150  0.42735  0.99460  Biso   1.000  C
  H32      1.0000 0.49270  0.40830  0.96570  Biso   1.000  H
  C86      1.0000 0.36170  0.44165  0.99370  Biso   1.000  C
  C87      1.0000 0.33200  0.46951  0.03730  Biso   1.000  C
  H33      1.0000 0.25900  0.47860  0.03770  Biso   1.000  H
  C88      1.0000 0.28140  0.42911  0.94460  Biso   1.000  C
  C89      1.0000 0.31420  0.42970  0.88720  Biso   1.000  C
  H34      1.0000 0.38740  0.43550  0.88040  Biso   1.000  H
  C90      1.0000 0.23760  0.42160  0.83970  Biso   1.000  C
  C91      1.0000 0.12690  0.41332  0.84990  Biso   1.000  C
  H35      1.0000 0.07510  0.40900  0.81840  Biso   1.000  H
  C92      1.0000 0.09530  0.41151  0.90760  Biso   1.000  C
  C93      1.0000 0.17210  0.41904  0.95470  Biso   1.000  C
  H36      1.0000 0.15060  0.41740  0.99300  Biso   1.000  H
  C94      1.0000 0.66660  0.42630  0.03640  Biso   1.000  C
  C95      1.0000 0.27390  0.42450  0.77850  Biso   1.000  C
  C96      1.0000 0.97770  0.40234  0.91780  Biso   1.000  C
  O52      1.0000 0.33670  0.46070  0.77180  Biso   1.000  O
  Zn9      1.0000 0.68573  0.86748  0.51253  Biso   1.000  Zn
  Zn10     1.0000 0.74120  0.91690  0.65716  Biso   1.000  Zn
  O53      1.0000 0.73940  0.82712  0.57652  Biso   1.000  O
  O54      1.0000 0.82440  0.86419  0.65107  Biso   1.000  O
  O55      1.0000 0.84060  0.67701  0.54546  Biso   1.000  O
  O56      1.0000 0.93090  0.63958  0.61470  Biso   1.000  O
  O57      1.0000 0.77540  0.97017  0.61896  Biso   1.000  O
  O58      1.0000 0.94770  0.96562  0.65846  Biso   1.000  O
  O59      1.0000 0.23750  0.06060  0.57300  Biso   1.000  O
  O60      1.0000 0.18370  0.09881  0.49507  Biso   1.000  O
  O61      1.0000 0.87770  0.07660  0.27150  Biso   1.000  O
  O62      1.0000 0.70210  0.07964  0.23862  Biso   1.000  O
  O63      1.0000 0.41100  0.09635  0.37439  Biso   1.000  O
  O64      1.0000 0.45400  0.10612  0.46934  Biso   1.000  O
  C97      1.0000 0.80230  0.82985  0.62200  Biso   1.000  C
  C98      1.0000 0.85700  0.78935  0.64490  Biso   1.000  C
  C99      1.0000 0.84870  0.75172  0.61130  Biso   1.000  C
  H37      1.0000 0.80980  0.75210  0.57460  Biso   1.000  H
  C100     1.0000 0.89810  0.71353  0.63210  Biso   1.000  C
  C101     1.0000 0.95830  0.71364  0.68640  Biso   1.000  C
  H38      1.0000 0.99300  0.68820  0.70000  Biso   1.000  H
  C102     1.0000 0.96740  0.75118  0.72070  Biso   1.000  C
  C103     1.0000 0.91690  0.78879  0.69920  Biso   1.000  C
  H39      1.0000 0.92310  0.81420  0.72140  Biso   1.000  H
  C104     1.0000 0.89030  0.67300  0.59550  Biso   1.000  C
  C105     1.0000 0.87750  0.98231  0.62340  Biso   1.000  C
  C106     1.0000 0.90920  0.01554  0.58100  Biso   1.000  C
  C107     1.0000 0.01680  0.02962  0.58120  Biso   1.000  C
  H40      1.0000 0.06880  0.01980  0.61010  Biso   1.000  H
  C108     1.0000 0.04840  0.05853  0.53810  Biso   1.000  C
  C109     1.0000 0.97150  0.07265  0.49460  Biso   1.000  C
  H41      1.0000 0.99270  0.09170  0.46570  Biso   1.000  H
  C110     1.0000 0.86170  0.05835  0.49370  Biso   1.000  C
  C111     1.0000 0.83200  0.03049  0.53730  Biso   1.000  C
  H42      1.0000 0.75900  0.02140  0.53770  Biso   1.000  H
  C112     1.0000 0.78140  0.07089  0.44460  Biso   1.000  C
  C113     1.0000 0.81420  0.07030  0.38720  Biso   1.000  C
  H43      1.0000 0.88740  0.06450  0.38040  Biso   1.000  H
  C114     1.0000 0.73760  0.07840  0.33970  Biso   1.000  C
  C115     1.0000 0.62690  0.08668  0.34990  Biso   1.000  C
  H44      1.0000 0.57510  0.09100  0.31840  Biso   1.000  H
  C116     1.0000 0.59530  0.08849  0.40760  Biso   1.000  C
  C117     1.0000 0.67210  0.08096  0.45470  Biso   1.000  C
  H45      1.0000 0.65060  0.08260  0.49300  Biso   1.000  H
  C118     1.0000 0.16660  0.07370  0.53640  Biso   1.000  C
  C119     1.0000 0.77390  0.07550  0.27850  Biso   1.000  C
  C120     1.0000 0.47770  0.09766  0.41780  Biso   1.000  C
  O65      1.0000 0.83670  0.03930  0.27180  Biso   1.000  O
  Zn11     1.0000 0.18573  0.36748  0.51253  Biso   1.000  Zn
  Zn12     1.0000 0.24120  0.41690  0.65716  Biso   1.000  Zn
  O66      1.0000 0.23940  0.32712  0.57652  Biso   1.000  O
  O67      1.0000 0.32440  0.36419  0.65107  Biso   1.000  O
  O68      1.0000 0.34060  0.17701  0.54546  Biso   1.000  O
  O69      1.0000 0.43090  0.13958  0.61470  Biso   1.000  O
  O70      1.0000 0.27540  0.47017  0.61896  Biso   1.000  O
  O71      1.0000 0.44770  0.46562  0.65846  Biso   1.000  O
  O72      1.0000 0.73750  0.56060  0.57300  Biso   1.000  O
  O73      1.0000 0.68370  0.59881  0.49507  Biso   1.000  O
  O74      1.0000 0.37770  0.57660  0.27150  Biso   1.000  O
  O75      1.0000 0.20210  0.57964  0.23862  Biso   1.000  O
  O76      1.0000 0.91100  0.59635  0.37439  Biso   1.000  O
  O77      1.0000 0.95400  0.60612  0.46934  Biso   1.000  O
  C121     1.0000 0.30230  0.32985  0.62200  Biso   1.000  C
  C122     1.0000 0.35700  0.28935  0.64490  Biso   1.000  C
  C123     1.0000 0.34870  0.25172  0.61130  Biso   1.000  C
  H46      1.0000 0.30980  0.25210  0.57460  Biso   1.000  H
  C124     1.0000 0.39810  0.21353  0.63210  Biso   1.000  C
  C125     1.0000 0.45830  0.21364  0.68640  Biso   1.000  C
  H47      1.0000 0.49300  0.18820  0.70000  Biso   1.000  H
  C126     1.0000 0.46740  0.25118  0.72070  Biso   1.000  C
  C127     1.0000 0.41690  0.28879  0.69920  Biso   1.000  C
  H48      1.0000 0.42310  0.31420  0.72140  Biso   1.000  H
  C128     1.0000 0.39030  0.17300  0.59550  Biso   1.000  C
  C129     1.0000 0.37750  0.48231  0.62340  Biso   1.000  C
  C130     1.0000 0.40920  0.51554  0.58100  Biso   1.000  C
  C131     1.0000 0.51680  0.52962  0.58120  Biso   1.000  C
  H49      1.0000 0.56880  0.51980  0.61010  Biso   1.000  H
  C132     1.0000 0.54840  0.55853  0.53810  Biso   1.000  C
  C133     1.0000 0.47150  0.57265  0.49460  Biso   1.000  C
  H50      1.0000 0.49270  0.59170  0.46570  Biso   1.000  H
  C134     1.0000 0.36170  0.55835  0.49370  Biso   1.000  C
  C135     1.0000 0.33200  0.53049  0.53730  Biso   1.000  C
  H51      1.0000 0.25900  0.52140  0.53770  Biso   1.000  H
  C136     1.0000 0.28140  0.57089  0.44460  Biso   1.000  C
  C137     1.0000 0.31420  0.57030  0.38720  Biso   1.000  C
  H52      1.0000 0.38740  0.56450  0.38040  Biso   1.000  H
  C138     1.0000 0.23760  0.57840  0.33970  Biso   1.000  C
  C139     1.0000 0.12690  0.58668  0.34990  Biso   1.000  C
  H53      1.0000 0.07510  0.59100  0.31840  Biso   1.000  H
  C140     1.0000 0.09530  0.58849  0.40760  Biso   1.000  C
  C141     1.0000 0.17210  0.58096  0.45470  Biso   1.000  C
  H54      1.0000 0.15060  0.58260  0.49300  Biso   1.000  H
  C142     1.0000 0.66660  0.57370  0.53640  Biso   1.000  C
  C143     1.0000 0.27390  0.57550  0.27850  Biso   1.000  C
  C144     1.0000 0.97770  0.59766  0.41780  Biso   1.000  C
  O78      1.0000 0.33670  0.53930  0.27180  Biso   1.000  O
  Zn13     1.0000 0.31427  0.86748  0.98747  Biso   1.000  Zn
  Zn14     1.0000 0.25880  0.91690  0.84284  Biso   1.000  Zn
  O79      1.0000 0.26060  0.82712  0.92348  Biso   1.000  O
  O80      1.0000 0.17560  0.86419  0.84893  Biso   1.000  O
  O81      1.0000 0.15940  0.67701  0.95454  Biso   1.000  O
  O82      1.0000 0.06910  0.63958  0.88530  Biso   1.000  O
  O83      1.0000 0.22460  0.97017  0.88104  Biso   1.000  O
  O84      1.0000 0.05230  0.96562  0.84154  Biso   1.000  O
  O85      1.0000 0.76250  0.06060  0.92700  Biso   1.000  O
  O86      1.0000 0.81630  0.09881  0.00493  Biso   1.000  O
  O87      1.0000 0.12230  0.07660  0.22850  Biso   1.000  O
  O88      1.0000 0.29790  0.07964  0.26138  Biso   1.000  O
  O89      1.0000 0.58900  0.09635  0.12561  Biso   1.000  O
  O90      1.0000 0.54600  0.10612  0.03066  Biso   1.000  O
  C145     1.0000 0.19770  0.82985  0.87800  Biso   1.000  C
  C146     1.0000 0.14300  0.78935  0.85510  Biso   1.000  C
  C147     1.0000 0.15130  0.75172  0.88870  Biso   1.000  C
  H55      1.0000 0.19020  0.75210  0.92540  Biso   1.000  H
  C148     1.0000 0.10190  0.71353  0.86790  Biso   1.000  C
  C149     1.0000 0.04170  0.71364  0.81360  Biso   1.000  C
  H56      1.0000 0.00700  0.68820  0.80000  Biso   1.000  H
  C150     1.0000 0.03260  0.75118  0.77930  Biso   1.000  C
  C151     1.0000 0.08310  0.78879  0.80080  Biso   1.000  C
  H57      1.0000 0.07690  0.81420  0.77860  Biso   1.000  H
  C152     1.0000 0.10970  0.67300  0.90450  Biso   1.000  C
  C153     1.0000 0.12250  0.98231  0.87660  Biso   1.000  C
  C154     1.0000 0.09080  0.01554  0.91900  Biso   1.000  C
  C155     1.0000 0.98320  0.02962  0.91880  Biso   1.000  C
  H58      1.0000 0.93120  0.01980  0.88990  Biso   1.000  H
  C156     1.0000 0.95160  0.05853  0.96190  Biso   1.000  C
  C157     1.0000 0.02850  0.07265  0.00540  Biso   1.000  C
  H59      1.0000 0.00730  0.09170  0.03430  Biso   1.000  H
  C158     1.0000 0.13830  0.05835  0.00630  Biso   1.000  C
  C159     1.0000 0.16800  0.03049  0.96270  Biso   1.000  C
  H60      1.0000 0.24100  0.02140  0.96230  Biso   1.000  H
  C160     1.0000 0.21860  0.07089  0.05540  Biso   1.000  C
  C161     1.0000 0.18580  0.07030  0.11280  Biso   1.000  C
  H61      1.0000 0.11260  0.06450  0.11960  Biso   1.000  H
  C162     1.0000 0.26240  0.07840  0.16030  Biso   1.000  C
  C163     1.0000 0.37310  0.08668  0.15010  Biso   1.000  C
  H62      1.0000 0.42490  0.09100  0.18160  Biso   1.000  H
  C164     1.0000 0.40470  0.08849  0.09240  Biso   1.000  C
  C165     1.0000 0.32790  0.08096  0.04530  Biso   1.000  C
  H63      1.0000 0.34940  0.08260  0.00700  Biso   1.000  H
  C166     1.0000 0.83340  0.07370  0.96360  Biso   1.000  C
  C167     1.0000 0.22610  0.07550  0.22150  Biso   1.000  C
  C168     1.0000 0.52230  0.09766  0.08220  Biso   1.000  C
  O91      1.0000 0.16330  0.03930  0.22820  Biso   1.000  O
  Zn15     1.0000 0.81427  0.36748  0.98747  Biso   1.000  Zn
  Zn16     1.0000 0.75880  0.41690  0.84284  Biso   1.000  Zn
  O92      1.0000 0.76060  0.32712  0.92348  Biso   1.000  O
  O93      1.0000 0.67560  0.36419  0.84893  Biso   1.000  O
  O94      1.0000 0.65940  0.17701  0.95454  Biso   1.000  O
  O95      1.0000 0.56910  0.13958  0.88530  Biso   1.000  O
  O96      1.0000 0.72460  0.47017  0.88104  Biso   1.000  O
  O97      1.0000 0.55230  0.46562  0.84154  Biso   1.000  O
  O98      1.0000 0.26250  0.56060  0.92700  Biso   1.000  O
  O99      1.0000 0.31630  0.59881  0.00493  Biso   1.000  O
  O100     1.0000 0.62230  0.57660  0.22850  Biso   1.000  O
  O101     1.0000 0.79790  0.57964  0.26138  Biso   1.000  O
  O102     1.0000 0.08900  0.59635  0.12561  Biso   1.000  O
  O103     1.0000 0.04600  0.60612  0.03066  Biso   1.000  O
  C169     1.0000 0.69770  0.32985  0.87800  Biso   1.000  C
  C170     1.0000 0.64300  0.28935  0.85510  Biso   1.000  C
  C171     1.0000 0.65130  0.25172  0.88870  Biso   1.000  C
  H64      1.0000 0.69020  0.25210  0.92540  Biso   1.000  H
  C172     1.0000 0.60190  0.21353  0.86790  Biso   1.000  C
  C173     1.0000 0.54170  0.21364  0.81360  Biso   1.000  C
  H65      1.0000 0.50700  0.18820  0.80000  Biso   1.000  H
  C174     1.0000 0.53260  0.25118  0.77930  Biso   1.000  C
  C175     1.0000 0.58310  0.28879  0.80080  Biso   1.000  C
  H66      1.0000 0.57690  0.31420  0.77860  Biso   1.000  H
  C176     1.0000 0.60970  0.17300  0.90450  Biso   1.000  C
  C177     1.0000 0.62250  0.48231  0.87660  Biso   1.000  C
  C178     1.0000 0.59080  0.51554  0.91900  Biso   1.000  C
  C179     1.0000 0.48320  0.52962  0.91880  Biso   1.000  C
  H67      1.0000 0.43120  0.51980  0.88990  Biso   1.000  H
  C180     1.0000 0.45160  0.55853  0.96190  Biso   1.000  C
  C181     1.0000 0.52850  0.57265  0.00540  Biso   1.000  C
  H68      1.0000 0.50730  0.59170  0.03430  Biso   1.000  H
  C182     1.0000 0.63830  0.55835  0.00630  Biso   1.000  C
  C183     1.0000 0.66800  0.53049  0.96270  Biso   1.000  C
  H69      1.0000 0.74100  0.52140  0.96230  Biso   1.000  H
  C184     1.0000 0.71860  0.57089  0.05540  Biso   1.000  C
  C185     1.0000 0.68580  0.57030  0.11280  Biso   1.000  C
  H70      1.0000 0.61260  0.56450  0.11960  Biso   1.000  H
  C186     1.0000 0.76240  0.57840  0.16030  Biso   1.000  C
  C187     1.0000 0.87310  0.58668  0.15010  Biso   1.000  C
  H71      1.0000 0.92490  0.59100  0.18160  Biso   1.000  H
  C188     1.0000 0.90470  0.58849  0.09240  Biso   1.000  C
  C189     1.0000 0.82790  0.58096  0.04530  Biso   1.000  C
  H72      1.0000 0.84940  0.58260  0.00700  Biso   1.000  H
  C190     1.0000 0.33340  0.57370  0.96360  Biso   1.000  C
  C191     1.0000 0.72610  0.57550  0.22150  Biso   1.000  C
  C192     1.0000 0.02230  0.59766  0.08220  Biso   1.000  C
  O104     1.0000 0.66330  0.53930  0.22820  Biso   1.000  O
  Zn17     1.0000 0.00000  0.03794  0.25000  Biso   1.000  Zn
  Zn18     1.0000 0.50000  0.53794  0.25000  Biso   1.000  Zn
  Zn19     1.0000 0.00000  0.96206  0.75000  Biso   1.000  Zn
  Zn20     1.0000 0.50000  0.46206  0.75000  Biso   1.000  Zn
