data_image0
_cell_length_a       16.646
_cell_length_b       18.345
_cell_length_c       16.309
_cell_angle_alpha    90
_cell_angle_beta     108.893
_cell_angle_gamma    90

_symmetry_space_group_name_H-M    "P 1"
_symmetry_int_tables_number       1

loop_
  _symmetry_equiv_pos_as_xyz
  'x, y, z'

loop_
  _atom_site_label
  _atom_site_occupancy
  _atom_site_fract_x
  _atom_site_fract_y
  _atom_site_fract_z
  _atom_site_thermal_displace_type
  _atom_site_B_iso_or_equiv
  _atom_site_type_symbol
  Zn1      1.0000 0.05950  0.13772  0.36451  Biso   1.000  Zn
  O1       1.0000 0.09690  0.09731  0.48120  Biso   1.000  O
  O2       1.0000 0.22640  0.14091  0.50460  Biso   1.000  O
  O3       1.0000 0.51050  0.26561  0.84970  Biso   1.000  O
  O4       1.0000 0.62170  0.22480  0.94920  Biso   1.000  O
  O5       1.0000 0.65870  0.95960  0.99500  Biso   1.000  O
  H1       1.0000 0.68590  0.92150  0.00630  Biso   1.000  H
  O6       1.0000 0.55350  0.88390  0.92720  Biso   1.000  O
  O7       1.0000 0.13580  0.90392  0.80850  Biso   1.000  O
  O8       1.0000 0.04360  0.92300  0.67660  Biso   1.000  O
  C1       1.0000 0.17450  0.10520  0.52740  Biso   1.000  C
  C2       1.0000 0.20150  0.06820  0.61410  Biso   1.000  C
  C3       1.0000 0.28160  0.08200  0.67210  Biso   1.000  C
  H2       1.0000 0.31740  0.11470  0.65740  Biso   1.000  H
  C4       1.0000 0.30920  0.04700  0.75330  Biso   1.000  C
  C5       1.0000 0.25360  0.99750  0.77410  Biso   1.000  C
  H3       1.0000 0.27020  0.97400  0.82750  Biso   1.000  H
  C6       1.0000 0.17370  0.98420  0.71430  Biso   1.000  C
  C7       1.0000 0.14880  0.01880  0.63420  Biso   1.000  C
  H4       1.0000 0.09610  0.00850  0.59400  Biso   1.000  H
  C8       1.0000 0.11280  0.93320  0.73530  Biso   1.000  C
  C9       1.0000 0.39740  0.05930  0.81260  Biso   1.000  C
  C10      1.0000 0.43380  0.12850  0.82400  Biso   1.000  C
  H5       1.0000 0.40330  0.16760  0.79270  Biso   1.000  H
  C11      1.0000 0.51510  0.14000  0.88130  Biso   1.000  C
  C12      1.0000 0.56340  0.08110  0.92320  Biso   1.000  C
  H6       1.0000 0.61800  0.08840  0.96140  Biso   1.000  H
  C13      1.0000 0.53020  0.01140  0.90790  Biso   1.000  C
  C14      1.0000 0.44730  0.00170  0.85530  Biso   1.000  C
  H7       1.0000 0.42420  0.95500  0.84840  Biso   1.000  H
  C15      1.0000 0.55280  0.21560  0.89380  Biso   1.000  C
  C16      1.0000 0.58120  0.94550  0.94440  Biso   1.000  C
  Zn2      1.0000 0.55950  0.63772  0.36451  Biso   1.000  Zn
  O9       1.0000 0.59690  0.59731  0.48120  Biso   1.000  O
  O10      1.0000 0.72640  0.64091  0.50460  Biso   1.000  O
  O11      1.0000 0.01050  0.76561  0.84970  Biso   1.000  O
  O12      1.0000 0.12170  0.72480  0.94920  Biso   1.000  O
  O13      1.0000 0.15870  0.45960  0.99500  Biso   1.000  O
  H8       1.0000 0.18590  0.42150  0.00630  Biso   1.000  H
  O14      1.0000 0.05350  0.38390  0.92720  Biso   1.000  O
  O15      1.0000 0.63580  0.40392  0.80850  Biso   1.000  O
  O16      1.0000 0.54360  0.42300  0.67660  Biso   1.000  O
  C17      1.0000 0.67450  0.60520  0.52740  Biso   1.000  C
  C18      1.0000 0.70150  0.56820  0.61410  Biso   1.000  C
  C19      1.0000 0.78160  0.58200  0.67210  Biso   1.000  C
  H9       1.0000 0.81740  0.61470  0.65740  Biso   1.000  H
  C20      1.0000 0.80920  0.54700  0.75330  Biso   1.000  C
  C21      1.0000 0.75360  0.49750  0.77410  Biso   1.000  C
  H10      1.0000 0.77020  0.47400  0.82750  Biso   1.000  H
  C22      1.0000 0.67370  0.48420  0.71430  Biso   1.000  C
  C23      1.0000 0.64880  0.51880  0.63420  Biso   1.000  C
  H11      1.0000 0.59610  0.50850  0.59400  Biso   1.000  H
  C24      1.0000 0.61280  0.43320  0.73530  Biso   1.000  C
  C25      1.0000 0.89740  0.55930  0.81260  Biso   1.000  C
  C26      1.0000 0.93380  0.62850  0.82400  Biso   1.000  C
  H12      1.0000 0.90330  0.66760  0.79270  Biso   1.000  H
  C27      1.0000 0.01510  0.64000  0.88130  Biso   1.000  C
  C28      1.0000 0.06340  0.58110  0.92320  Biso   1.000  C
  H13      1.0000 0.11800  0.58840  0.96140  Biso   1.000  H
  C29      1.0000 0.03020  0.51140  0.90790  Biso   1.000  C
  C30      1.0000 0.94730  0.50170  0.85530  Biso   1.000  C
  H14      1.0000 0.92420  0.45500  0.84840  Biso   1.000  H
  C31      1.0000 0.05280  0.71560  0.89380  Biso   1.000  C
  C32      1.0000 0.08120  0.44550  0.94440  Biso   1.000  C
  Zn3      1.0000 0.94050  0.13772  0.13549  Biso   1.000  Zn
  O17      1.0000 0.90310  0.09731  0.01880  Biso   1.000  O
  O18      1.0000 0.77360  0.14091  0.99540  Biso   1.000  O
  O19      1.0000 0.48950  0.26561  0.65030  Biso   1.000  O
  O20      1.0000 0.37830  0.22480  0.55080  Biso   1.000  O
  O21      1.0000 0.34130  0.95960  0.50500  Biso   1.000  O
  H15      1.0000 0.31410  0.92150  0.49370  Biso   1.000  H
  O22      1.0000 0.44650  0.88390  0.57280  Biso   1.000  O
  O23      1.0000 0.86420  0.90392  0.69150  Biso   1.000  O
  O24      1.0000 0.95640  0.92300  0.82340  Biso   1.000  O
  C33      1.0000 0.82550  0.10520  0.97260  Biso   1.000  C
  C34      1.0000 0.79850  0.06820  0.88590  Biso   1.000  C
  C35      1.0000 0.71840  0.08200  0.82790  Biso   1.000  C
  H16      1.0000 0.68260  0.11470  0.84260  Biso   1.000  H
  C36      1.0000 0.69080  0.04700  0.74670  Biso   1.000  C
  C37      1.0000 0.74640  0.99750  0.72590  Biso   1.000  C
  H17      1.0000 0.72980  0.97400  0.67250  Biso   1.000  H
  C38      1.0000 0.82630  0.98420  0.78570  Biso   1.000  C
  C39      1.0000 0.85120  0.01880  0.86580  Biso   1.000  C
  H18      1.0000 0.90390  0.00850  0.90600  Biso   1.000  H
  C40      1.0000 0.88720  0.93320  0.76470  Biso   1.000  C
  C41      1.0000 0.60260  0.05930  0.68740  Biso   1.000  C
  C42      1.0000 0.56620  0.12850  0.67600  Biso   1.000  C
  H19      1.0000 0.59670  0.16760  0.70730  Biso   1.000  H
  C43      1.0000 0.48490  0.14000  0.61870  Biso   1.000  C
  C44      1.0000 0.43660  0.08110  0.57680  Biso   1.000  C
  H20      1.0000 0.38200  0.08840  0.53860  Biso   1.000  H
  C45      1.0000 0.46980  0.01140  0.59210  Biso   1.000  C
  C46      1.0000 0.55270  0.00170  0.64470  Biso   1.000  C
  H21      1.0000 0.57580  0.95500  0.65160  Biso   1.000  H
  C47      1.0000 0.44720  0.21560  0.60620  Biso   1.000  C
  C48      1.0000 0.41880  0.94550  0.55560  Biso   1.000  C
  Zn4      1.0000 0.44050  0.63772  0.13549  Biso   1.000  Zn
  O25      1.0000 0.40310  0.59731  0.01880  Biso   1.000  O
  O26      1.0000 0.27360  0.64091  0.99540  Biso   1.000  O
  O27      1.0000 0.98950  0.76561  0.65030  Biso   1.000  O
  O28      1.0000 0.87830  0.72480  0.55080  Biso   1.000  O
  O29      1.0000 0.84130  0.45960  0.50500  Biso   1.000  O
  H22      1.0000 0.81410  0.42150  0.49370  Biso   1.000  H
  O30      1.0000 0.94650  0.38390  0.57280  Biso   1.000  O
  O31      1.0000 0.36420  0.40392  0.69150  Biso   1.000  O
  O32      1.0000 0.45640  0.42300  0.82340  Biso   1.000  O
  C49      1.0000 0.32550  0.60520  0.97260  Biso   1.000  C
  C50      1.0000 0.29850  0.56820  0.88590  Biso   1.000  C
  C51      1.0000 0.21840  0.58200  0.82790  Biso   1.000  C
  H23      1.0000 0.18260  0.61470  0.84260  Biso   1.000  H
  C52      1.0000 0.19080  0.54700  0.74670  Biso   1.000  C
  C53      1.0000 0.24640  0.49750  0.72590  Biso   1.000  C
  H24      1.0000 0.22980  0.47400  0.67250  Biso   1.000  H
  C54      1.0000 0.32630  0.48420  0.78570  Biso   1.000  C
  C55      1.0000 0.35120  0.51880  0.86580  Biso   1.000  C
  H25      1.0000 0.40390  0.50850  0.90600  Biso   1.000  H
  C56      1.0000 0.38720  0.43320  0.76470  Biso   1.000  C
  C57      1.0000 0.10260  0.55930  0.68740  Biso   1.000  C
  C58      1.0000 0.06620  0.62850  0.67600  Biso   1.000  C
  H26      1.0000 0.09670  0.66760  0.70730  Biso   1.000  H
  C59      1.0000 0.98490  0.64000  0.61870  Biso   1.000  C
  C60      1.0000 0.93660  0.58110  0.57680  Biso   1.000  C
  H27      1.0000 0.88200  0.58840  0.53860  Biso   1.000  H
  C61      1.0000 0.96980  0.51140  0.59210  Biso   1.000  C
  C62      1.0000 0.05270  0.50170  0.64470  Biso   1.000  C
  H28      1.0000 0.07580  0.45500  0.65160  Biso   1.000  H
  C63      1.0000 0.94720  0.71560  0.60620  Biso   1.000  C
  C64      1.0000 0.91880  0.44550  0.55560  Biso   1.000  C
  Zn5      1.0000 0.94050  0.86228  0.63549  Biso   1.000  Zn
  O33      1.0000 0.90310  0.90269  0.51880  Biso   1.000  O
  O34      1.0000 0.77360  0.85909  0.49540  Biso   1.000  O
  O35      1.0000 0.48950  0.73439  0.15030  Biso   1.000  O
  O36      1.0000 0.37830  0.77520  0.05080  Biso   1.000  O
  O37      1.0000 0.34130  0.04040  0.00500  Biso   1.000  O
  H29      1.0000 0.31410  0.07850  0.99370  Biso   1.000  H
  O38      1.0000 0.44650  0.11610  0.07280  Biso   1.000  O
  O39      1.0000 0.86420  0.09608  0.19150  Biso   1.000  O
  O40      1.0000 0.95640  0.07700  0.32340  Biso   1.000  O
  C65      1.0000 0.82550  0.89480  0.47260  Biso   1.000  C
  C66      1.0000 0.79850  0.93180  0.38590  Biso   1.000  C
  C67      1.0000 0.71840  0.91800  0.32790  Biso   1.000  C
  H30      1.0000 0.68260  0.88530  0.34260  Biso   1.000  H
  C68      1.0000 0.69080  0.95300  0.24670  Biso   1.000  C
  C69      1.0000 0.74640  0.00250  0.22590  Biso   1.000  C
  H31      1.0000 0.72980  0.02600  0.17250  Biso   1.000  H
  C70      1.0000 0.82630  0.01580  0.28570  Biso   1.000  C
  C71      1.0000 0.85120  0.98120  0.36580  Biso   1.000  C
  H32      1.0000 0.90390  0.99150  0.40600  Biso   1.000  H
  C72      1.0000 0.88720  0.06680  0.26470  Biso   1.000  C
  C73      1.0000 0.60260  0.94070  0.18740  Biso   1.000  C
  C74      1.0000 0.56620  0.87150  0.17600  Biso   1.000  C
  H33      1.0000 0.59670  0.83240  0.20730  Biso   1.000  H
  C75      1.0000 0.48490  0.86000  0.11870  Biso   1.000  C
  C76      1.0000 0.43660  0.91890  0.07680  Biso   1.000  C
  H34      1.0000 0.38200  0.91160  0.03860  Biso   1.000  H
  C77      1.0000 0.46980  0.98860  0.09210  Biso   1.000  C
  C78      1.0000 0.55270  0.99830  0.14470  Biso   1.000  C
  H35      1.0000 0.57580  0.04500  0.15160  Biso   1.000  H
  C79      1.0000 0.44720  0.78440  0.10620  Biso   1.000  C
  C80      1.0000 0.41880  0.05450  0.05560  Biso   1.000  C
  Zn6      1.0000 0.44050  0.36228  0.63549  Biso   1.000  Zn
  O41      1.0000 0.40310  0.40269  0.51880  Biso   1.000  O
  O42      1.0000 0.27360  0.35909  0.49540  Biso   1.000  O
  O43      1.0000 0.98950  0.23439  0.15030  Biso   1.000  O
  O44      1.0000 0.87830  0.27520  0.05080  Biso   1.000  O
  O45      1.0000 0.84130  0.54040  0.00500  Biso   1.000  O
  H36      1.0000 0.81410  0.57850  0.99370  Biso   1.000  H
  O46      1.0000 0.94650  0.61610  0.07280  Biso   1.000  O
  O47      1.0000 0.36420  0.59608  0.19150  Biso   1.000  O
  O48      1.0000 0.45640  0.57700  0.32340  Biso   1.000  O
  C81      1.0000 0.32550  0.39480  0.47260  Biso   1.000  C
  C82      1.0000 0.29850  0.43180  0.38590  Biso   1.000  C
  C83      1.0000 0.21840  0.41800  0.32790  Biso   1.000  C
  H37      1.0000 0.18260  0.38530  0.34260  Biso   1.000  H
  C84      1.0000 0.19080  0.45300  0.24670  Biso   1.000  C
  C85      1.0000 0.24640  0.50250  0.22590  Biso   1.000  C
  H38      1.0000 0.22980  0.52600  0.17250  Biso   1.000  H
  C86      1.0000 0.32630  0.51580  0.28570  Biso   1.000  C
  C87      1.0000 0.35120  0.48120  0.36580  Biso   1.000  C
  H39      1.0000 0.40390  0.49150  0.40600  Biso   1.000  H
  C88      1.0000 0.38720  0.56680  0.26470  Biso   1.000  C
  C89      1.0000 0.10260  0.44070  0.18740  Biso   1.000  C
  C90      1.0000 0.06620  0.37150  0.17600  Biso   1.000  C
  H40      1.0000 0.09670  0.33240  0.20730  Biso   1.000  H
  C91      1.0000 0.98490  0.36000  0.11870  Biso   1.000  C
  C92      1.0000 0.93660  0.41890  0.07680  Biso   1.000  C
  H41      1.0000 0.88200  0.41160  0.03860  Biso   1.000  H
  C93      1.0000 0.96980  0.48860  0.09210  Biso   1.000  C
  C94      1.0000 0.05270  0.49830  0.14470  Biso   1.000  C
  H42      1.0000 0.07580  0.54500  0.15160  Biso   1.000  H
  C95      1.0000 0.94720  0.28440  0.10620  Biso   1.000  C
  C96      1.0000 0.91880  0.55450  0.05560  Biso   1.000  C
  Zn7      1.0000 0.05950  0.86228  0.86451  Biso   1.000  Zn
  O49      1.0000 0.09690  0.90269  0.98120  Biso   1.000  O
  O50      1.0000 0.22640  0.85909  0.00460  Biso   1.000  O
  O51      1.0000 0.51050  0.73439  0.34970  Biso   1.000  O
  O52      1.0000 0.62170  0.77520  0.44920  Biso   1.000  O
  O53      1.0000 0.65870  0.04040  0.49500  Biso   1.000  O
  H43      1.0000 0.68590  0.07850  0.50630  Biso   1.000  H
  O54      1.0000 0.55350  0.11610  0.42720  Biso   1.000  O
  O55      1.0000 0.13580  0.09608  0.30850  Biso   1.000  O
  O56      1.0000 0.04360  0.07700  0.17660  Biso   1.000  O
  C97      1.0000 0.17450  0.89480  0.02740  Biso   1.000  C
  C98      1.0000 0.20150  0.93180  0.11410  Biso   1.000  C
  C99      1.0000 0.28160  0.91800  0.17210  Biso   1.000  C
  H44      1.0000 0.31740  0.88530  0.15740  Biso   1.000  H
  C100     1.0000 0.30920  0.95300  0.25330  Biso   1.000  C
  C101     1.0000 0.25360  0.00250  0.27410  Biso   1.000  C
  H45      1.0000 0.27020  0.02600  0.32750  Biso   1.000  H
  C102     1.0000 0.17370  0.01580  0.21430  Biso   1.000  C
  C103     1.0000 0.14880  0.98120  0.13420  Biso   1.000  C
  H46      1.0000 0.09610  0.99150  0.09400  Biso   1.000  H
  C104     1.0000 0.11280  0.06680  0.23530  Biso   1.000  C
  C105     1.0000 0.39740  0.94070  0.31260  Biso   1.000  C
  C106     1.0000 0.43380  0.87150  0.32400  Biso   1.000  C
  H47      1.0000 0.40330  0.83240  0.29270  Biso   1.000  H
  C107     1.0000 0.51510  0.86000  0.38130  Biso   1.000  C
  C108     1.0000 0.56340  0.91890  0.42320  Biso   1.000  C
  H48      1.0000 0.61800  0.91160  0.46140  Biso   1.000  H
  C109     1.0000 0.53020  0.98860  0.40790  Biso   1.000  C
  C110     1.0000 0.44730  0.99830  0.35530  Biso   1.000  C
  H49      1.0000 0.42420  0.04500  0.34840  Biso   1.000  H
  C111     1.0000 0.55280  0.78440  0.39380  Biso   1.000  C
  C112     1.0000 0.58120  0.05450  0.44440  Biso   1.000  C
  Zn8      1.0000 0.55950  0.36228  0.86451  Biso   1.000  Zn
  O57      1.0000 0.59690  0.40269  0.98120  Biso   1.000  O
  O58      1.0000 0.72640  0.35909  0.00460  Biso   1.000  O
  O59      1.0000 0.01050  0.23439  0.34970  Biso   1.000  O
  O60      1.0000 0.12170  0.27520  0.44920  Biso   1.000  O
  O61      1.0000 0.15870  0.54040  0.49500  Biso   1.000  O
  H50      1.0000 0.18590  0.57850  0.50630  Biso   1.000  H
  O62      1.0000 0.05350  0.61610  0.42720  Biso   1.000  O
  O63      1.0000 0.63580  0.59608  0.30850  Biso   1.000  O
  O64      1.0000 0.54360  0.57700  0.17660  Biso   1.000  O
  C113     1.0000 0.67450  0.39480  0.02740  Biso   1.000  C
  C114     1.0000 0.70150  0.43180  0.11410  Biso   1.000  C
  C115     1.0000 0.78160  0.41800  0.17210  Biso   1.000  C
  H51      1.0000 0.81740  0.38530  0.15740  Biso   1.000  H
  C116     1.0000 0.80920  0.45300  0.25330  Biso   1.000  C
  C117     1.0000 0.75360  0.50250  0.27410  Biso   1.000  C
  H52      1.0000 0.77020  0.52600  0.32750  Biso   1.000  H
  C118     1.0000 0.67370  0.51580  0.21430  Biso   1.000  C
  C119     1.0000 0.64880  0.48120  0.13420  Biso   1.000  C
  H53      1.0000 0.59610  0.49150  0.09400  Biso   1.000  H
  C120     1.0000 0.61280  0.56680  0.23530  Biso   1.000  C
  C121     1.0000 0.89740  0.44070  0.31260  Biso   1.000  C
  C122     1.0000 0.93380  0.37150  0.32400  Biso   1.000  C
  H54      1.0000 0.90330  0.33240  0.29270  Biso   1.000  H
  C123     1.0000 0.01510  0.36000  0.38130  Biso   1.000  C
  C124     1.0000 0.06340  0.41890  0.42320  Biso   1.000  C
  H55      1.0000 0.11800  0.41160  0.46140  Biso   1.000  H
  C125     1.0000 0.03020  0.48860  0.40790  Biso   1.000  C
  C126     1.0000 0.94730  0.49830  0.35530  Biso   1.000  C
  H56      1.0000 0.92420  0.54500  0.34840  Biso   1.000  H
  C127     1.0000 0.05280  0.28440  0.39380  Biso   1.000  C
  C128     1.0000 0.08120  0.55450  0.44440  Biso   1.000  C
  Zn9      1.0000 0.25000  0.25000  0.50000  Biso   1.000  Zn
  Zn10     1.0000 0.75000  0.25000  0.00000  Biso   1.000  Zn
  Zn11     1.0000 0.75000  0.75000  0.50000  Biso   1.000  Zn
  Zn12     1.0000 0.25000  0.75000  0.00000  Biso   1.000  Zn
