data_YUBFOR_clean
_audit_creation_date              2014-07-02
_audit_creation_method            'Materials Studio'
_symmetry_space_group_name_H-M    'P1'
_symmetry_Int_Tables_number       1
_symmetry_cell_setting            triclinic
loop_
_symmetry_equiv_pos_as_xyz
  x,y,z
_cell_length_a                    11.3469
_cell_length_b                    12.2871
_cell_length_c                    12.2871
_cell_angle_alpha                 69.0310
_cell_angle_beta                  72.0716
_cell_angle_gamma                 107.9280
loop_
_atom_site_label
_atom_site_type_symbol
_atom_site_fract_x
_atom_site_fract_y
_atom_site_fract_z
_atom_site_U_iso_or_equiv
_atom_site_adp_type
_atom_site_occupancy
Zn1    Zn    0.68762   0.53524   0.93775   0.01267  Uiso   1.00
Zn2    Zn    0.62537   0.93775   0.52701   0.01267  Uiso   1.00
Zn3    Zn    0.15238   0.52701   0.53524   0.01267  Uiso   1.00
Zn4    Zn    0.31238   0.46476   0.06225   0.01267  Uiso   1.00
Zn5    Zn    0.37463   0.06225   0.47299   0.01267  Uiso   1.00
Zn6    Zn    0.84762   0.47299   0.46476   0.01267  Uiso   1.00
H1     H     0.26860   0.67060   0.91810   0.01267  Uiso   1.00
H2     H     0.36160   0.82370   0.82430   0.01267  Uiso   1.00
H3     H     0.31910   0.73260   0.76590   0.01267  Uiso   1.00
H4     H     0.87120   0.75990   0.68220   0.01267  Uiso   1.00
H5     H     0.84690   0.81480   0.55920   0.01267  Uiso   1.00
H6     H     0.88340   0.90140   0.62330   0.01267  Uiso   1.00
H7     H     0.18670   0.91810   0.41130   0.01267  Uiso   1.00
H8     H     0.18590   0.82430   0.35200   0.01267  Uiso   1.00
H9     H     0.08500   0.76590   0.50150   0.01267  Uiso   1.00
H10    H     0.55340   0.68220   0.55790   0.01267  Uiso   1.00
H11    H     0.40610   0.55920   0.62600   0.01267  Uiso   1.00
H12    H     0.50670   0.62330   0.47530   0.01267  Uiso   1.00
H13    H     0.59800   0.41130   0.67060   0.01267  Uiso   1.00
H14    H     0.53790   0.35200   0.82370   0.01267  Uiso   1.00
H15    H     0.58650   0.50150   0.73260   0.01267  Uiso   1.00
H16    H     0.11130   0.55790   0.75990   0.01267  Uiso   1.00
H17    H     0.03210   0.62600   0.81480   0.01267  Uiso   1.00
H18    H     0.98200   0.47530   0.90140   0.01267  Uiso   1.00
H19    H     0.73140   0.32940   0.08190   0.01267  Uiso   1.00
H20    H     0.63840   0.17630   0.17570   0.01267  Uiso   1.00
H21    H     0.68090   0.26740   0.23410   0.01267  Uiso   1.00
H22    H     0.12880   0.24010   0.31780   0.01267  Uiso   1.00
H23    H     0.15310   0.18520   0.44080   0.01267  Uiso   1.00
H24    H     0.11660   0.09860   0.37670   0.01267  Uiso   1.00
H25    H     0.81330   0.08190   0.58870   0.01267  Uiso   1.00
H26    H     0.81410   0.17570   0.64800   0.01267  Uiso   1.00
H27    H     0.91500   0.23410   0.49850   0.01267  Uiso   1.00
H28    H     0.44660   0.31780   0.44210   0.01267  Uiso   1.00
H29    H     0.59390   0.44080   0.37400   0.01267  Uiso   1.00
H30    H     0.49330   0.37670   0.52470   0.01267  Uiso   1.00
H31    H     0.40200   0.58870   0.32940   0.01267  Uiso   1.00
H32    H     0.46210   0.64800   0.17630   0.01267  Uiso   1.00
H33    H     0.41350   0.49850   0.26740   0.01267  Uiso   1.00
H34    H     0.88870   0.44210   0.24010   0.01267  Uiso   1.00
H35    H     0.96790   0.37400   0.18520   0.01267  Uiso   1.00
H36    H     0.01800   0.52470   0.09860   0.01267  Uiso   1.00
C1     C     0.34410   0.73910   0.83210   0.01267  Uiso   1.00
C2     C     0.47240   0.72410   0.81320   0.01267  Uiso   1.00
C3     C     0.68280   0.75640   0.72970   0.01267  Uiso   1.00
C4     C     0.83450   0.81320   0.64070   0.01267  Uiso   1.00
C5     C     0.17620   0.83210   0.42880   0.01267  Uiso   1.00
C6     C     0.28560   0.81320   0.46270   0.01267  Uiso   1.00
C7     C     0.41250   0.72970   0.51390   0.01267  Uiso   1.00
C8     C     0.47520   0.64070   0.54610   0.01267  Uiso   1.00
C9     C     0.60500   0.42880   0.73910   0.01267  Uiso   1.00
C10    C     0.74830   0.46270   0.72410   0.01267  Uiso   1.00
C11    C     0.92640   0.51390   0.75640   0.01267  Uiso   1.00
C12    C     0.02130   0.54610   0.81320   0.01267  Uiso   1.00
C13    C     0.65590   0.26090   0.16790   0.01267  Uiso   1.00
C14    C     0.52760   0.27590   0.18680   0.01267  Uiso   1.00
C15    C     0.31720   0.24360   0.27030   0.01267  Uiso   1.00
C16    C     0.16550   0.18680   0.35930   0.01267  Uiso   1.00
C17    C     0.82380   0.16790   0.57120   0.01267  Uiso   1.00
C18    C     0.71440   0.18680   0.53730   0.01267  Uiso   1.00
C19    C     0.58750   0.27030   0.48610   0.01267  Uiso   1.00
C20    C     0.52480   0.35930   0.45390   0.01267  Uiso   1.00
C21    C     0.39500   0.57120   0.26090   0.01267  Uiso   1.00
C22    C     0.25170   0.53730   0.27590   0.01267  Uiso   1.00
C23    C     0.07360   0.48610   0.24360   0.01267  Uiso   1.00
C24    C     0.97870   0.45390   0.18680   0.01267  Uiso   1.00
N1     N     0.61460   0.64980   0.84720   0.01267  Uiso   1.00
N2     N     0.47810   0.62940   0.90090   0.01267  Uiso   1.00
N3     N     0.59720   0.80590   0.70270   0.01267  Uiso   1.00
N4     N     0.46180   0.84720   0.50300   0.01267  Uiso   1.00
N5     N     0.37900   0.90090   0.46970   0.01267  Uiso   1.00
N6     N     0.29990   0.70270   0.49140   0.01267  Uiso   1.00
N7     N     0.96480   0.50300   0.64980   0.01267  Uiso   1.00
N8     N     0.84870   0.46970   0.62940   0.01267  Uiso   1.00
N9     N     0.79130   0.49140   0.80590   0.01267  Uiso   1.00
N10    N     0.38540   0.35020   0.15280   0.01267  Uiso   1.00
N11    N     0.52190   0.37060   0.09910   0.01267  Uiso   1.00
N12    N     0.40280   0.19410   0.29730   0.01267  Uiso   1.00
N13    N     0.53820   0.15280   0.49700   0.01267  Uiso   1.00
N14    N     0.62100   0.09910   0.53030   0.01267  Uiso   1.00
N15    N     0.70010   0.29730   0.50860   0.01267  Uiso   1.00
N16    N     0.03520   0.49700   0.35020   0.01267  Uiso   1.00
N17    N     0.15130   0.53030   0.37060   0.01267  Uiso   1.00
N18    N     0.20870   0.50860   0.19410   0.01267  Uiso   1.00
