data_image0
_cell_length_a       9.6416
_cell_length_b       10.973
_cell_length_c       15.997
_cell_angle_alpha    109.52
_cell_angle_beta     91.56
_cell_angle_gamma    109.61

_symmetry_space_group_name_H-M    "P 1"
_symmetry_int_tables_number       1

loop_
  _symmetry_equiv_pos_as_xyz
  'x, y, z'

loop_
  _atom_site_label
  _atom_site_occupancy
  _atom_site_fract_x
  _atom_site_fract_y
  _atom_site_fract_z
  _atom_site_thermal_displace_type
  _atom_site_B_iso_or_equiv
  _atom_site_type_symbol
  U1       1.0000 0.10097  0.29971  0.37978  Biso   1.000  U
  U2       1.0000 0.85495  0.82900  0.99680  Biso   1.000  U
  O1       1.0000 0.14500  0.09110  0.28580  Biso   1.000  O
  O2       1.0000 0.03790  0.08000  0.40300  Biso   1.000  O
  C1       1.0000 0.08860  0.02420  0.33300  Biso   1.000  C
  C2       1.0000 0.08450  0.87980  0.31240  Biso   1.000  C
  C3       1.0000 0.09380  0.80220  0.22640  Biso   1.000  C
  H1       1.0000 0.10330  0.84200  0.18290  Biso   1.000  H
  C4       1.0000 0.08970  0.66770  0.20220  Biso   1.000  C
  C5       1.0000 0.07420  0.60680  0.26740  Biso   1.000  C
  H2       1.0000 0.06500  0.51470  0.25240  Biso   1.000  H
  C6       1.0000 0.07280  0.68790  0.35540  Biso   1.000  C
  C7       1.0000 0.07350  0.82110  0.37930  Biso   1.000  C
  H3       1.0000 0.06680  0.87080  0.43790  Biso   1.000  H
  C8       1.0000 0.07100  0.62680  0.43040  Biso   1.000  C
  O3       1.0000 0.03230  0.68370  0.49970  Biso   1.000  O
  O4       1.0000 0.10370  0.52270  0.41360  Biso   1.000  O
  N1       1.0000 0.08900  0.58840  0.11420  Biso   1.000  N
  H4       1.0000 0.09120  0.62270  0.07290  Biso   1.000  H
  H5       1.0000 0.08640  0.50490  0.10070  Biso   1.000  H
  O5       1.0000 0.67680  0.65580  0.04730  Biso   1.000  O
  O6       1.0000 0.80170  0.85790  0.14910  Biso   1.000  O
  C9       1.0000 0.70760  0.73750  0.12830  Biso   1.000  C
  C10      1.0000 0.62650  0.69720  0.19810  Biso   1.000  C
  C11      1.0000 0.68460  0.77620  0.28490  Biso   1.000  C
  H6       1.0000 0.76970  0.85590  0.29910  Biso   1.000  H
  C12      1.0000 0.61600  0.73800  0.35480  Biso   1.000  C
  C13      1.0000 0.48740  0.62020  0.33080  Biso   1.000  C
  H7       1.0000 0.43920  0.59440  0.37520  Biso   1.000  H
  C14      1.0000 0.42980  0.53980  0.24040  Biso   1.000  C
  C15      1.0000 0.50000  0.57860  0.17440  Biso   1.000  C
  H8       1.0000 0.46220  0.52520  0.11420  Biso   1.000  H
  C16      1.0000 0.29010  0.41130  0.21600  Biso   1.000  C
  O7       1.0000 0.22450  0.36050  0.13890  Biso   1.000  O
  O8       1.0000 0.24370  0.36790  0.27700  Biso   1.000  O
  N2       1.0000 0.67840  0.81680  0.44280  Biso   1.000  N
  H9       1.0000 0.63780  0.79360  0.48510  Biso   1.000  H
  H10      1.0000 0.75830  0.88940  0.45560  Biso   1.000  H
  O9       1.0000 0.00230  0.94390  0.91360  Biso   1.000  O
  H11      1.0000 0.04710  0.91050  0.87810  Biso   1.000  H
  H12      1.0000 0.95020  0.94360  0.87370  Biso   1.000  H
  U3       1.0000 0.89903  0.70029  0.62022  Biso   1.000  U
  U4       1.0000 0.14505  0.17100  0.00320  Biso   1.000  U
  O10      1.0000 0.85500  0.90890  0.71420  Biso   1.000  O
  O11      1.0000 0.96210  0.92000  0.59700  Biso   1.000  O
  C17      1.0000 0.91140  0.97580  0.66700  Biso   1.000  C
  C18      1.0000 0.91550  0.12020  0.68760  Biso   1.000  C
  C19      1.0000 0.90620  0.19780  0.77360  Biso   1.000  C
  H13      1.0000 0.89670  0.15800  0.81710  Biso   1.000  H
  C20      1.0000 0.91030  0.33230  0.79780  Biso   1.000  C
  C21      1.0000 0.92580  0.39320  0.73260  Biso   1.000  C
  H14      1.0000 0.93500  0.48530  0.74760  Biso   1.000  H
  C22      1.0000 0.92720  0.31210  0.64460  Biso   1.000  C
  C23      1.0000 0.92650  0.17890  0.62070  Biso   1.000  C
  H15      1.0000 0.93320  0.12920  0.56210  Biso   1.000  H
  C24      1.0000 0.92900  0.37320  0.56960  Biso   1.000  C
  O12      1.0000 0.96770  0.31630  0.50030  Biso   1.000  O
  O13      1.0000 0.89630  0.47730  0.58640  Biso   1.000  O
  N3       1.0000 0.91100  0.41160  0.88580  Biso   1.000  N
  H16      1.0000 0.90880  0.37730  0.92710  Biso   1.000  H
  H17      1.0000 0.91360  0.49510  0.89930  Biso   1.000  H
  O14      1.0000 0.32320  0.34420  0.95270  Biso   1.000  O
  O15      1.0000 0.19830  0.14210  0.85090  Biso   1.000  O
  C25      1.0000 0.29240  0.26250  0.87170  Biso   1.000  C
  C26      1.0000 0.37350  0.30280  0.80190  Biso   1.000  C
  C27      1.0000 0.31540  0.22380  0.71510  Biso   1.000  C
  H18      1.0000 0.23030  0.14410  0.70090  Biso   1.000  H
  C28      1.0000 0.38400  0.26200  0.64520  Biso   1.000  C
  C29      1.0000 0.51260  0.37980  0.66920  Biso   1.000  C
  H19      1.0000 0.56080  0.40560  0.62480  Biso   1.000  H
  C30      1.0000 0.57020  0.46020  0.75960  Biso   1.000  C
  C31      1.0000 0.50000  0.42140  0.82560  Biso   1.000  C
  H20      1.0000 0.53780  0.47480  0.88580  Biso   1.000  H
  C32      1.0000 0.70990  0.58870  0.78400  Biso   1.000  C
  O16      1.0000 0.77550  0.63950  0.86110  Biso   1.000  O
  O17      1.0000 0.75630  0.63210  0.72300  Biso   1.000  O
  N4       1.0000 0.32160  0.18320  0.55720  Biso   1.000  N
  H21      1.0000 0.36220  0.20640  0.51490  Biso   1.000  H
  H22      1.0000 0.24170  0.11060  0.54440  Biso   1.000  H
  O18      1.0000 0.99770  0.05610  0.08640  Biso   1.000  O
  H23      1.0000 0.95290  0.08950  0.12190  Biso   1.000  H
  H24      1.0000 0.04980  0.05640  0.12630  Biso   1.000  H
