data_image0
_cell_length_a       9.6655
_cell_length_b       11.002
_cell_length_c       15.304
_cell_angle_alpha    108.95
_cell_angle_beta     95.14
_cell_angle_gamma    109.32

_symmetry_space_group_name_H-M    "P 1"
_symmetry_int_tables_number       1

loop_
  _symmetry_equiv_pos_as_xyz
  'x, y, z'

loop_
  _atom_site_label
  _atom_site_occupancy
  _atom_site_fract_x
  _atom_site_fract_y
  _atom_site_fract_z
  _atom_site_thermal_displace_type
  _atom_site_B_iso_or_equiv
  _atom_site_type_symbol
  U1       1.0000 0.88670  0.18904  0.11375  Biso   1.000  U
  U2       1.0000 0.14972  0.66407  0.49976  Biso   1.000  U
  O1       1.0000 0.82560  0.38570  0.20530  Biso   1.000  O
  O2       1.0000 0.93930  0.40760  0.08920  Biso   1.000  O
  C1       1.0000 0.88360  0.45830  0.15760  Biso   1.000  C
  C2       1.0000 0.88510  0.60060  0.18320  Biso   1.000  C
  C3       1.0000 0.90870  0.66680  0.11900  Biso   1.000  C
  H1       1.0000 0.92440  0.62150  0.06020  Biso   1.000  H
  C4       1.0000 0.90910  0.79810  0.14200  Biso   1.000  C
  C5       1.0000 0.88700  0.86520  0.23000  Biso   1.000  C
  H2       1.0000 0.88310  0.95280  0.24480  Biso   1.000  H
  C6       1.0000 0.87100  0.80450  0.29540  Biso   1.000  C
  H3       1.0000 0.86440  0.85350  0.35620  Biso   1.000  H
  C7       1.0000 0.86320  0.66700  0.26990  Biso   1.000  C
  H4       1.0000 0.84360  0.62180  0.31190  Biso   1.000  H
  C8       1.0000 0.93050  0.86890  0.07340  Biso   1.000  C
  O3       1.0000 0.90400  0.97530  0.08840  Biso   1.000  O
  O4       1.0000 0.97260  0.81770  0.00050  Biso   1.000  O
  O5       1.0000 0.97640  0.44200  0.40660  Biso   1.000  O
  H5       1.0000 0.00000  0.42000  0.35400  Biso   1.000  H
  H6       1.0000 0.89600  0.46000  0.40300  Biso   1.000  H
  O6       1.0000 0.17600  0.63020  0.33620  Biso   1.000  O
  O7       1.0000 0.32530  0.82830  0.44520  Biso   1.000  O
  C9       1.0000 0.67850  0.07960  0.27290  Biso   1.000  C
  C10      1.0000 0.55150  0.94650  0.24620  Biso   1.000  C
  C11      1.0000 0.48050  0.90950  0.31390  Biso   1.000  C
  H7       1.0000 0.51580  0.96830  0.37740  Biso   1.000  H
  C12      1.0000 0.35790  0.78610  0.28770  Biso   1.000  C
  C13      1.0000 0.29990  0.70180  0.19230  Biso   1.000  C
  H8       1.0000 0.21580  0.61980  0.17440  Biso   1.000  H
  C14      1.0000 0.36700  0.73970  0.12430  Biso   1.000  C
  H9       1.0000 0.32860  0.68270  0.06060  Biso   1.000  H
  C15      1.0000 0.49230  0.86370  0.15100  Biso   1.000  C
  H10      1.0000 0.53600  0.89060  0.10510  Biso   1.000  H
  C16      1.0000 0.28120  0.74780  0.36020  Biso   1.000  C
  O8       1.0000 0.74630  0.11280  0.21320  Biso   1.000  O
  O9       1.0000 0.72400  0.15700  0.35550  Biso   1.000  O
  U3       1.0000 0.11330  0.81096  0.88625  Biso   1.000  U
  U4       1.0000 0.85028  0.33593  0.50024  Biso   1.000  U
  O10      1.0000 0.17440  0.61430  0.79470  Biso   1.000  O
  O11      1.0000 0.06070  0.59240  0.91080  Biso   1.000  O
  C17      1.0000 0.11640  0.54170  0.84240  Biso   1.000  C
  C18      1.0000 0.11490  0.39940  0.81680  Biso   1.000  C
  C19      1.0000 0.09130  0.33320  0.88100  Biso   1.000  C
  H11      1.0000 0.07560  0.37850  0.93980  Biso   1.000  H
  C20      1.0000 0.09090  0.20190  0.85800  Biso   1.000  C
  C21      1.0000 0.11300  0.13480  0.77000  Biso   1.000  C
  H12      1.0000 0.11690  0.04720  0.75520  Biso   1.000  H
  C22      1.0000 0.12900  0.19550  0.70460  Biso   1.000  C
  H13      1.0000 0.13560  0.14650  0.64380  Biso   1.000  H
  C23      1.0000 0.13680  0.33300  0.73010  Biso   1.000  C
  H14      1.0000 0.15640  0.37820  0.68810  Biso   1.000  H
  C24      1.0000 0.06950  0.13110  0.92660  Biso   1.000  C
  O12      1.0000 0.09600  0.02470  0.91160  Biso   1.000  O
  O13      1.0000 0.02740  0.18230  0.99950  Biso   1.000  O
  O14      1.0000 0.02360  0.55800  0.59340  Biso   1.000  O
  H15      1.0000 0.00000  0.58000  0.64600  Biso   1.000  H
  H16      1.0000 0.10400  0.54000  0.59700  Biso   1.000  H
  O15      1.0000 0.82400  0.36980  0.66380  Biso   1.000  O
  O16      1.0000 0.67470  0.17170  0.55480  Biso   1.000  O
  C25      1.0000 0.32150  0.92040  0.72710  Biso   1.000  C
  C26      1.0000 0.44850  0.05350  0.75380  Biso   1.000  C
  C27      1.0000 0.51950  0.09050  0.68610  Biso   1.000  C
  H17      1.0000 0.48420  0.03170  0.62260  Biso   1.000  H
  C28      1.0000 0.64210  0.21390  0.71230  Biso   1.000  C
  C29      1.0000 0.70010  0.29820  0.80770  Biso   1.000  C
  H18      1.0000 0.78420  0.38020  0.82560  Biso   1.000  H
  C30      1.0000 0.63300  0.26030  0.87570  Biso   1.000  C
  H19      1.0000 0.67140  0.31730  0.93940  Biso   1.000  H
  C31      1.0000 0.50770  0.13630  0.84900  Biso   1.000  C
  H20      1.0000 0.46400  0.10940  0.89490  Biso   1.000  H
  C32      1.0000 0.71880  0.25220  0.63980  Biso   1.000  C
  O17      1.0000 0.25370  0.88720  0.78680  Biso   1.000  O
  O18      1.0000 0.27600  0.84300  0.64450  Biso   1.000  O
