data_image0
_cell_length_a       19.703
_cell_length_b       9.5197
_cell_length_c       20.127
_cell_angle_alpha    90
_cell_angle_beta     106.26
_cell_angle_gamma    90

_symmetry_space_group_name_H-M    "P 1"
_symmetry_int_tables_number       1

loop_
  _symmetry_equiv_pos_as_xyz
  'x, y, z'

loop_
  _atom_site_label
  _atom_site_occupancy
  _atom_site_fract_x
  _atom_site_fract_y
  _atom_site_fract_z
  _atom_site_thermal_displace_type
  _atom_site_B_iso_or_equiv
  _atom_site_type_symbol
  U1       1.0000 0.10488  0.63492  0.11128  Biso   1.000  U
  O1       1.0000 0.09320  0.62000  0.21920  Biso   1.000  O
  C1       1.0000 0.11790  0.53820  0.27610  Biso   1.000  C
  C2       1.0000 0.18020  0.46460  0.29020  Biso   1.000  C
  H1       1.0000 0.20630  0.46580  0.25830  Biso   1.000  H
  C3       1.0000 0.20540  0.38770  0.35160  Biso   1.000  C
  C4       1.0000 0.16530  0.38330  0.39840  Biso   1.000  C
  H2       1.0000 0.18090  0.33120  0.43890  Biso   1.000  H
  C5       1.0000 0.10140  0.45730  0.38450  Biso   1.000  C
  C6       1.0000 0.07770  0.53040  0.32390  Biso   1.000  C
  H3       1.0000 0.03420  0.57580  0.31400  Biso   1.000  H
  C7       1.0000 0.26990  0.30100  0.36340  Biso   1.000  C
  C8       1.0000 0.05650  0.44770  0.43360  Biso   1.000  C
  O2       1.0000 0.29680  0.27050  0.31520  Biso   1.000  O
  O3       1.0000 0.30010  0.25780  0.42420  Biso   1.000  O
  O4       1.0000 0.08200  0.39140  0.49120  Biso   1.000  O
  H4       1.0000 0.12300  0.35400  0.50000  Biso   1.000  H
  O5       1.0000 0.99550  0.49450  0.41490  Biso   1.000  O
  U2       1.0000 0.60488  0.13492  0.11128  Biso   1.000  U
  O6       1.0000 0.59320  0.12000  0.21920  Biso   1.000  O
  C9       1.0000 0.61790  0.03820  0.27610  Biso   1.000  C
  C10      1.0000 0.68020  0.96460  0.29020  Biso   1.000  C
  H5       1.0000 0.70630  0.96580  0.25830  Biso   1.000  H
  C11      1.0000 0.70540  0.88770  0.35160  Biso   1.000  C
  C12      1.0000 0.66530  0.88330  0.39840  Biso   1.000  C
  H6       1.0000 0.68090  0.83120  0.43890  Biso   1.000  H
  C13      1.0000 0.60140  0.95730  0.38450  Biso   1.000  C
  C14      1.0000 0.57770  0.03040  0.32390  Biso   1.000  C
  H7       1.0000 0.53420  0.07580  0.31400  Biso   1.000  H
  C15      1.0000 0.76990  0.80100  0.36340  Biso   1.000  C
  C16      1.0000 0.55650  0.94770  0.43360  Biso   1.000  C
  O7       1.0000 0.79680  0.77050  0.31520  Biso   1.000  O
  O8       1.0000 0.80010  0.75780  0.42420  Biso   1.000  O
  O9       1.0000 0.58200  0.89140  0.49120  Biso   1.000  O
  H8       1.0000 0.62300  0.85400  0.50000  Biso   1.000  H
  O10      1.0000 0.49550  0.99450  0.41490  Biso   1.000  O
  U3       1.0000 0.89512  0.63492  0.38872  Biso   1.000  U
  O11      1.0000 0.90680  0.62000  0.28080  Biso   1.000  O
  C17      1.0000 0.88210  0.53820  0.22390  Biso   1.000  C
  C18      1.0000 0.81980  0.46460  0.20980  Biso   1.000  C
  H9       1.0000 0.79370  0.46580  0.24170  Biso   1.000  H
  C19      1.0000 0.79460  0.38770  0.14840  Biso   1.000  C
  C20      1.0000 0.83470  0.38330  0.10160  Biso   1.000  C
  H10      1.0000 0.81910  0.33120  0.06110  Biso   1.000  H
  C21      1.0000 0.89860  0.45730  0.11550  Biso   1.000  C
  C22      1.0000 0.92230  0.53040  0.17610  Biso   1.000  C
  H11      1.0000 0.96580  0.57580  0.18600  Biso   1.000  H
  C23      1.0000 0.73010  0.30100  0.13660  Biso   1.000  C
  C24      1.0000 0.94350  0.44770  0.06640  Biso   1.000  C
  O12      1.0000 0.70320  0.27050  0.18480  Biso   1.000  O
  O13      1.0000 0.69990  0.25780  0.07580  Biso   1.000  O
  O14      1.0000 0.91800  0.39140  0.00880  Biso   1.000  O
  H12      1.0000 0.87700  0.35400  0.00000  Biso   1.000  H
  O15      1.0000 0.00450  0.49450  0.08510  Biso   1.000  O
  U4       1.0000 0.39512  0.13492  0.38872  Biso   1.000  U
  O16      1.0000 0.40680  0.12000  0.28080  Biso   1.000  O
  C25      1.0000 0.38210  0.03820  0.22390  Biso   1.000  C
  C26      1.0000 0.31980  0.96460  0.20980  Biso   1.000  C
  H13      1.0000 0.29370  0.96580  0.24170  Biso   1.000  H
  C27      1.0000 0.29460  0.88770  0.14840  Biso   1.000  C
  C28      1.0000 0.33470  0.88330  0.10160  Biso   1.000  C
  H14      1.0000 0.31910  0.83120  0.06110  Biso   1.000  H
  C29      1.0000 0.39860  0.95730  0.11550  Biso   1.000  C
  C30      1.0000 0.42230  0.03040  0.17610  Biso   1.000  C
  H15      1.0000 0.46580  0.07580  0.18600  Biso   1.000  H
  C31      1.0000 0.23010  0.80100  0.13660  Biso   1.000  C
  C32      1.0000 0.44350  0.94770  0.06640  Biso   1.000  C
  O17      1.0000 0.20320  0.77050  0.18480  Biso   1.000  O
  O18      1.0000 0.19990  0.75780  0.07580  Biso   1.000  O
  O19      1.0000 0.41800  0.89140  0.00880  Biso   1.000  O
  H16      1.0000 0.37700  0.85400  0.00000  Biso   1.000  H
  O20      1.0000 0.50450  0.99450  0.08510  Biso   1.000  O
  U5       1.0000 0.89512  0.36508  0.88872  Biso   1.000  U
  O21      1.0000 0.90680  0.38000  0.78080  Biso   1.000  O
  C33      1.0000 0.88210  0.46180  0.72390  Biso   1.000  C
  C34      1.0000 0.81980  0.53540  0.70980  Biso   1.000  C
  H17      1.0000 0.79370  0.53420  0.74170  Biso   1.000  H
  C35      1.0000 0.79460  0.61230  0.64840  Biso   1.000  C
  C36      1.0000 0.83470  0.61670  0.60160  Biso   1.000  C
  H18      1.0000 0.81910  0.66880  0.56110  Biso   1.000  H
  C37      1.0000 0.89860  0.54270  0.61550  Biso   1.000  C
  C38      1.0000 0.92230  0.46960  0.67610  Biso   1.000  C
  H19      1.0000 0.96580  0.42420  0.68600  Biso   1.000  H
  C39      1.0000 0.73010  0.69900  0.63660  Biso   1.000  C
  C40      1.0000 0.94350  0.55230  0.56640  Biso   1.000  C
  O22      1.0000 0.70320  0.72950  0.68480  Biso   1.000  O
  O23      1.0000 0.69990  0.74220  0.57580  Biso   1.000  O
  O24      1.0000 0.91800  0.60860  0.50880  Biso   1.000  O
  H20      1.0000 0.87700  0.64600  0.50000  Biso   1.000  H
  O25      1.0000 0.00450  0.50550  0.58510  Biso   1.000  O
  U6       1.0000 0.39512  0.86508  0.88872  Biso   1.000  U
  O26      1.0000 0.40680  0.88000  0.78080  Biso   1.000  O
  C41      1.0000 0.38210  0.96180  0.72390  Biso   1.000  C
  C42      1.0000 0.31980  0.03540  0.70980  Biso   1.000  C
  H21      1.0000 0.29370  0.03420  0.74170  Biso   1.000  H
  C43      1.0000 0.29460  0.11230  0.64840  Biso   1.000  C
  C44      1.0000 0.33470  0.11670  0.60160  Biso   1.000  C
  H22      1.0000 0.31910  0.16880  0.56110  Biso   1.000  H
  C45      1.0000 0.39860  0.04270  0.61550  Biso   1.000  C
  C46      1.0000 0.42230  0.96960  0.67610  Biso   1.000  C
  H23      1.0000 0.46580  0.92420  0.68600  Biso   1.000  H
  C47      1.0000 0.23010  0.19900  0.63660  Biso   1.000  C
  C48      1.0000 0.44350  0.05230  0.56640  Biso   1.000  C
  O27      1.0000 0.20320  0.22950  0.68480  Biso   1.000  O
  O28      1.0000 0.19990  0.24220  0.57580  Biso   1.000  O
  O29      1.0000 0.41800  0.10860  0.50880  Biso   1.000  O
  H24      1.0000 0.37700  0.14600  0.50000  Biso   1.000  H
  O30      1.0000 0.50450  0.00550  0.58510  Biso   1.000  O
  U7       1.0000 0.10488  0.36508  0.61128  Biso   1.000  U
  O31      1.0000 0.09320  0.38000  0.71920  Biso   1.000  O
  C49      1.0000 0.11790  0.46180  0.77610  Biso   1.000  C
  C50      1.0000 0.18020  0.53540  0.79020  Biso   1.000  C
  H25      1.0000 0.20630  0.53420  0.75830  Biso   1.000  H
  C51      1.0000 0.20540  0.61230  0.85160  Biso   1.000  C
  C52      1.0000 0.16530  0.61670  0.89840  Biso   1.000  C
  H26      1.0000 0.18090  0.66880  0.93890  Biso   1.000  H
  C53      1.0000 0.10140  0.54270  0.88450  Biso   1.000  C
  C54      1.0000 0.07770  0.46960  0.82390  Biso   1.000  C
  H27      1.0000 0.03420  0.42420  0.81400  Biso   1.000  H
  C55      1.0000 0.26990  0.69900  0.86340  Biso   1.000  C
  C56      1.0000 0.05650  0.55230  0.93360  Biso   1.000  C
  O32      1.0000 0.29680  0.72950  0.81520  Biso   1.000  O
  O33      1.0000 0.30010  0.74220  0.92420  Biso   1.000  O
  O34      1.0000 0.08200  0.60860  0.99120  Biso   1.000  O
  H28      1.0000 0.12300  0.64600  0.00000  Biso   1.000  H
  O35      1.0000 0.99550  0.50550  0.91490  Biso   1.000  O
  U8       1.0000 0.60488  0.86508  0.61128  Biso   1.000  U
  O36      1.0000 0.59320  0.88000  0.71920  Biso   1.000  O
  C57      1.0000 0.61790  0.96180  0.77610  Biso   1.000  C
  C58      1.0000 0.68020  0.03540  0.79020  Biso   1.000  C
  H29      1.0000 0.70630  0.03420  0.75830  Biso   1.000  H
  C59      1.0000 0.70540  0.11230  0.85160  Biso   1.000  C
  C60      1.0000 0.66530  0.11670  0.89840  Biso   1.000  C
  H30      1.0000 0.68090  0.16880  0.93890  Biso   1.000  H
  C61      1.0000 0.60140  0.04270  0.88450  Biso   1.000  C
  C62      1.0000 0.57770  0.96960  0.82390  Biso   1.000  C
  H31      1.0000 0.53420  0.92420  0.81400  Biso   1.000  H
  C63      1.0000 0.76990  0.19900  0.86340  Biso   1.000  C
  C64      1.0000 0.55650  0.05230  0.93360  Biso   1.000  C
  O37      1.0000 0.79680  0.22950  0.81520  Biso   1.000  O
  O38      1.0000 0.80010  0.24220  0.92420  Biso   1.000  O
  O39      1.0000 0.58200  0.10860  0.99120  Biso   1.000  O
  H32      1.0000 0.62300  0.14600  0.00000  Biso   1.000  H
  O40      1.0000 0.49550  0.00550  0.91490  Biso   1.000  O
