data_image0
_cell_length_a       11.002
_cell_length_b       22.1547
_cell_length_c       16.9957
_cell_angle_alpha    90
_cell_angle_beta     100.697
_cell_angle_gamma    90

_symmetry_space_group_name_H-M    "P 1"
_symmetry_int_tables_number       1

loop_
  _symmetry_equiv_pos_as_xyz
  'x, y, z'

loop_
  _atom_site_label
  _atom_site_occupancy
  _atom_site_fract_x
  _atom_site_fract_y
  _atom_site_fract_z
  _atom_site_thermal_displace_type
  _atom_site_B_iso_or_equiv
  _atom_site_type_symbol
  Co1      1.0000 0.14436  0.55740  0.53059  Biso   1.000  Co
  O1       1.0000 0.00072  0.59090  0.45246  Biso   1.000  O
  O2       1.0000 0.21400  0.85308  0.06017  Biso   1.000  O
  O3       1.0000 0.32640  0.92857  0.11576  Biso   1.000  O
  O4       1.0000 0.83740  0.53315  0.46079  Biso   1.000  O
  N1       1.0000 0.24420  0.55154  0.43341  Biso   1.000  N
  N2       1.0000 0.05290  0.55536  0.63222  Biso   1.000  N
  N3       1.0000 0.44110  0.56201  0.18218  Biso   1.000  N
  H1       1.0000 0.38280  0.58690  0.16360  Biso   1.000  H
  N4       1.0000 0.56030  0.49748  0.25744  Biso   1.000  N
  N5       1.0000 0.61180  0.50443  0.19130  Biso   1.000  N
  C1       1.0000 0.39990  0.82887  0.14920  Biso   1.000  C
  N6       1.0000 0.83450  0.49663  0.93990  Biso   1.000  N
  N7       1.0000 0.78110  0.56514  0.84844  Biso   1.000  N
  H2       1.0000 0.74420  0.59450  0.82060  Biso   1.000  H
  C2       1.0000 0.30920  0.87251  0.10670  Biso   1.000  C
  C3       1.0000 0.41100  0.50414  0.38300  Biso   1.000  C
  H3       1.0000 0.47640  0.47690  0.39110  Biso   1.000  H
  C4       1.0000 0.09970  0.51942  0.69390  Biso   1.000  C
  H4       1.0000 0.17340  0.49930  0.69210  Biso   1.000  H
  N8       1.0000 0.91320  0.48914  0.88730  Biso   1.000  N
  C5       1.0000 0.45830  0.53298  0.25050  Biso   1.000  C
  C6       1.0000 0.38350  0.53810  0.31310  Biso   1.000  C
  C7       1.0000 0.94810  0.58442  0.63740  Biso   1.000  C
  H5       1.0000 0.91350  0.60970  0.59550  Biso   1.000  H
  C8       1.0000 0.88870  0.57878  0.70150  Biso   1.000  C
  H6       1.0000 0.81660  0.60030  0.70290  Biso   1.000  H
  C9       1.0000 0.28510  0.57812  0.30490  Biso   1.000  C
  H7       1.0000 0.26390  0.60100  0.25850  Biso   1.000  H
  C10      1.0000 0.53600  0.54376  0.14770  Biso   1.000  C
  N9       1.0000 0.47990  0.62470  0.95250  Biso   1.000  N
  C11      1.0000 0.33760  0.51239  0.44030  Biso   1.000  C
  H8       1.0000 0.35470  0.48910  0.48650  Biso   1.000  H
  C12      1.0000 0.64840  0.54230  0.03280  Biso   1.000  C
  H9       1.0000 0.70350  0.51380  0.05910  Biso   1.000  H
  C13      1.0000 0.21870  0.58384  0.36600  Biso   1.000  C
  H10      1.0000 0.15370  0.61130  0.35990  Biso   1.000  H
  C14      1.0000 0.77810  0.70689  0.29560  Biso   1.000  C
  H11      1.0000 0.81240  0.73680  0.26820  Biso   1.000  H
  C15      1.0000 0.88770  0.57861  0.43670  Biso   1.000  C
  C16      1.0000 0.80670  0.62226  0.38380  Biso   1.000  C
  C17      1.0000 0.65030  0.70263  0.28640  Biso   1.000  C
  C18      1.0000 0.56600  0.74642  0.23670  Biso   1.000  C
  C19      1.0000 0.93760  0.54066  0.76420  Biso   1.000  C
  C20      1.0000 0.85530  0.66780  0.34430  Biso   1.000  C
  H12      1.0000 0.94060  0.67220  0.35050  Biso   1.000  H
  C21      1.0000 0.59600  0.80676  0.23570  Biso   1.000  C
  H13      1.0000 0.67140  0.82020  0.26440  Biso   1.000  H
  C22      1.0000 0.04570  0.51049  0.75940  Biso   1.000  C
  H14      1.0000 0.08140  0.48440  0.80010  Biso   1.000  H
  C23      1.0000 0.65980  0.56230  0.95770  Biso   1.000  C
  C24      1.0000 0.60380  0.65760  0.32620  Biso   1.000  C
  H15      1.0000 0.51840  0.65400  0.32100  Biso   1.000  H
  C25      1.0000 0.75650  0.54220  0.91570  Biso   1.000  C
  C26      1.0000 0.87590  0.53256  0.83380  Biso   1.000  C
  C27      1.0000 0.51410  0.84783  0.19190  Biso   1.000  C
  H16      1.0000 0.53600  0.88840  0.19110  Biso   1.000  H
  C28      1.0000 0.55550  0.56430  0.06880  Biso   1.000  C
  C29      1.0000 0.37230  0.76741  0.14910  Biso   1.000  C
  H17      1.0000 0.29790  0.75360  0.11940  Biso   1.000  H
  C30      1.0000 0.67870  0.61710  0.37410  Biso   1.000  C
  H18      1.0000 0.64380  0.58640  0.39980  Biso   1.000  H
  C31      1.0000 0.57210  0.60280  0.92130  Biso   1.000  C
  H19      1.0000 0.57830  0.61580  0.87020  Biso   1.000  H
  C32      1.0000 0.45280  0.72704  0.19210  Biso   1.000  C
  H20      1.0000 0.43200  0.68630  0.19160  Biso   1.000  H
  C33      1.0000 0.47410  0.60440  0.02610  Biso   1.000  C
  H21      1.0000 0.41000  0.61850  0.04990  Biso   1.000  H
  Co2      1.0000 0.85564  0.05740  0.96941  Biso   1.000  Co
  O5       1.0000 0.99928  0.09090  0.04754  Biso   1.000  O
  O6       1.0000 0.78600  0.35308  0.43983  Biso   1.000  O
  O7       1.0000 0.67360  0.42857  0.38424  Biso   1.000  O
  O8       1.0000 0.16260  0.03315  0.03921  Biso   1.000  O
  N10      1.0000 0.75580  0.05154  0.06659  Biso   1.000  N
  N11      1.0000 0.94710  0.05536  0.86778  Biso   1.000  N
  N12      1.0000 0.55890  0.06201  0.31782  Biso   1.000  N
  H22      1.0000 0.61720  0.08690  0.33640  Biso   1.000  H
  N13      1.0000 0.43970  0.99748  0.24256  Biso   1.000  N
  N14      1.0000 0.38820  0.00443  0.30870  Biso   1.000  N
  C34      1.0000 0.60010  0.32887  0.35080  Biso   1.000  C
  N15      1.0000 0.16550  0.99663  0.56010  Biso   1.000  N
  N16      1.0000 0.21890  0.06514  0.65156  Biso   1.000  N
  H23      1.0000 0.25580  0.09450  0.67940  Biso   1.000  H
  C35      1.0000 0.69080  0.37251  0.39330  Biso   1.000  C
  C36      1.0000 0.58900  0.00414  0.11700  Biso   1.000  C
  H24      1.0000 0.52360  0.97690  0.10890  Biso   1.000  H
  C37      1.0000 0.90030  0.01942  0.80610  Biso   1.000  C
  H25      1.0000 0.82660  0.99930  0.80790  Biso   1.000  H
  N17      1.0000 0.08680  0.98914  0.61270  Biso   1.000  N
  C38      1.0000 0.54170  0.03298  0.24950  Biso   1.000  C
  C39      1.0000 0.61650  0.03810  0.18690  Biso   1.000  C
  C40      1.0000 0.05190  0.08442  0.86260  Biso   1.000  C
  H26      1.0000 0.08650  0.10970  0.90450  Biso   1.000  H
  C41      1.0000 0.11130  0.07878  0.79850  Biso   1.000  C
  H27      1.0000 0.18340  0.10030  0.79710  Biso   1.000  H
  C42      1.0000 0.71490  0.07812  0.19510  Biso   1.000  C
  H28      1.0000 0.73610  0.10100  0.24150  Biso   1.000  H
  C43      1.0000 0.46400  0.04376  0.35230  Biso   1.000  C
  N18      1.0000 0.52010  0.12470  0.54750  Biso   1.000  N
  C44      1.0000 0.66240  0.01239  0.05970  Biso   1.000  C
  H29      1.0000 0.64530  0.98910  0.01350  Biso   1.000  H
  C45      1.0000 0.35160  0.04230  0.46720  Biso   1.000  C
  H30      1.0000 0.29650  0.01380  0.44090  Biso   1.000  H
  C46      1.0000 0.78130  0.08384  0.13400  Biso   1.000  C
  H31      1.0000 0.84630  0.11130  0.14010  Biso   1.000  H
  C47      1.0000 0.22190  0.20689  0.20440  Biso   1.000  C
  H32      1.0000 0.18760  0.23680  0.23180  Biso   1.000  H
  C48      1.0000 0.11230  0.07861  0.06330  Biso   1.000  C
  C49      1.0000 0.19330  0.12226  0.11620  Biso   1.000  C
  C50      1.0000 0.34970  0.20263  0.21360  Biso   1.000  C
  C51      1.0000 0.43400  0.24642  0.26330  Biso   1.000  C
  C52      1.0000 0.06240  0.04066  0.73580  Biso   1.000  C
  C53      1.0000 0.14470  0.16780  0.15570  Biso   1.000  C
  H33      1.0000 0.05940  0.17220  0.14950  Biso   1.000  H
  C54      1.0000 0.40400  0.30676  0.26430  Biso   1.000  C
  H34      1.0000 0.32860  0.32020  0.23560  Biso   1.000  H
  C55      1.0000 0.95430  0.01049  0.74060  Biso   1.000  C
  H35      1.0000 0.91860  0.98440  0.69990  Biso   1.000  H
  C56      1.0000 0.34020  0.06230  0.54230  Biso   1.000  C
  C57      1.0000 0.39620  0.15760  0.17380  Biso   1.000  C
  H36      1.0000 0.48160  0.15400  0.17900  Biso   1.000  H
  C58      1.0000 0.24350  0.04220  0.58430  Biso   1.000  C
  C59      1.0000 0.12410  0.03256  0.66620  Biso   1.000  C
  C60      1.0000 0.48590  0.34783  0.30810  Biso   1.000  C
  H37      1.0000 0.46400  0.38840  0.30890  Biso   1.000  H
  C61      1.0000 0.44450  0.06430  0.43120  Biso   1.000  C
  C62      1.0000 0.62770  0.26741  0.35090  Biso   1.000  C
  H38      1.0000 0.70210  0.25360  0.38060  Biso   1.000  H
  C63      1.0000 0.32130  0.11710  0.12590  Biso   1.000  C
  H39      1.0000 0.35620  0.08640  0.10020  Biso   1.000  H
  C64      1.0000 0.42790  0.10280  0.57870  Biso   1.000  C
  H40      1.0000 0.42170  0.11580  0.62980  Biso   1.000  H
  C65      1.0000 0.54720  0.22704  0.30790  Biso   1.000  C
  H41      1.0000 0.56800  0.18630  0.30840  Biso   1.000  H
  C66      1.0000 0.52590  0.10440  0.47390  Biso   1.000  C
  H42      1.0000 0.59000  0.11850  0.45010  Biso   1.000  H
  Co3      1.0000 0.85564  0.44260  0.46941  Biso   1.000  Co
  O9       1.0000 0.99928  0.40910  0.54754  Biso   1.000  O
  O10      1.0000 0.78600  0.14692  0.93983  Biso   1.000  O
  O11      1.0000 0.67360  0.07143  0.88424  Biso   1.000  O
  O12      1.0000 0.16260  0.46685  0.53921  Biso   1.000  O
  N19      1.0000 0.75580  0.44846  0.56659  Biso   1.000  N
  N20      1.0000 0.94710  0.44464  0.36778  Biso   1.000  N
  N21      1.0000 0.55890  0.43799  0.81782  Biso   1.000  N
  H43      1.0000 0.61720  0.41310  0.83640  Biso   1.000  H
  N22      1.0000 0.43970  0.50252  0.74256  Biso   1.000  N
  N23      1.0000 0.38820  0.49557  0.80870  Biso   1.000  N
  C67      1.0000 0.60010  0.17113  0.85080  Biso   1.000  C
  N24      1.0000 0.16550  0.50337  0.06010  Biso   1.000  N
  N25      1.0000 0.21890  0.43486  0.15156  Biso   1.000  N
  H44      1.0000 0.25580  0.40550  0.17940  Biso   1.000  H
  C68      1.0000 0.69080  0.12749  0.89330  Biso   1.000  C
  C69      1.0000 0.58900  0.49586  0.61700  Biso   1.000  C
  H45      1.0000 0.52360  0.52310  0.60890  Biso   1.000  H
  C70      1.0000 0.90030  0.48058  0.30610  Biso   1.000  C
  H46      1.0000 0.82660  0.50070  0.30790  Biso   1.000  H
  N26      1.0000 0.08680  0.51086  0.11270  Biso   1.000  N
  C71      1.0000 0.54170  0.46702  0.74950  Biso   1.000  C
  C72      1.0000 0.61650  0.46190  0.68690  Biso   1.000  C
  C73      1.0000 0.05190  0.41558  0.36260  Biso   1.000  C
  H47      1.0000 0.08650  0.39030  0.40450  Biso   1.000  H
  C74      1.0000 0.11130  0.42122  0.29850  Biso   1.000  C
  H48      1.0000 0.18340  0.39970  0.29710  Biso   1.000  H
  C75      1.0000 0.71490  0.42188  0.69510  Biso   1.000  C
  H49      1.0000 0.73610  0.39900  0.74150  Biso   1.000  H
  C76      1.0000 0.46400  0.45624  0.85230  Biso   1.000  C
  N27      1.0000 0.52010  0.37530  0.04750  Biso   1.000  N
  C77      1.0000 0.66240  0.48761  0.55970  Biso   1.000  C
  H50      1.0000 0.64530  0.51090  0.51350  Biso   1.000  H
  C78      1.0000 0.35160  0.45770  0.96720  Biso   1.000  C
  H51      1.0000 0.29650  0.48620  0.94090  Biso   1.000  H
  C79      1.0000 0.78130  0.41616  0.63400  Biso   1.000  C
  H52      1.0000 0.84630  0.38870  0.64010  Biso   1.000  H
  C80      1.0000 0.22190  0.29311  0.70440  Biso   1.000  C
  H53      1.0000 0.18760  0.26320  0.73180  Biso   1.000  H
  C81      1.0000 0.11230  0.42139  0.56330  Biso   1.000  C
  C82      1.0000 0.19330  0.37774  0.61620  Biso   1.000  C
  C83      1.0000 0.34970  0.29737  0.71360  Biso   1.000  C
  C84      1.0000 0.43400  0.25358  0.76330  Biso   1.000  C
  C85      1.0000 0.06240  0.45934  0.23580  Biso   1.000  C
  C86      1.0000 0.14470  0.33220  0.65570  Biso   1.000  C
  H54      1.0000 0.05940  0.32780  0.64950  Biso   1.000  H
  C87      1.0000 0.40400  0.19324  0.76430  Biso   1.000  C
  H55      1.0000 0.32860  0.17980  0.73560  Biso   1.000  H
  C88      1.0000 0.95430  0.48951  0.24060  Biso   1.000  C
  H56      1.0000 0.91860  0.51560  0.19990  Biso   1.000  H
  C89      1.0000 0.34020  0.43770  0.04230  Biso   1.000  C
  C90      1.0000 0.39620  0.34240  0.67380  Biso   1.000  C
  H57      1.0000 0.48160  0.34600  0.67900  Biso   1.000  H
  C91      1.0000 0.24350  0.45780  0.08430  Biso   1.000  C
  C92      1.0000 0.12410  0.46744  0.16620  Biso   1.000  C
  C93      1.0000 0.48590  0.15217  0.80810  Biso   1.000  C
  H58      1.0000 0.46400  0.11160  0.80890  Biso   1.000  H
  C94      1.0000 0.44450  0.43570  0.93120  Biso   1.000  C
  C95      1.0000 0.62770  0.23259  0.85090  Biso   1.000  C
  H59      1.0000 0.70210  0.24640  0.88060  Biso   1.000  H
  C96      1.0000 0.32130  0.38290  0.62590  Biso   1.000  C
  H60      1.0000 0.35620  0.41360  0.60020  Biso   1.000  H
  C97      1.0000 0.42790  0.39720  0.07870  Biso   1.000  C
  H61      1.0000 0.42170  0.38420  0.12980  Biso   1.000  H
  C98      1.0000 0.54720  0.27296  0.80790  Biso   1.000  C
  H62      1.0000 0.56800  0.31370  0.80840  Biso   1.000  H
  C99      1.0000 0.52590  0.39560  0.97390  Biso   1.000  C
  H63      1.0000 0.59000  0.38150  0.95010  Biso   1.000  H
  Co4      1.0000 0.14436  0.94260  0.03059  Biso   1.000  Co
  O13      1.0000 0.00072  0.90910  0.95246  Biso   1.000  O
  O14      1.0000 0.21400  0.64692  0.56017  Biso   1.000  O
  O15      1.0000 0.32640  0.57143  0.61576  Biso   1.000  O
  O16      1.0000 0.83740  0.96685  0.96079  Biso   1.000  O
  N28      1.0000 0.24420  0.94846  0.93341  Biso   1.000  N
  N29      1.0000 0.05290  0.94464  0.13222  Biso   1.000  N
  N30      1.0000 0.44110  0.93799  0.68218  Biso   1.000  N
  H64      1.0000 0.38280  0.91310  0.66360  Biso   1.000  H
  N31      1.0000 0.56030  0.00252  0.75744  Biso   1.000  N
  N32      1.0000 0.61180  0.99557  0.69130  Biso   1.000  N
  C100     1.0000 0.39990  0.67113  0.64920  Biso   1.000  C
  N33      1.0000 0.83450  0.00337  0.43990  Biso   1.000  N
  N34      1.0000 0.78110  0.93486  0.34844  Biso   1.000  N
  H65      1.0000 0.74420  0.90550  0.32060  Biso   1.000  H
  C101     1.0000 0.30920  0.62749  0.60670  Biso   1.000  C
  C102     1.0000 0.41100  0.99586  0.88300  Biso   1.000  C
  H66      1.0000 0.47640  0.02310  0.89110  Biso   1.000  H
  C103     1.0000 0.09970  0.98058  0.19390  Biso   1.000  C
  H67      1.0000 0.17340  0.00070  0.19210  Biso   1.000  H
  N35      1.0000 0.91320  0.01086  0.38730  Biso   1.000  N
  C104     1.0000 0.45830  0.96702  0.75050  Biso   1.000  C
  C105     1.0000 0.38350  0.96190  0.81310  Biso   1.000  C
  C106     1.0000 0.94810  0.91558  0.13740  Biso   1.000  C
  H68      1.0000 0.91350  0.89030  0.09550  Biso   1.000  H
  C107     1.0000 0.88870  0.92122  0.20150  Biso   1.000  C
  H69      1.0000 0.81660  0.89970  0.20290  Biso   1.000  H
  C108     1.0000 0.28510  0.92188  0.80490  Biso   1.000  C
  H70      1.0000 0.26390  0.89900  0.75850  Biso   1.000  H
  C109     1.0000 0.53600  0.95624  0.64770  Biso   1.000  C
  N36      1.0000 0.47990  0.87530  0.45250  Biso   1.000  N
  C110     1.0000 0.33760  0.98761  0.94030  Biso   1.000  C
  H71      1.0000 0.35470  0.01090  0.98650  Biso   1.000  H
  C111     1.0000 0.64840  0.95770  0.53280  Biso   1.000  C
  H72      1.0000 0.70350  0.98620  0.55910  Biso   1.000  H
  C112     1.0000 0.21870  0.91616  0.86600  Biso   1.000  C
  H73      1.0000 0.15370  0.88870  0.85990  Biso   1.000  H
  C113     1.0000 0.77810  0.79311  0.79560  Biso   1.000  C
  H74      1.0000 0.81240  0.76320  0.76820  Biso   1.000  H
  C114     1.0000 0.88770  0.92139  0.93670  Biso   1.000  C
  C115     1.0000 0.80670  0.87774  0.88380  Biso   1.000  C
  C116     1.0000 0.65030  0.79737  0.78640  Biso   1.000  C
  C117     1.0000 0.56600  0.75358  0.73670  Biso   1.000  C
  C118     1.0000 0.93760  0.95934  0.26420  Biso   1.000  C
  C119     1.0000 0.85530  0.83220  0.84430  Biso   1.000  C
  H75      1.0000 0.94060  0.82780  0.85050  Biso   1.000  H
  C120     1.0000 0.59600  0.69324  0.73570  Biso   1.000  C
  H76      1.0000 0.67140  0.67980  0.76440  Biso   1.000  H
  C121     1.0000 0.04570  0.98951  0.25940  Biso   1.000  C
  H77      1.0000 0.08140  0.01560  0.30010  Biso   1.000  H
  C122     1.0000 0.65980  0.93770  0.45770  Biso   1.000  C
  C123     1.0000 0.60380  0.84240  0.82620  Biso   1.000  C
  H78      1.0000 0.51840  0.84600  0.82100  Biso   1.000  H
  C124     1.0000 0.75650  0.95780  0.41570  Biso   1.000  C
  C125     1.0000 0.87590  0.96744  0.33380  Biso   1.000  C
  C126     1.0000 0.51410  0.65217  0.69190  Biso   1.000  C
  H79      1.0000 0.53600  0.61160  0.69110  Biso   1.000  H
  C127     1.0000 0.55550  0.93570  0.56880  Biso   1.000  C
  C128     1.0000 0.37230  0.73259  0.64910  Biso   1.000  C
  H80      1.0000 0.29790  0.74640  0.61940  Biso   1.000  H
  C129     1.0000 0.67870  0.88290  0.87410  Biso   1.000  C
  H81      1.0000 0.64380  0.91360  0.89980  Biso   1.000  H
  C130     1.0000 0.57210  0.89720  0.42130  Biso   1.000  C
  H82      1.0000 0.57830  0.88420  0.37020  Biso   1.000  H
  C131     1.0000 0.45280  0.77296  0.69210  Biso   1.000  C
  H83      1.0000 0.43200  0.81370  0.69160  Biso   1.000  H
  C132     1.0000 0.47410  0.89560  0.52610  Biso   1.000  C
  H84      1.0000 0.41000  0.88150  0.54990  Biso   1.000  H
