data_image0
_cell_length_a       18.927
_cell_length_b       18.927
_cell_length_c       24.693
_cell_angle_alpha    90
_cell_angle_beta     90
_cell_angle_gamma    120

_symmetry_space_group_name_H-M    "P 1"
_symmetry_int_tables_number       1

loop_
  _symmetry_equiv_pos_as_xyz
  'x, y, z'

loop_
  _atom_site_label
  _atom_site_occupancy
  _atom_site_fract_x
  _atom_site_fract_y
  _atom_site_fract_z
  _atom_site_thermal_displace_type
  _atom_site_B_iso_or_equiv
  _atom_site_type_symbol
  Fe1      1.0000 0.31929  0.53847  0.70848  Biso   1.000  Fe
  O1       1.0000 0.35430  0.50640  0.64501  Biso   1.000  O
  O2       1.0000 0.37640  0.50380  0.76210  Biso   1.000  O
  O3       1.0000 0.21450  0.42880  0.71260  Biso   1.000  O
  O4       1.0000 0.25640  0.58580  0.67002  Biso   1.000  O
  O5       1.0000 0.42010  0.65150  0.70970  Biso   1.000  O
  O6       1.0000 0.27960  0.57380  0.77270  Biso   1.000  O
  Fe2      1.0000 0.36354  0.41098  0.64721  Biso   1.000  Fe
  Fe3      1.0000 0.37943  0.57017  0.58114  Biso   1.000  Fe
  C1       1.0000 0.42640  0.47930  0.75700  Biso   1.000  C
  C2       1.0000 0.20740  0.36030  0.70830  Biso   1.000  C
  C3       1.0000 0.24420  0.59370  0.62070  Biso   1.000  C
  C4       1.0000 0.45700  0.69670  0.66920  Biso   1.000  C
  C5       1.0000 0.24630  0.55130  0.81830  Biso   1.000  C
  O7       1.0000 0.38000  0.31410  0.64560  Biso   1.000  O
  O8       1.0000 0.43510  0.44670  0.71440  Biso   1.000  O
  O9       1.0000 0.26290  0.34640  0.69250  Biso   1.000  O
  O10      1.0000 0.29460  0.36330  0.57950  Biso   1.000  O
  O11      1.0000 0.47010  0.45890  0.60440  Biso   1.000  O
  O12      1.0000 0.27510  0.57640  0.58111  Biso   1.000  O
  O13      1.0000 0.43700  0.67700  0.62080  Biso   1.000  O
  O14      1.0000 0.32110  0.47280  0.53080  Biso   1.000  O
  O15      1.0000 0.48940  0.57780  0.57110  Biso   1.000  O
  O16      1.0000 0.22840  0.59820  0.84390  Biso   1.000  O
  C6       1.0000 0.47680  0.48690  0.80530  Biso   1.000  C
  C7       1.0000 0.12980  0.28730  0.72510  Biso   1.000  C
  C8       1.0000 0.18930  0.62840  0.60910  Biso   1.000  C
  C9       1.0000 0.52770  0.77880  0.68060  Biso   1.000  C
  C10      1.0000 0.22410  0.46990  0.84150  Biso   1.000  C
  C11      1.0000 0.34930  0.23930  0.65250  Biso   1.000  C
  C12      1.0000 0.28480  0.39620  0.53870  Biso   1.000  C
  C13      1.0000 0.51370  0.52780  0.58250  Biso   1.000  C
  H1       1.0000 0.51270  0.46640  0.79680  Biso   1.000  H
  H2       1.0000 0.50840  0.54320  0.81570  Biso   1.000  H
  H3       1.0000 0.44170  0.45600  0.83470  Biso   1.000  H
  H4       1.0000 0.13360  0.23910  0.71940  Biso   1.000  H
  H5       1.0000 0.12000  0.29170  0.76280  Biso   1.000  H
  H6       1.0000 0.08560  0.28390  0.70400  Biso   1.000  H
  H7       1.0000 0.17030  0.63860  0.64260  Biso   1.000  H
  H8       1.0000 0.21910  0.67850  0.58930  Biso   1.000  H
  H9       1.0000 0.14350  0.59000  0.58800  Biso   1.000  H
  H10      1.0000 0.53630  0.78580  0.71900  Biso   1.000  H
  H11      1.0000 0.57570  0.78380  0.66360  Biso   1.000  H
  H12      1.0000 0.51700  0.81980  0.66650  Biso   1.000  H
  H13      1.0000 0.19940  0.46400  0.87640  Biso   1.000  H
  H14      1.0000 0.18630  0.42760  0.81780  Biso   1.000  H
  H15      1.0000 0.27240  0.46570  0.84520  Biso   1.000  H
  O17      1.0000 0.39220  0.20730  0.65450  Biso   1.000  O
  C14      1.0000 0.25500  0.18670  0.65000  Biso   1.000  C
  C15      1.0000 0.22790  0.34200  0.49480  Biso   1.000  C
  C16      1.0000 0.60030  0.55300  0.56930  Biso   1.000  C
  Fe4      1.0000 0.39020  0.09962  0.66128  Biso   1.000  Fe
  H16      1.0000 0.23200  0.22180  0.64860  Biso   1.000  H
  H17      1.0000 0.23930  0.15300  0.61820  Biso   1.000  H
  H18      1.0000 0.23540  0.15280  0.68160  Biso   1.000  H
  H19      1.0000 0.22610  0.37520  0.46600  Biso   1.000  H
  H20      1.0000 0.24730  0.30740  0.48100  Biso   1.000  H
  H21      1.0000 0.17420  0.30910  0.50960  Biso   1.000  H
  H22      1.0000 0.62640  0.60610  0.55300  Biso   1.000  H
  H23      1.0000 0.62860  0.55450  0.60190  Biso   1.000  H
  H24      1.0000 0.60130  0.51440  0.54450  Biso   1.000  H
  O18      1.0000 0.29680  0.06650  0.71380  Biso   1.000  O
  O19      1.0000 0.48680  0.15860  0.60850  Biso   1.000  O
  O20      1.0000 0.46740  0.15160  0.72410  Biso   1.000  O
  O21      1.0000 0.25190  0.93650  0.73730  Biso   1.000  O
  C17      1.0000 0.25750  0.00520  0.74460  Biso   1.000  C
  C18      1.0000 0.53610  0.13970  0.58890  Biso   1.000  C
  C19      1.0000 0.52520  0.14210  0.74010  Biso   1.000  C
  O22      1.0000 0.54100  0.07800  0.60360  Biso   1.000  O
  O23      1.0000 0.54510  0.09360  0.72040  Biso   1.000  O
  C20      1.0000 0.21090  0.01420  0.79070  Biso   1.000  C
  C21      1.0000 0.59480  0.19550  0.54680  Biso   1.000  C
  C22      1.0000 0.57390  0.19670  0.78630  Biso   1.000  C
  H25      1.0000 0.22070  0.06910  0.79150  Biso   1.000  H
  H26      1.0000 0.15370  0.97690  0.78580  Biso   1.000  H
  H27      1.0000 0.22870  0.00240  0.82420  Biso   1.000  H
  H28      1.0000 0.62900  0.17440  0.53510  Biso   1.000  H
  H29      1.0000 0.56490  0.19880  0.51650  Biso   1.000  H
  H30      1.0000 0.62790  0.24880  0.56210  Biso   1.000  H
  H31      1.0000 0.55110  0.23000  0.79670  Biso   1.000  H
  H32      1.0000 0.57210  0.16390  0.81650  Biso   1.000  H
  H33      1.0000 0.62950  0.23100  0.77510  Biso   1.000  H
  O24      1.0000 0.59930  0.99790  0.65290  Biso   1.000  O
  H34      1.0000 0.63760  0.99970  0.67200  Biso   1.000  H
  H35      1.0000 0.61000  0.99500  0.61980  Biso   1.000  H
  Fe5      1.0000 0.46153  0.78082  0.37515  Biso   1.000  Fe
  O25      1.0000 0.49360  0.84790  0.31168  Biso   1.000  O
  O26      1.0000 0.49620  0.87260  0.42877  Biso   1.000  O
  O27      1.0000 0.57120  0.78570  0.37927  Biso   1.000  O
  O28      1.0000 0.41420  0.67060  0.33669  Biso   1.000  O
  O29      1.0000 0.34850  0.76860  0.37637  Biso   1.000  O
  O30      1.0000 0.42620  0.70580  0.43937  Biso   1.000  O
  Fe6      1.0000 0.58902  0.95256  0.31388  Biso   1.000  Fe
  Fe7      1.0000 0.42983  0.80926  0.24781  Biso   1.000  Fe
  C23      1.0000 0.52070  0.94710  0.42367  Biso   1.000  C
  C24      1.0000 0.63970  0.84710  0.37497  Biso   1.000  C
  C25      1.0000 0.40630  0.65050  0.28737  Biso   1.000  C
  C26      1.0000 0.30330  0.76030  0.33587  Biso   1.000  C
  C27      1.0000 0.44870  0.69500  0.48497  Biso   1.000  C
  O31      1.0000 0.68590  0.06590  0.31227  Biso   1.000  O
  O32      1.0000 0.55330  0.98840  0.38107  Biso   1.000  O
  O33      1.0000 0.65360  0.91650  0.35917  Biso   1.000  O
  O34      1.0000 0.63670  0.93130  0.24617  Biso   1.000  O
  O35      1.0000 0.54110  0.01120  0.27107  Biso   1.000  O
  O36      1.0000 0.42360  0.69870  0.24778  Biso   1.000  O
  O37      1.0000 0.32300  0.76000  0.28747  Biso   1.000  O
  O38      1.0000 0.52720  0.84830  0.19747  Biso   1.000  O
  O39      1.0000 0.42220  0.91160  0.23777  Biso   1.000  O
  O40      1.0000 0.40180  0.63020  0.51057  Biso   1.000  O
  C28      1.0000 0.51310  0.98990  0.47197  Biso   1.000  C
  C29      1.0000 0.71270  0.84250  0.39177  Biso   1.000  C
  C30      1.0000 0.37160  0.56090  0.27577  Biso   1.000  C
  C31      1.0000 0.22120  0.74890  0.34727  Biso   1.000  C
  C32      1.0000 0.53010  0.75420  0.50817  Biso   1.000  C
  C33      1.0000 0.76070  0.11000  0.31917  Biso   1.000  C
  C34      1.0000 0.60380  0.88860  0.20537  Biso   1.000  C
  C35      1.0000 0.47220  0.98590  0.24917  Biso   1.000  C
  H36      1.0000 0.53360  0.04630  0.46347  Biso   1.000  H
  H37      1.0000 0.45680  0.96520  0.48237  Biso   1.000  H
  H38      1.0000 0.54400  0.98570  0.50137  Biso   1.000  H
  H39      1.0000 0.76090  0.89450  0.38607  Biso   1.000  H
  H40      1.0000 0.70830  0.82830  0.42947  Biso   1.000  H
  H41      1.0000 0.71610  0.80170  0.37067  Biso   1.000  H
  H42      1.0000 0.36140  0.53170  0.30927  Biso   1.000  H
  H43      1.0000 0.32150  0.54060  0.25597  Biso   1.000  H
  H44      1.0000 0.41000  0.55350  0.25467  Biso   1.000  H
  H45      1.0000 0.21420  0.75050  0.38567  Biso   1.000  H
  H46      1.0000 0.21620  0.79190  0.33027  Biso   1.000  H
  H47      1.0000 0.18020  0.69720  0.33317  Biso   1.000  H
  H48      1.0000 0.53600  0.73540  0.54307  Biso   1.000  H
  H49      1.0000 0.57240  0.75870  0.48447  Biso   1.000  H
  H50      1.0000 0.53430  0.80670  0.51187  Biso   1.000  H
  O41      1.0000 0.79270  0.18490  0.32117  Biso   1.000  O
  C36      1.0000 0.81330  0.06830  0.31667  Biso   1.000  C
  C37      1.0000 0.65800  0.88590  0.16147  Biso   1.000  C
  C38      1.0000 0.44700  0.04730  0.23597  Biso   1.000  C
  Fe8      1.0000 0.90038  0.29058  0.32795  Biso   1.000  Fe
  H51      1.0000 0.77820  0.01020  0.31527  Biso   1.000  H
  H52      1.0000 0.84700  0.08630  0.28487  Biso   1.000  H
  H53      1.0000 0.84720  0.08260  0.34827  Biso   1.000  H
  H54      1.0000 0.62480  0.85090  0.13267  Biso   1.000  H
  H55      1.0000 0.69260  0.93990  0.14767  Biso   1.000  H
  H56      1.0000 0.69090  0.86510  0.17627  Biso   1.000  H
  H57      1.0000 0.39390  0.02030  0.21967  Biso   1.000  H
  H58      1.0000 0.44550  0.07410  0.26857  Biso   1.000  H
  H59      1.0000 0.48560  0.08690  0.21117  Biso   1.000  H
  O42      1.0000 0.93350  0.23030  0.38047  Biso   1.000  O
  O43      1.0000 0.84140  0.32820  0.27517  Biso   1.000  O
  O44      1.0000 0.84840  0.31580  0.39077  Biso   1.000  O
  O45      1.0000 0.06350  0.31540  0.40397  Biso   1.000  O
  C39      1.0000 0.99480  0.25230  0.41127  Biso   1.000  C
  C40      1.0000 0.86030  0.39640  0.25557  Biso   1.000  C
  C41      1.0000 0.85790  0.38310  0.40677  Biso   1.000  C
  O46      1.0000 0.92200  0.46300  0.27027  Biso   1.000  O
  O47      1.0000 0.90640  0.45150  0.38707  Biso   1.000  O
  C42      1.0000 0.98580  0.19670  0.45737  Biso   1.000  C
  C43      1.0000 0.80450  0.39930  0.21347  Biso   1.000  C
  C44      1.0000 0.80330  0.37720  0.45297  Biso   1.000  C
  H60      1.0000 0.93090  0.15160  0.45817  Biso   1.000  H
  H61      1.0000 0.02310  0.17680  0.45247  Biso   1.000  H
  H62      1.0000 0.99760  0.22630  0.49087  Biso   1.000  H
  H63      1.0000 0.82560  0.45460  0.20177  Biso   1.000  H
  H64      1.0000 0.80120  0.36610  0.18317  Biso   1.000  H
  H65      1.0000 0.75120  0.37910  0.22877  Biso   1.000  H
  H66      1.0000 0.77000  0.32110  0.46337  Biso   1.000  H
  H67      1.0000 0.83610  0.40820  0.48317  Biso   1.000  H
  H68      1.0000 0.76900  0.39850  0.44177  Biso   1.000  H
  O48      1.0000 0.00210  0.60140  0.31957  Biso   1.000  O
  H69      1.0000 0.00030  0.63790  0.33867  Biso   1.000  H
  H70      1.0000 0.00500  0.61500  0.28647  Biso   1.000  H
  Fe9      1.0000 0.21918  0.68071  0.04181  Biso   1.000  Fe
  O49      1.0000 0.15210  0.64570  0.97834  Biso   1.000  O
  O50      1.0000 0.12740  0.62360  0.09543  Biso   1.000  O
  O51      1.0000 0.21430  0.78550  0.04593  Biso   1.000  O
  O52      1.0000 0.32940  0.74360  0.00335  Biso   1.000  O
  O53      1.0000 0.23140  0.57990  0.04303  Biso   1.000  O
  O54      1.0000 0.29420  0.72040  0.10603  Biso   1.000  O
  Fe10     1.0000 0.04744  0.63646  0.98054  Biso   1.000  Fe
  Fe11     1.0000 0.19074  0.62057  0.91447  Biso   1.000  Fe
  C45      1.0000 0.05290  0.57360  0.09033  Biso   1.000  C
  C46      1.0000 0.15290  0.79260  0.04163  Biso   1.000  C
  C47      1.0000 0.34950  0.75580  0.95403  Biso   1.000  C
  C48      1.0000 0.23970  0.54300  0.00253  Biso   1.000  C
  C49      1.0000 0.30500  0.75370  0.15163  Biso   1.000  C
  O55      1.0000 0.93410  0.62000  0.97893  Biso   1.000  O
  O56      1.0000 0.01160  0.56490  0.04773  Biso   1.000  O
  O57      1.0000 0.08350  0.73710  0.02583  Biso   1.000  O
  O58      1.0000 0.06870  0.70540  0.91283  Biso   1.000  O
  O59      1.0000 0.98880  0.52990  0.93773  Biso   1.000  O
  O60      1.0000 0.30130  0.72490  0.91444  Biso   1.000  O
  O61      1.0000 0.24000  0.56300  0.95413  Biso   1.000  O
  O62      1.0000 0.15170  0.67890  0.86413  Biso   1.000  O
  O63      1.0000 0.08840  0.51060  0.90443  Biso   1.000  O
  O64      1.0000 0.36980  0.77160  0.17723  Biso   1.000  O
  C50      1.0000 0.01010  0.52320  0.13863  Biso   1.000  C
  C51      1.0000 0.15750  0.87020  0.05843  Biso   1.000  C
  C52      1.0000 0.43910  0.81070  0.94243  Biso   1.000  C
  C53      1.0000 0.25110  0.47230  0.01393  Biso   1.000  C
  C54      1.0000 0.24580  0.77590  0.17483  Biso   1.000  C
  C55      1.0000 0.89000  0.65070  0.98583  Biso   1.000  C
  C56      1.0000 0.11140  0.71520  0.87203  Biso   1.000  C
  C57      1.0000 0.01410  0.48630  0.91583  Biso   1.000  C
  H71      1.0000 0.95370  0.48730  0.13013  Biso   1.000  H
  H72      1.0000 0.03480  0.49160  0.14903  Biso   1.000  H
  H73      1.0000 0.01430  0.55830  0.16803  Biso   1.000  H
  H74      1.0000 0.10550  0.86640  0.05273  Biso   1.000  H
  H75      1.0000 0.17170  0.88000  0.09613  Biso   1.000  H
  H76      1.0000 0.19830  0.91440  0.03733  Biso   1.000  H
  H77      1.0000 0.46830  0.82970  0.97593  Biso   1.000  H
  H78      1.0000 0.45940  0.78090  0.92263  Biso   1.000  H
  H79      1.0000 0.44650  0.85650  0.92133  Biso   1.000  H
  H80      1.0000 0.24950  0.46370  0.05233  Biso   1.000  H
  H81      1.0000 0.20810  0.42430  0.99693  Biso   1.000  H
  H82      1.0000 0.30280  0.48300  0.99983  Biso   1.000  H
  H83      1.0000 0.26460  0.80060  0.20973  Biso   1.000  H
  H84      1.0000 0.24130  0.81370  0.15113  Biso   1.000  H
  H85      1.0000 0.19330  0.72760  0.17853  Biso   1.000  H
  O65      1.0000 0.81510  0.60780  0.98783  Biso   1.000  O
  C58      1.0000 0.93170  0.74500  0.98333  Biso   1.000  C
  C59      1.0000 0.11410  0.77210  0.82813  Biso   1.000  C
  C60      1.0000 0.95270  0.39970  0.90263  Biso   1.000  C
  Fe12     1.0000 0.70942  0.60980  0.99461  Biso   1.000  Fe
  H86      1.0000 0.98980  0.76800  0.98193  Biso   1.000  H
  H87      1.0000 0.91370  0.76070  0.95153  Biso   1.000  H
  H88      1.0000 0.91740  0.76460  0.01493  Biso   1.000  H
  H89      1.0000 0.14910  0.77390  0.79933  Biso   1.000  H
  H90      1.0000 0.06010  0.75270  0.81433  Biso   1.000  H
  H91      1.0000 0.13490  0.82580  0.84293  Biso   1.000  H
  H92      1.0000 0.97970  0.37360  0.88633  Biso   1.000  H
  H93      1.0000 0.92590  0.37140  0.93523  Biso   1.000  H
  H94      1.0000 0.91310  0.39870  0.87783  Biso   1.000  H
  O66      1.0000 0.76970  0.70320  0.04713  Biso   1.000  O
  O67      1.0000 0.67180  0.51320  0.94183  Biso   1.000  O
  O68      1.0000 0.68420  0.53260  0.05743  Biso   1.000  O
  O69      1.0000 0.68460  0.74810  0.07063  Biso   1.000  O
  C61      1.0000 0.74770  0.74250  0.07793  Biso   1.000  C
  C62      1.0000 0.60360  0.46390  0.92223  Biso   1.000  C
  C63      1.0000 0.61690  0.47480  0.07343  Biso   1.000  C
  O70      1.0000 0.53700  0.45900  0.93693  Biso   1.000  O
  O71      1.0000 0.54850  0.45490  0.05373  Biso   1.000  O
  C64      1.0000 0.80330  0.78910  0.12403  Biso   1.000  C
  C65      1.0000 0.60070  0.40520  0.88013  Biso   1.000  C
  C66      1.0000 0.62280  0.42610  0.11963  Biso   1.000  C
  H95      1.0000 0.84840  0.77930  0.12483  Biso   1.000  H
  H96      1.0000 0.82320  0.84630  0.11913  Biso   1.000  H
  H97      1.0000 0.77370  0.77130  0.15753  Biso   1.000  H
  H98      1.0000 0.54540  0.37100  0.86843  Biso   1.000  H
  H99      1.0000 0.63390  0.43510  0.84983  Biso   1.000  H
  H100     1.0000 0.62090  0.37210  0.89543  Biso   1.000  H
  H101     1.0000 0.67890  0.44890  0.13003  Biso   1.000  H
  H102     1.0000 0.59180  0.42790  0.14983  Biso   1.000  H
  H103     1.0000 0.60150  0.37050  0.10843  Biso   1.000  H
  O72      1.0000 0.39860  0.40070  0.98623  Biso   1.000  O
  H104     1.0000 0.36210  0.36240  0.00533  Biso   1.000  H
  H105     1.0000 0.38500  0.39000  0.95313  Biso   1.000  H
  Fe13     1.0000 0.53847  0.31929  0.29152  Biso   1.000  Fe
  O73      1.0000 0.50640  0.35430  0.35499  Biso   1.000  O
  O74      1.0000 0.50380  0.37640  0.23790  Biso   1.000  O
  O75      1.0000 0.42880  0.21450  0.28740  Biso   1.000  O
  O76      1.0000 0.58580  0.25640  0.32998  Biso   1.000  O
  O77      1.0000 0.65150  0.42010  0.29030  Biso   1.000  O
  O78      1.0000 0.57380  0.27960  0.22730  Biso   1.000  O
  Fe14     1.0000 0.41098  0.36354  0.35279  Biso   1.000  Fe
  Fe15     1.0000 0.57017  0.37943  0.41886  Biso   1.000  Fe
  C67      1.0000 0.47930  0.42640  0.24300  Biso   1.000  C
  C68      1.0000 0.36030  0.20740  0.29170  Biso   1.000  C
  C69      1.0000 0.59370  0.24420  0.37930  Biso   1.000  C
  C70      1.0000 0.69670  0.45700  0.33080  Biso   1.000  C
  C71      1.0000 0.55130  0.24630  0.18170  Biso   1.000  C
  O79      1.0000 0.31410  0.38000  0.35440  Biso   1.000  O
  O80      1.0000 0.44670  0.43510  0.28560  Biso   1.000  O
  O81      1.0000 0.34640  0.26290  0.30750  Biso   1.000  O
  O82      1.0000 0.36330  0.29460  0.42050  Biso   1.000  O
  O83      1.0000 0.45890  0.47010  0.39560  Biso   1.000  O
  O84      1.0000 0.57640  0.27510  0.41889  Biso   1.000  O
  O85      1.0000 0.67700  0.43700  0.37920  Biso   1.000  O
  O86      1.0000 0.47280  0.32110  0.46920  Biso   1.000  O
  O87      1.0000 0.57780  0.48940  0.42890  Biso   1.000  O
  O88      1.0000 0.59820  0.22840  0.15610  Biso   1.000  O
  C72      1.0000 0.48690  0.47680  0.19470  Biso   1.000  C
  C73      1.0000 0.28730  0.12980  0.27490  Biso   1.000  C
  C74      1.0000 0.62840  0.18930  0.39090  Biso   1.000  C
  C75      1.0000 0.77880  0.52770  0.31940  Biso   1.000  C
  C76      1.0000 0.46990  0.22410  0.15850  Biso   1.000  C
  C77      1.0000 0.23930  0.34930  0.34750  Biso   1.000  C
  C78      1.0000 0.39620  0.28480  0.46130  Biso   1.000  C
  C79      1.0000 0.52780  0.51370  0.41750  Biso   1.000  C
  H106     1.0000 0.46640  0.51270  0.20320  Biso   1.000  H
  H107     1.0000 0.54320  0.50840  0.18430  Biso   1.000  H
  H108     1.0000 0.45600  0.44170  0.16530  Biso   1.000  H
  H109     1.0000 0.23910  0.13360  0.28060  Biso   1.000  H
  H110     1.0000 0.29170  0.12000  0.23720  Biso   1.000  H
  H111     1.0000 0.28390  0.08560  0.29600  Biso   1.000  H
  H112     1.0000 0.63860  0.17030  0.35740  Biso   1.000  H
  H113     1.0000 0.67850  0.21910  0.41070  Biso   1.000  H
  H114     1.0000 0.59000  0.14350  0.41200  Biso   1.000  H
  H115     1.0000 0.78580  0.53630  0.28100  Biso   1.000  H
  H116     1.0000 0.78380  0.57570  0.33640  Biso   1.000  H
  H117     1.0000 0.81980  0.51700  0.33350  Biso   1.000  H
  H118     1.0000 0.46400  0.19940  0.12360  Biso   1.000  H
  H119     1.0000 0.42760  0.18630  0.18220  Biso   1.000  H
  H120     1.0000 0.46570  0.27240  0.15480  Biso   1.000  H
  O89      1.0000 0.20730  0.39220  0.34550  Biso   1.000  O
  C80      1.0000 0.18670  0.25500  0.35000  Biso   1.000  C
  C81      1.0000 0.34200  0.22790  0.50520  Biso   1.000  C
  C82      1.0000 0.55300  0.60030  0.43070  Biso   1.000  C
  Fe16     1.0000 0.09962  0.39020  0.33872  Biso   1.000  Fe
  H121     1.0000 0.22180  0.23200  0.35140  Biso   1.000  H
  H122     1.0000 0.15300  0.23930  0.38180  Biso   1.000  H
  H123     1.0000 0.15280  0.23540  0.31840  Biso   1.000  H
  H124     1.0000 0.37520  0.22610  0.53400  Biso   1.000  H
  H125     1.0000 0.30740  0.24730  0.51900  Biso   1.000  H
  H126     1.0000 0.30910  0.17420  0.49040  Biso   1.000  H
  H127     1.0000 0.60610  0.62640  0.44700  Biso   1.000  H
  H128     1.0000 0.55450  0.62860  0.39810  Biso   1.000  H
  H129     1.0000 0.51440  0.60130  0.45550  Biso   1.000  H
  O90      1.0000 0.06650  0.29680  0.28620  Biso   1.000  O
  O91      1.0000 0.15860  0.48680  0.39150  Biso   1.000  O
  O92      1.0000 0.15160  0.46740  0.27590  Biso   1.000  O
  O93      1.0000 0.93650  0.25190  0.26270  Biso   1.000  O
  C83      1.0000 0.00520  0.25750  0.25540  Biso   1.000  C
  C84      1.0000 0.13970  0.53610  0.41110  Biso   1.000  C
  C85      1.0000 0.14210  0.52520  0.25990  Biso   1.000  C
  O94      1.0000 0.07800  0.54100  0.39640  Biso   1.000  O
  O95      1.0000 0.09360  0.54510  0.27960  Biso   1.000  O
  C86      1.0000 0.01420  0.21090  0.20930  Biso   1.000  C
  C87      1.0000 0.19550  0.59480  0.45320  Biso   1.000  C
  C88      1.0000 0.19670  0.57390  0.21370  Biso   1.000  C
  H130     1.0000 0.06910  0.22070  0.20850  Biso   1.000  H
  H131     1.0000 0.97690  0.15370  0.21420  Biso   1.000  H
  H132     1.0000 0.00240  0.22870  0.17580  Biso   1.000  H
  H133     1.0000 0.17440  0.62900  0.46490  Biso   1.000  H
  H134     1.0000 0.19880  0.56490  0.48350  Biso   1.000  H
  H135     1.0000 0.24880  0.62790  0.43790  Biso   1.000  H
  H136     1.0000 0.23000  0.55110  0.20330  Biso   1.000  H
  H137     1.0000 0.16390  0.57210  0.18350  Biso   1.000  H
  H138     1.0000 0.23100  0.62950  0.22490  Biso   1.000  H
  O96      1.0000 0.99790  0.59930  0.34710  Biso   1.000  O
  H139     1.0000 0.99970  0.63760  0.32800  Biso   1.000  H
  H140     1.0000 0.99500  0.61000  0.38020  Biso   1.000  H
  Fe17     1.0000 0.78082  0.46153  0.62485  Biso   1.000  Fe
  O97      1.0000 0.84790  0.49360  0.68832  Biso   1.000  O
  O98      1.0000 0.87260  0.49620  0.57123  Biso   1.000  O
  O99      1.0000 0.78570  0.57120  0.62073  Biso   1.000  O
  O100     1.0000 0.67060  0.41420  0.66331  Biso   1.000  O
  O101     1.0000 0.76860  0.34850  0.62363  Biso   1.000  O
  O102     1.0000 0.70580  0.42620  0.56063  Biso   1.000  O
  Fe18     1.0000 0.95256  0.58902  0.68612  Biso   1.000  Fe
  Fe19     1.0000 0.80926  0.42983  0.75219  Biso   1.000  Fe
  C89      1.0000 0.94710  0.52070  0.57633  Biso   1.000  C
  C90      1.0000 0.84710  0.63970  0.62503  Biso   1.000  C
  C91      1.0000 0.65050  0.40630  0.71263  Biso   1.000  C
  C92      1.0000 0.76030  0.30330  0.66413  Biso   1.000  C
  C93      1.0000 0.69500  0.44870  0.51503  Biso   1.000  C
  O103     1.0000 0.06590  0.68590  0.68773  Biso   1.000  O
  O104     1.0000 0.98840  0.55330  0.61893  Biso   1.000  O
  O105     1.0000 0.91650  0.65360  0.64083  Biso   1.000  O
  O106     1.0000 0.93130  0.63670  0.75383  Biso   1.000  O
  O107     1.0000 0.01120  0.54110  0.72893  Biso   1.000  O
  O108     1.0000 0.69870  0.42360  0.75222  Biso   1.000  O
  O109     1.0000 0.76000  0.32300  0.71253  Biso   1.000  O
  O110     1.0000 0.84830  0.52720  0.80253  Biso   1.000  O
  O111     1.0000 0.91160  0.42220  0.76223  Biso   1.000  O
  O112     1.0000 0.63020  0.40180  0.48943  Biso   1.000  O
  C94      1.0000 0.98990  0.51310  0.52803  Biso   1.000  C
  C95      1.0000 0.84250  0.71270  0.60823  Biso   1.000  C
  C96      1.0000 0.56090  0.37160  0.72423  Biso   1.000  C
  C97      1.0000 0.74890  0.22120  0.65273  Biso   1.000  C
  C98      1.0000 0.75420  0.53010  0.49183  Biso   1.000  C
  C99      1.0000 0.11000  0.76070  0.68083  Biso   1.000  C
  C100     1.0000 0.88860  0.60380  0.79463  Biso   1.000  C
  C101     1.0000 0.98590  0.47220  0.75083  Biso   1.000  C
  H141     1.0000 0.04630  0.53360  0.53653  Biso   1.000  H
  H142     1.0000 0.96520  0.45680  0.51763  Biso   1.000  H
  H143     1.0000 0.98570  0.54400  0.49863  Biso   1.000  H
  H144     1.0000 0.89450  0.76090  0.61393  Biso   1.000  H
  H145     1.0000 0.82830  0.70830  0.57053  Biso   1.000  H
  H146     1.0000 0.80170  0.71610  0.62933  Biso   1.000  H
  H147     1.0000 0.53170  0.36140  0.69073  Biso   1.000  H
  H148     1.0000 0.54060  0.32150  0.74403  Biso   1.000  H
  H149     1.0000 0.55350  0.41000  0.74533  Biso   1.000  H
  H150     1.0000 0.75050  0.21420  0.61433  Biso   1.000  H
  H151     1.0000 0.79190  0.21620  0.66973  Biso   1.000  H
  H152     1.0000 0.69720  0.18020  0.66683  Biso   1.000  H
  H153     1.0000 0.73540  0.53600  0.45693  Biso   1.000  H
  H154     1.0000 0.75870  0.57240  0.51553  Biso   1.000  H
  H155     1.0000 0.80670  0.53430  0.48813  Biso   1.000  H
  O113     1.0000 0.18490  0.79270  0.67883  Biso   1.000  O
  C102     1.0000 0.06830  0.81330  0.68333  Biso   1.000  C
  C103     1.0000 0.88590  0.65800  0.83853  Biso   1.000  C
  C104     1.0000 0.04730  0.44700  0.76403  Biso   1.000  C
  Fe20     1.0000 0.29058  0.90038  0.67205  Biso   1.000  Fe
  H156     1.0000 0.01020  0.77820  0.68473  Biso   1.000  H
  H157     1.0000 0.08630  0.84700  0.71513  Biso   1.000  H
  H158     1.0000 0.08260  0.84720  0.65173  Biso   1.000  H
  H159     1.0000 0.85090  0.62480  0.86733  Biso   1.000  H
  H160     1.0000 0.93990  0.69260  0.85233  Biso   1.000  H
  H161     1.0000 0.86510  0.69090  0.82373  Biso   1.000  H
  H162     1.0000 0.02030  0.39390  0.78033  Biso   1.000  H
  H163     1.0000 0.07410  0.44550  0.73143  Biso   1.000  H
  H164     1.0000 0.08690  0.48560  0.78883  Biso   1.000  H
  O114     1.0000 0.23030  0.93350  0.61953  Biso   1.000  O
  O115     1.0000 0.32820  0.84140  0.72483  Biso   1.000  O
  O116     1.0000 0.31580  0.84840  0.60923  Biso   1.000  O
  O117     1.0000 0.31540  0.06350  0.59603  Biso   1.000  O
  C105     1.0000 0.25230  0.99480  0.58873  Biso   1.000  C
  C106     1.0000 0.39640  0.86030  0.74443  Biso   1.000  C
  C107     1.0000 0.38310  0.85790  0.59323  Biso   1.000  C
  O118     1.0000 0.46300  0.92200  0.72973  Biso   1.000  O
  O119     1.0000 0.45150  0.90640  0.61293  Biso   1.000  O
  C108     1.0000 0.19670  0.98580  0.54263  Biso   1.000  C
  C109     1.0000 0.39930  0.80450  0.78653  Biso   1.000  C
  C110     1.0000 0.37720  0.80330  0.54703  Biso   1.000  C
  H165     1.0000 0.15160  0.93090  0.54183  Biso   1.000  H
  H166     1.0000 0.17680  0.02310  0.54753  Biso   1.000  H
  H167     1.0000 0.22630  0.99760  0.50913  Biso   1.000  H
  H168     1.0000 0.45460  0.82560  0.79823  Biso   1.000  H
  H169     1.0000 0.36610  0.80120  0.81683  Biso   1.000  H
  H170     1.0000 0.37910  0.75120  0.77123  Biso   1.000  H
  H171     1.0000 0.32110  0.77000  0.53663  Biso   1.000  H
  H172     1.0000 0.40820  0.83610  0.51683  Biso   1.000  H
  H173     1.0000 0.39850  0.76900  0.55823  Biso   1.000  H
  O120     1.0000 0.60140  0.00210  0.68043  Biso   1.000  O
  H174     1.0000 0.63790  0.00030  0.66133  Biso   1.000  H
  H175     1.0000 0.61500  0.00500  0.71353  Biso   1.000  H
  Fe21     1.0000 0.68071  0.21918  0.95819  Biso   1.000  Fe
  O121     1.0000 0.64570  0.15210  0.02166  Biso   1.000  O
  O122     1.0000 0.62360  0.12740  0.90457  Biso   1.000  O
  O123     1.0000 0.78550  0.21430  0.95407  Biso   1.000  O
  O124     1.0000 0.74360  0.32940  0.99665  Biso   1.000  O
  O125     1.0000 0.57990  0.23140  0.95697  Biso   1.000  O
  O126     1.0000 0.72040  0.29420  0.89397  Biso   1.000  O
  Fe22     1.0000 0.63646  0.04744  0.01946  Biso   1.000  Fe
  Fe23     1.0000 0.62057  0.19074  0.08553  Biso   1.000  Fe
  C111     1.0000 0.57360  0.05290  0.90967  Biso   1.000  C
  C112     1.0000 0.79260  0.15290  0.95837  Biso   1.000  C
  C113     1.0000 0.75580  0.34950  0.04597  Biso   1.000  C
  C114     1.0000 0.54300  0.23970  0.99747  Biso   1.000  C
  C115     1.0000 0.75370  0.30500  0.84837  Biso   1.000  C
  O127     1.0000 0.62000  0.93410  0.02107  Biso   1.000  O
  O128     1.0000 0.56490  0.01160  0.95227  Biso   1.000  O
  O129     1.0000 0.73710  0.08350  0.97417  Biso   1.000  O
  O130     1.0000 0.70540  0.06870  0.08717  Biso   1.000  O
  O131     1.0000 0.52990  0.98880  0.06227  Biso   1.000  O
  O132     1.0000 0.72490  0.30130  0.08556  Biso   1.000  O
  O133     1.0000 0.56300  0.24000  0.04587  Biso   1.000  O
  O134     1.0000 0.67890  0.15170  0.13587  Biso   1.000  O
  O135     1.0000 0.51060  0.08840  0.09557  Biso   1.000  O
  O136     1.0000 0.77160  0.36980  0.82277  Biso   1.000  O
  C116     1.0000 0.52320  0.01010  0.86137  Biso   1.000  C
  C117     1.0000 0.87020  0.15750  0.94157  Biso   1.000  C
  C118     1.0000 0.81070  0.43910  0.05757  Biso   1.000  C
  C119     1.0000 0.47230  0.25110  0.98607  Biso   1.000  C
  C120     1.0000 0.77590  0.24580  0.82517  Biso   1.000  C
  C121     1.0000 0.65070  0.89000  0.01417  Biso   1.000  C
  C122     1.0000 0.71520  0.11140  0.12797  Biso   1.000  C
  C123     1.0000 0.48630  0.01410  0.08417  Biso   1.000  C
  H176     1.0000 0.48730  0.95370  0.86987  Biso   1.000  H
  H177     1.0000 0.49160  0.03480  0.85097  Biso   1.000  H
  H178     1.0000 0.55830  0.01430  0.83197  Biso   1.000  H
  H179     1.0000 0.86640  0.10550  0.94727  Biso   1.000  H
  H180     1.0000 0.88000  0.17170  0.90387  Biso   1.000  H
  H181     1.0000 0.91440  0.19830  0.96267  Biso   1.000  H
  H182     1.0000 0.82970  0.46830  0.02407  Biso   1.000  H
  H183     1.0000 0.78090  0.45940  0.07737  Biso   1.000  H
  H184     1.0000 0.85650  0.44650  0.07867  Biso   1.000  H
  H185     1.0000 0.46370  0.24950  0.94767  Biso   1.000  H
  H186     1.0000 0.42430  0.20810  0.00307  Biso   1.000  H
  H187     1.0000 0.48300  0.30280  0.00017  Biso   1.000  H
  H188     1.0000 0.80060  0.26460  0.79027  Biso   1.000  H
  H189     1.0000 0.81370  0.24130  0.84887  Biso   1.000  H
  H190     1.0000 0.72760  0.19330  0.82147  Biso   1.000  H
  O137     1.0000 0.60780  0.81510  0.01217  Biso   1.000  O
  C124     1.0000 0.74500  0.93170  0.01667  Biso   1.000  C
  C125     1.0000 0.77210  0.11410  0.17187  Biso   1.000  C
  C126     1.0000 0.39970  0.95270  0.09737  Biso   1.000  C
  Fe24     1.0000 0.60980  0.70942  0.00539  Biso   1.000  Fe
  H191     1.0000 0.76800  0.98980  0.01807  Biso   1.000  H
  H192     1.0000 0.76070  0.91370  0.04847  Biso   1.000  H
  H193     1.0000 0.76460  0.91740  0.98507  Biso   1.000  H
  H194     1.0000 0.77390  0.14910  0.20067  Biso   1.000  H
  H195     1.0000 0.75270  0.06010  0.18567  Biso   1.000  H
  H196     1.0000 0.82580  0.13490  0.15707  Biso   1.000  H
  H197     1.0000 0.37360  0.97970  0.11367  Biso   1.000  H
  H198     1.0000 0.37140  0.92590  0.06477  Biso   1.000  H
  H199     1.0000 0.39870  0.91310  0.12217  Biso   1.000  H
  O138     1.0000 0.70320  0.76970  0.95287  Biso   1.000  O
  O139     1.0000 0.51320  0.67180  0.05817  Biso   1.000  O
  O140     1.0000 0.53260  0.68420  0.94257  Biso   1.000  O
  O141     1.0000 0.74810  0.68460  0.92937  Biso   1.000  O
  C127     1.0000 0.74250  0.74770  0.92207  Biso   1.000  C
  C128     1.0000 0.46390  0.60360  0.07777  Biso   1.000  C
  C129     1.0000 0.47480  0.61690  0.92657  Biso   1.000  C
  O142     1.0000 0.45900  0.53700  0.06307  Biso   1.000  O
  O143     1.0000 0.45490  0.54850  0.94627  Biso   1.000  O
  C130     1.0000 0.78910  0.80330  0.87597  Biso   1.000  C
  C131     1.0000 0.40520  0.60070  0.11987  Biso   1.000  C
  C132     1.0000 0.42610  0.62280  0.88037  Biso   1.000  C
  H200     1.0000 0.77930  0.84840  0.87517  Biso   1.000  H
  H201     1.0000 0.84630  0.82320  0.88087  Biso   1.000  H
  H202     1.0000 0.77130  0.77370  0.84247  Biso   1.000  H
  H203     1.0000 0.37100  0.54540  0.13157  Biso   1.000  H
  H204     1.0000 0.43510  0.63390  0.15017  Biso   1.000  H
  H205     1.0000 0.37210  0.62090  0.10457  Biso   1.000  H
  H206     1.0000 0.44890  0.67890  0.86997  Biso   1.000  H
  H207     1.0000 0.42790  0.59180  0.85017  Biso   1.000  H
  H208     1.0000 0.37050  0.60150  0.89157  Biso   1.000  H
  O144     1.0000 0.40070  0.39860  0.01377  Biso   1.000  O
  H209     1.0000 0.36240  0.36210  0.99467  Biso   1.000  H
  H210     1.0000 0.39000  0.38500  0.04687  Biso   1.000  H
  O145     1.0000 0.39150  0.00000  0.66667  Biso   1.000  O
  Fe25     1.0000 0.49240  0.00000  0.66667  Biso   1.000  Fe
  O146     1.0000 0.00000  0.39150  0.33333  Biso   1.000  O
  Fe26     1.0000 0.00000  0.49240  0.33333  Biso   1.000  Fe
  O147     1.0000 0.60850  0.60850  0.00000  Biso   1.000  O
  Fe27     1.0000 0.50760  0.50760  0.00000  Biso   1.000  Fe
