data_image0
_cell_length_a       16.319
_cell_length_b       18.374
_cell_length_c       22.075
_cell_angle_alpha    90
_cell_angle_beta     106.13
_cell_angle_gamma    90

_symmetry_space_group_name_H-M    "P 1"
_symmetry_int_tables_number       1

loop_
  _symmetry_equiv_pos_as_xyz
  'x, y, z'

loop_
  _atom_site_label
  _atom_site_occupancy
  _atom_site_fract_x
  _atom_site_fract_y
  _atom_site_fract_z
  _atom_site_thermal_displace_type
  _atom_site_B_iso_or_equiv
  _atom_site_type_symbol
  Na1      1.0000 0.23040  0.21790  0.07200  Biso   1.000  Na
  O1       1.0000 0.33360  0.29690  0.04560  Biso   1.000  O
  La1      1.0000 0.24050  0.07580  0.20950  Biso   1.000  La
  S1       1.0000 0.89990  0.21140  0.90840  Biso   1.000  S
  O2       1.0000 0.83960  0.16080  0.86870  Biso   1.000  O
  O3       1.0000 0.98430  0.20640  0.90100  Biso   1.000  O
  O4       1.0000 0.91500  0.15440  0.17440  Biso   1.000  O
  O5       1.0000 0.14110  0.15470  0.11620  Biso   1.000  O
  O6       1.0000 0.08660  0.13220  0.19360  Biso   1.000  O
  C1       1.0000 0.90660  0.18980  0.98750  Biso   1.000  C
  C2       1.0000 0.83390  0.18660  0.00660  Biso   1.000  C
  C3       1.0000 0.83650  0.17350  0.06800  Biso   1.000  C
  C4       1.0000 0.91560  0.16390  0.11440  Biso   1.000  C
  C5       1.0000 0.98950  0.16590  0.09470  Biso   1.000  C
  C6       1.0000 0.98340  0.18020  0.03050  Biso   1.000  C
  C7       1.0000 0.07590  0.15110  0.13670  Biso   1.000  C
  S2       1.0000 0.68680  0.96800  0.94040  Biso   1.000  S
  O7       1.0000 0.67230  0.05330  0.91800  Biso   1.000  O
  O8       1.0000 0.61570  0.95270  0.95890  Biso   1.000  O
  O9       1.0000 0.71310  0.93770  0.89170  Biso   1.000  O
  O10      1.0000 0.98020  0.99440  0.16580  Biso   1.000  O
  O11      1.0000 0.72940  0.00880  0.18060  Biso   1.000  O
  O12      1.0000 0.86320  0.02200  0.22970  Biso   1.000  O
  C8       1.0000 0.77450  0.97390  0.00730  Biso   1.000  C
  C9       1.0000 0.85830  0.96750  0.00370  Biso   1.000  C
  C10      1.0000 0.92400  0.97440  0.05610  Biso   1.000  C
  C11      1.0000 0.91170  0.98770  0.11660  Biso   1.000  C
  C12      1.0000 0.82780  0.99150  0.11980  Biso   1.000  C
  C13      1.0000 0.76020  0.98430  0.06550  Biso   1.000  C
  C14      1.0000 0.80540  0.00710  0.17930  Biso   1.000  C
  O13      1.0000 0.31690  0.19480  0.18380  Biso   1.000  O
  Na2      1.0000 0.73040  0.71790  0.07200  Biso   1.000  Na
  O14      1.0000 0.83360  0.79690  0.04560  Biso   1.000  O
  La2      1.0000 0.74050  0.57580  0.20950  Biso   1.000  La
  S3       1.0000 0.39990  0.71140  0.90840  Biso   1.000  S
  O15      1.0000 0.33960  0.66080  0.86870  Biso   1.000  O
  O16      1.0000 0.48430  0.70640  0.90100  Biso   1.000  O
  O17      1.0000 0.41500  0.65440  0.17440  Biso   1.000  O
  O18      1.0000 0.64110  0.65470  0.11620  Biso   1.000  O
  O19      1.0000 0.58660  0.63220  0.19360  Biso   1.000  O
  C15      1.0000 0.40660  0.68980  0.98750  Biso   1.000  C
  C16      1.0000 0.33390  0.68660  0.00660  Biso   1.000  C
  C17      1.0000 0.33650  0.67350  0.06800  Biso   1.000  C
  C18      1.0000 0.41560  0.66390  0.11440  Biso   1.000  C
  C19      1.0000 0.48950  0.66590  0.09470  Biso   1.000  C
  C20      1.0000 0.48340  0.68020  0.03050  Biso   1.000  C
  C21      1.0000 0.57590  0.65110  0.13670  Biso   1.000  C
  S4       1.0000 0.18680  0.46800  0.94040  Biso   1.000  S
  O20      1.0000 0.17230  0.55330  0.91800  Biso   1.000  O
  O21      1.0000 0.11570  0.45270  0.95890  Biso   1.000  O
  O22      1.0000 0.21310  0.43770  0.89170  Biso   1.000  O
  O23      1.0000 0.48020  0.49440  0.16580  Biso   1.000  O
  O24      1.0000 0.22940  0.50880  0.18060  Biso   1.000  O
  O25      1.0000 0.36320  0.52200  0.22970  Biso   1.000  O
  C22      1.0000 0.27450  0.47390  0.00730  Biso   1.000  C
  C23      1.0000 0.35830  0.46750  0.00370  Biso   1.000  C
  C24      1.0000 0.42400  0.47440  0.05610  Biso   1.000  C
  C25      1.0000 0.41170  0.48770  0.11660  Biso   1.000  C
  C26      1.0000 0.32780  0.49150  0.11980  Biso   1.000  C
  C27      1.0000 0.26020  0.48430  0.06550  Biso   1.000  C
  C28      1.0000 0.30540  0.50710  0.17930  Biso   1.000  C
  O26      1.0000 0.81690  0.69480  0.18380  Biso   1.000  O
  Na3      1.0000 0.76960  0.21790  0.42800  Biso   1.000  Na
  O27      1.0000 0.66640  0.29690  0.45440  Biso   1.000  O
  La3      1.0000 0.75950  0.07580  0.29050  Biso   1.000  La
  S5       1.0000 0.10010  0.21140  0.59160  Biso   1.000  S
  O28      1.0000 0.16040  0.16080  0.63130  Biso   1.000  O
  O29      1.0000 0.01570  0.20640  0.59900  Biso   1.000  O
  O30      1.0000 0.08500  0.15440  0.32560  Biso   1.000  O
  O31      1.0000 0.85890  0.15470  0.38380  Biso   1.000  O
  O32      1.0000 0.91340  0.13220  0.30640  Biso   1.000  O
  C29      1.0000 0.09340  0.18980  0.51250  Biso   1.000  C
  C30      1.0000 0.16610  0.18660  0.49340  Biso   1.000  C
  C31      1.0000 0.16350  0.17350  0.43200  Biso   1.000  C
  C32      1.0000 0.08440  0.16390  0.38560  Biso   1.000  C
  C33      1.0000 0.01050  0.16590  0.40530  Biso   1.000  C
  C34      1.0000 0.01660  0.18020  0.46950  Biso   1.000  C
  C35      1.0000 0.92410  0.15110  0.36330  Biso   1.000  C
  S6       1.0000 0.31320  0.96800  0.55960  Biso   1.000  S
  O33      1.0000 0.32770  0.05330  0.58200  Biso   1.000  O
  O34      1.0000 0.38430  0.95270  0.54110  Biso   1.000  O
  O35      1.0000 0.28690  0.93770  0.60830  Biso   1.000  O
  O36      1.0000 0.01980  0.99440  0.33420  Biso   1.000  O
  O37      1.0000 0.27060  0.00880  0.31940  Biso   1.000  O
  O38      1.0000 0.13680  0.02200  0.27030  Biso   1.000  O
  C36      1.0000 0.22550  0.97390  0.49270  Biso   1.000  C
  C37      1.0000 0.14170  0.96750  0.49630  Biso   1.000  C
  C38      1.0000 0.07600  0.97440  0.44390  Biso   1.000  C
  C39      1.0000 0.08830  0.98770  0.38340  Biso   1.000  C
  C40      1.0000 0.17220  0.99150  0.38020  Biso   1.000  C
  C41      1.0000 0.23980  0.98430  0.43450  Biso   1.000  C
  C42      1.0000 0.19460  0.00710  0.32070  Biso   1.000  C
  O39      1.0000 0.68310  0.19480  0.31620  Biso   1.000  O
  Na4      1.0000 0.26960  0.71790  0.42800  Biso   1.000  Na
  O40      1.0000 0.16640  0.79690  0.45440  Biso   1.000  O
  La4      1.0000 0.25950  0.57580  0.29050  Biso   1.000  La
  S7       1.0000 0.60010  0.71140  0.59160  Biso   1.000  S
  O41      1.0000 0.66040  0.66080  0.63130  Biso   1.000  O
  O42      1.0000 0.51570  0.70640  0.59900  Biso   1.000  O
  O43      1.0000 0.58500  0.65440  0.32560  Biso   1.000  O
  O44      1.0000 0.35890  0.65470  0.38380  Biso   1.000  O
  O45      1.0000 0.41340  0.63220  0.30640  Biso   1.000  O
  C43      1.0000 0.59340  0.68980  0.51250  Biso   1.000  C
  C44      1.0000 0.66610  0.68660  0.49340  Biso   1.000  C
  C45      1.0000 0.66350  0.67350  0.43200  Biso   1.000  C
  C46      1.0000 0.58440  0.66390  0.38560  Biso   1.000  C
  C47      1.0000 0.51050  0.66590  0.40530  Biso   1.000  C
  C48      1.0000 0.51660  0.68020  0.46950  Biso   1.000  C
  C49      1.0000 0.42410  0.65110  0.36330  Biso   1.000  C
  S8       1.0000 0.81320  0.46800  0.55960  Biso   1.000  S
  O46      1.0000 0.82770  0.55330  0.58200  Biso   1.000  O
  O47      1.0000 0.88430  0.45270  0.54110  Biso   1.000  O
  O48      1.0000 0.78690  0.43770  0.60830  Biso   1.000  O
  O49      1.0000 0.51980  0.49440  0.33420  Biso   1.000  O
  O50      1.0000 0.77060  0.50880  0.31940  Biso   1.000  O
  O51      1.0000 0.63680  0.52200  0.27030  Biso   1.000  O
  C50      1.0000 0.72550  0.47390  0.49270  Biso   1.000  C
  C51      1.0000 0.64170  0.46750  0.49630  Biso   1.000  C
  C52      1.0000 0.57600  0.47440  0.44390  Biso   1.000  C
  C53      1.0000 0.58830  0.48770  0.38340  Biso   1.000  C
  C54      1.0000 0.67220  0.49150  0.38020  Biso   1.000  C
  C55      1.0000 0.73980  0.48430  0.43450  Biso   1.000  C
  C56      1.0000 0.69460  0.50710  0.32070  Biso   1.000  C
  O52      1.0000 0.18310  0.69480  0.31620  Biso   1.000  O
  Na5      1.0000 0.76960  0.78210  0.92800  Biso   1.000  Na
  O53      1.0000 0.66640  0.70310  0.95440  Biso   1.000  O
  La5      1.0000 0.75950  0.92420  0.79050  Biso   1.000  La
  S9       1.0000 0.10010  0.78860  0.09160  Biso   1.000  S
  O54      1.0000 0.16040  0.83920  0.13130  Biso   1.000  O
  O55      1.0000 0.01570  0.79360  0.09900  Biso   1.000  O
  O56      1.0000 0.08500  0.84560  0.82560  Biso   1.000  O
  O57      1.0000 0.85890  0.84530  0.88380  Biso   1.000  O
  O58      1.0000 0.91340  0.86780  0.80640  Biso   1.000  O
  C57      1.0000 0.09340  0.81020  0.01250  Biso   1.000  C
  C58      1.0000 0.16610  0.81340  0.99340  Biso   1.000  C
  C59      1.0000 0.16350  0.82650  0.93200  Biso   1.000  C
  C60      1.0000 0.08440  0.83610  0.88560  Biso   1.000  C
  C61      1.0000 0.01050  0.83410  0.90530  Biso   1.000  C
  C62      1.0000 0.01660  0.81980  0.96950  Biso   1.000  C
  C63      1.0000 0.92410  0.84890  0.86330  Biso   1.000  C
  S10      1.0000 0.31320  0.03200  0.05960  Biso   1.000  S
  O59      1.0000 0.32770  0.94670  0.08200  Biso   1.000  O
  O60      1.0000 0.38430  0.04730  0.04110  Biso   1.000  O
  O61      1.0000 0.28690  0.06230  0.10830  Biso   1.000  O
  O62      1.0000 0.01980  0.00560  0.83420  Biso   1.000  O
  O63      1.0000 0.27060  0.99120  0.81940  Biso   1.000  O
  O64      1.0000 0.13680  0.97800  0.77030  Biso   1.000  O
  C64      1.0000 0.22550  0.02610  0.99270  Biso   1.000  C
  C65      1.0000 0.14170  0.03250  0.99630  Biso   1.000  C
  C66      1.0000 0.07600  0.02560  0.94390  Biso   1.000  C
  C67      1.0000 0.08830  0.01230  0.88340  Biso   1.000  C
  C68      1.0000 0.17220  0.00850  0.88020  Biso   1.000  C
  C69      1.0000 0.23980  0.01570  0.93450  Biso   1.000  C
  C70      1.0000 0.19460  0.99290  0.82070  Biso   1.000  C
  O65      1.0000 0.68310  0.80520  0.81620  Biso   1.000  O
  Na6      1.0000 0.26960  0.28210  0.92800  Biso   1.000  Na
  O66      1.0000 0.16640  0.20310  0.95440  Biso   1.000  O
  La6      1.0000 0.25950  0.42420  0.79050  Biso   1.000  La
  S11      1.0000 0.60010  0.28860  0.09160  Biso   1.000  S
  O67      1.0000 0.66040  0.33920  0.13130  Biso   1.000  O
  O68      1.0000 0.51570  0.29360  0.09900  Biso   1.000  O
  O69      1.0000 0.58500  0.34560  0.82560  Biso   1.000  O
  O70      1.0000 0.35890  0.34530  0.88380  Biso   1.000  O
  O71      1.0000 0.41340  0.36780  0.80640  Biso   1.000  O
  C71      1.0000 0.59340  0.31020  0.01250  Biso   1.000  C
  C72      1.0000 0.66610  0.31340  0.99340  Biso   1.000  C
  C73      1.0000 0.66350  0.32650  0.93200  Biso   1.000  C
  C74      1.0000 0.58440  0.33610  0.88560  Biso   1.000  C
  C75      1.0000 0.51050  0.33410  0.90530  Biso   1.000  C
  C76      1.0000 0.51660  0.31980  0.96950  Biso   1.000  C
  C77      1.0000 0.42410  0.34890  0.86330  Biso   1.000  C
  S12      1.0000 0.81320  0.53200  0.05960  Biso   1.000  S
  O72      1.0000 0.82770  0.44670  0.08200  Biso   1.000  O
  O73      1.0000 0.88430  0.54730  0.04110  Biso   1.000  O
  O74      1.0000 0.78690  0.56230  0.10830  Biso   1.000  O
  O75      1.0000 0.51980  0.50560  0.83420  Biso   1.000  O
  O76      1.0000 0.77060  0.49120  0.81940  Biso   1.000  O
  O77      1.0000 0.63680  0.47800  0.77030  Biso   1.000  O
  C78      1.0000 0.72550  0.52610  0.99270  Biso   1.000  C
  C79      1.0000 0.64170  0.53250  0.99630  Biso   1.000  C
  C80      1.0000 0.57600  0.52560  0.94390  Biso   1.000  C
  C81      1.0000 0.58830  0.51230  0.88340  Biso   1.000  C
  C82      1.0000 0.67220  0.50850  0.88020  Biso   1.000  C
  C83      1.0000 0.73980  0.51570  0.93450  Biso   1.000  C
  C84      1.0000 0.69460  0.49290  0.82070  Biso   1.000  C
  O78      1.0000 0.18310  0.30520  0.81620  Biso   1.000  O
  Na7      1.0000 0.23040  0.78210  0.57200  Biso   1.000  Na
  O79      1.0000 0.33360  0.70310  0.54560  Biso   1.000  O
  La7      1.0000 0.24050  0.92420  0.70950  Biso   1.000  La
  S13      1.0000 0.89990  0.78860  0.40840  Biso   1.000  S
  O80      1.0000 0.83960  0.83920  0.36870  Biso   1.000  O
  O81      1.0000 0.98430  0.79360  0.40100  Biso   1.000  O
  O82      1.0000 0.91500  0.84560  0.67440  Biso   1.000  O
  O83      1.0000 0.14110  0.84530  0.61620  Biso   1.000  O
  O84      1.0000 0.08660  0.86780  0.69360  Biso   1.000  O
  C85      1.0000 0.90660  0.81020  0.48750  Biso   1.000  C
  C86      1.0000 0.83390  0.81340  0.50660  Biso   1.000  C
  C87      1.0000 0.83650  0.82650  0.56800  Biso   1.000  C
  C88      1.0000 0.91560  0.83610  0.61440  Biso   1.000  C
  C89      1.0000 0.98950  0.83410  0.59470  Biso   1.000  C
  C90      1.0000 0.98340  0.81980  0.53050  Biso   1.000  C
  C91      1.0000 0.07590  0.84890  0.63670  Biso   1.000  C
  S14      1.0000 0.68680  0.03200  0.44040  Biso   1.000  S
  O85      1.0000 0.67230  0.94670  0.41800  Biso   1.000  O
  O86      1.0000 0.61570  0.04730  0.45890  Biso   1.000  O
  O87      1.0000 0.71310  0.06230  0.39170  Biso   1.000  O
  O88      1.0000 0.98020  0.00560  0.66580  Biso   1.000  O
  O89      1.0000 0.72940  0.99120  0.68060  Biso   1.000  O
  O90      1.0000 0.86320  0.97800  0.72970  Biso   1.000  O
  C92      1.0000 0.77450  0.02610  0.50730  Biso   1.000  C
  C93      1.0000 0.85830  0.03250  0.50370  Biso   1.000  C
  C94      1.0000 0.92400  0.02560  0.55610  Biso   1.000  C
  C95      1.0000 0.91170  0.01230  0.61660  Biso   1.000  C
  C96      1.0000 0.82780  0.00850  0.61980  Biso   1.000  C
  C97      1.0000 0.76020  0.01570  0.56550  Biso   1.000  C
  C98      1.0000 0.80540  0.99290  0.67930  Biso   1.000  C
  O91      1.0000 0.31690  0.80520  0.68380  Biso   1.000  O
  Na8      1.0000 0.73040  0.28210  0.57200  Biso   1.000  Na
  O92      1.0000 0.83360  0.20310  0.54560  Biso   1.000  O
  La8      1.0000 0.74050  0.42420  0.70950  Biso   1.000  La
  S15      1.0000 0.39990  0.28860  0.40840  Biso   1.000  S
  O93      1.0000 0.33960  0.33920  0.36870  Biso   1.000  O
  O94      1.0000 0.48430  0.29360  0.40100  Biso   1.000  O
  O95      1.0000 0.41500  0.34560  0.67440  Biso   1.000  O
  O96      1.0000 0.64110  0.34530  0.61620  Biso   1.000  O
  O97      1.0000 0.58660  0.36780  0.69360  Biso   1.000  O
  C99      1.0000 0.40660  0.31020  0.48750  Biso   1.000  C
  C100     1.0000 0.33390  0.31340  0.50660  Biso   1.000  C
  C101     1.0000 0.33650  0.32650  0.56800  Biso   1.000  C
  C102     1.0000 0.41560  0.33610  0.61440  Biso   1.000  C
  C103     1.0000 0.48950  0.33410  0.59470  Biso   1.000  C
  C104     1.0000 0.48340  0.31980  0.53050  Biso   1.000  C
  C105     1.0000 0.57590  0.34890  0.63670  Biso   1.000  C
  S16      1.0000 0.18680  0.53200  0.44040  Biso   1.000  S
  O98      1.0000 0.17230  0.44670  0.41800  Biso   1.000  O
  O99      1.0000 0.11570  0.54730  0.45890  Biso   1.000  O
  O100     1.0000 0.21310  0.56230  0.39170  Biso   1.000  O
  O101     1.0000 0.48020  0.50560  0.66580  Biso   1.000  O
  O102     1.0000 0.22940  0.49120  0.68060  Biso   1.000  O
  O103     1.0000 0.36320  0.47800  0.72970  Biso   1.000  O
  C106     1.0000 0.27450  0.52610  0.50730  Biso   1.000  C
  C107     1.0000 0.35830  0.53250  0.50370  Biso   1.000  C
  C108     1.0000 0.42400  0.52560  0.55610  Biso   1.000  C
  C109     1.0000 0.41170  0.51230  0.61660  Biso   1.000  C
  C110     1.0000 0.32780  0.50850  0.61980  Biso   1.000  C
  C111     1.0000 0.26020  0.51570  0.56550  Biso   1.000  C
  C112     1.0000 0.30540  0.49290  0.67930  Biso   1.000  C
  O104     1.0000 0.81690  0.30520  0.68380  Biso   1.000  O
  Na9      1.0000 0.50000  0.00000  0.00000  Biso   1.000  Na
  Na10     1.0000 0.00000  0.50000  0.00000  Biso   1.000  Na
  Na11     1.0000 0.50000  0.00000  0.50000  Biso   1.000  Na
  Na12     1.0000 0.00000  0.50000  0.50000  Biso   1.000  Na
  Tb1      1.0000 0.00000  0.07690  0.25000  Biso   1.000  Tb
  Tb2      1.0000 0.50000  0.57690  0.25000  Biso   1.000  Tb
  Tb3      1.0000 0.00000  0.92310  0.75000  Biso   1.000  Tb
  Tb4      1.0000 0.50000  0.42310  0.75000  Biso   1.000  Tb
