data_YUCNEQ_clean
_audit_creation_date              2014-07-02
_audit_creation_method            'Materials Studio'
_symmetry_space_group_name_H-M    'P1'
_symmetry_Int_Tables_number       1
_symmetry_cell_setting            triclinic
loop_
_symmetry_equiv_pos_as_xyz
  x,y,z
_cell_length_a                    7.0200
_cell_length_b                    8.2270
_cell_length_c                    8.5292
_cell_angle_alpha                 113.3080
_cell_angle_beta                  114.3010
_cell_angle_gamma                 90.0000
loop_
_atom_site_label
_atom_site_type_symbol
_atom_site_fract_x
_atom_site_fract_y
_atom_site_fract_z
_atom_site_U_iso_or_equiv
_atom_site_adp_type
_atom_site_occupancy
Co1    Co    1.00000   0.50000   0.50000   0.01267  Uiso   1.00
Co2    Co    0.50000  -0.00000   0.50000   0.01267  Uiso   1.00
H1     H     0.40130   0.94100   0.08460   0.01267  Uiso   1.00
H2     H     0.31670   0.55900   0.91540   0.01267  Uiso   1.00
H3     H     0.59870   0.05900   0.91540   0.01267  Uiso   1.00
H4     H     0.68330   0.44100   0.08460   0.01267  Uiso   1.00
C1     C     0.65734   0.15133   0.27230   0.01267  Uiso   1.00
C2     C     0.49966   0.00982   0.08132   0.01267  Uiso   1.00
C3     C     0.38504   0.34867   0.72770   0.01267  Uiso   1.00
C4     C     0.41834   0.49018   0.91868   0.01267  Uiso   1.00
C5     C     0.34266   0.84867   0.72770   0.01267  Uiso   1.00
C6     C     0.50034   0.99018   0.91868   0.01267  Uiso   1.00
C7     C     0.61496   0.65133   0.27230   0.01267  Uiso   1.00
C8     C     0.58166   0.50982   0.08132   0.01267  Uiso   1.00
O1     O     0.79344   0.25640   0.27874   0.01267  Uiso   1.00
O2     O     0.64420   0.15954   0.41978   0.01267  Uiso   1.00
O3     O     0.51470   0.24360   0.72126   0.01267  Uiso   1.00
O4     O     0.22442   0.34046   0.58022   0.01267  Uiso   1.00
O5     O     0.20656   0.74360   0.72126   0.01267  Uiso   1.00
O6     O     0.35580   0.84046   0.58022   0.01267  Uiso   1.00
O7     O     0.48530   0.75640   0.27874   0.01267  Uiso   1.00
O8     O     0.77558   0.65954   0.41978   0.01267  Uiso   1.00
