data_image0
_cell_length_a       25.466
_cell_length_b       14.961
_cell_length_c       26.14
_cell_angle_alpha    90
_cell_angle_beta     94.842
_cell_angle_gamma    90

_symmetry_space_group_name_H-M    "P 1"
_symmetry_int_tables_number       1

loop_
  _symmetry_equiv_pos_as_xyz
  'x, y, z'

loop_
  _atom_site_label
  _atom_site_occupancy
  _atom_site_fract_x
  _atom_site_fract_y
  _atom_site_fract_z
  _atom_site_thermal_displace_type
  _atom_site_B_iso_or_equiv
  _atom_site_type_symbol
  Gd1      1.0000 0.34824  0.26371  0.00658  Biso   1.000  Gd
  C1       1.0000 0.24320  0.31970  0.92010  Biso   1.000  C
  C2       1.0000 0.25550  0.35150  0.86830  Biso   1.000  C
  C3       1.0000 0.22010  0.33870  0.82520  Biso   1.000  C
  H1       1.0000 0.18780  0.31140  0.82890  Biso   1.000  H
  C4       1.0000 0.23220  0.36590  0.77730  Biso   1.000  C
  C5       1.0000 0.27800  0.41240  0.76850  Biso   1.000  C
  C6       1.0000 0.31210  0.42490  0.81250  Biso   1.000  C
  C7       1.0000 0.30390  0.39430  0.86160  Biso   1.000  C
  H2       1.0000 0.32940  0.40180  0.88890  Biso   1.000  H
  C8       1.0000 0.29180  0.44130  0.71560  Biso   1.000  C
  C9       1.0000 0.27380  0.52450  0.69460  Biso   1.000  C
  C10      1.0000 0.28730  0.55580  0.64880  Biso   1.000  C
  H3       1.0000 0.27540  0.61160  0.63710  Biso   1.000  H
  C11      1.0000 0.31820  0.50610  0.61980  Biso   1.000  C
  C12      1.0000 0.33710  0.42330  0.63860  Biso   1.000  C
  H4       1.0000 0.35890  0.38900  0.61960  Biso   1.000  H
  C13      1.0000 0.32320  0.39320  0.68550  Biso   1.000  C
  C14      1.0000 0.33470  0.53840  0.56790  Biso   1.000  C
  C15      1.0000 0.36910  0.18250  0.88740  Biso   1.000  C
  C16      1.0000 0.40780  0.19130  0.84590  Biso   1.000  C
  C17      1.0000 0.40420  0.13610  0.80430  Biso   1.000  C
  H5       1.0000 0.37800  0.09270  0.80100  Biso   1.000  H
  C18      1.0000 0.43930  0.14420  0.76680  Biso   1.000  C
  C19      1.0000 0.48010  0.20650  0.76960  Biso   1.000  C
  C20      1.0000 0.48250  0.26270  0.81310  Biso   1.000  C
  C21      1.0000 0.44700  0.25550  0.85070  Biso   1.000  C
  H6       1.0000 0.44970  0.29370  0.87890  Biso   1.000  H
  N1       1.0000 0.36270  0.47200  0.80820  Biso   1.000  N
  N2       1.0000 0.19270  0.34490  0.73470  Biso   1.000  N
  N3       1.0000 0.23980  0.58180  0.72410  Biso   1.000  N
  N4       1.0000 0.34320  0.30110  0.70080  Biso   1.000  N
  N5       1.0000 0.52480  0.32860  0.82280  Biso   1.000  N
  N6       1.0000 0.43170  0.08490  0.72200  Biso   1.000  N
  O1       1.0000 0.27780  0.32010  0.95550  Biso   1.000  O
  O2       1.0000 0.19580  0.29190  0.92370  Biso   1.000  O
  O3       1.0000 0.40100  0.44710  0.83700  Biso   1.000  O
  O4       1.0000 0.36330  0.53360  0.77810  Biso   1.000  O
  O5       1.0000 0.14860  0.32070  0.74390  Biso   1.000  O
  O6       1.0000 0.20650  0.34540  0.69010  Biso   1.000  O
  O7       1.0000 0.34630  0.28750  0.74670  Biso   1.000  O
  O8       1.0000 0.35630  0.25080  0.66820  Biso   1.000  O
  O9       1.0000 0.20460  0.54620  0.74450  Biso   1.000  O
  O10      1.0000 0.25130  0.66240  0.72550  Biso   1.000  O
  O11      1.0000 0.36870  0.49230  0.54860  Biso   1.000  O
  O12      1.0000 0.31430  0.60880  0.55060  Biso   1.000  O
  O13      1.0000 0.37820  0.23040  0.92600  Biso   1.000  O
  O14      1.0000 0.33210  0.12980  0.87900  Biso   1.000  O
  O15      1.0000 0.53420  0.35690  0.86520  Biso   1.000  O
  O16      1.0000 0.54840  0.35260  0.78590  Biso   1.000  O
  O17      1.0000 0.41210  0.01210  0.72980  Biso   1.000  O
  O18      1.0000 0.44310  0.11160  0.68020  Biso   1.000  O
  Gd2      1.0000 0.84824  0.76371  0.00658  Biso   1.000  Gd
  C22      1.0000 0.74320  0.81970  0.92010  Biso   1.000  C
  C23      1.0000 0.75550  0.85150  0.86830  Biso   1.000  C
  C24      1.0000 0.72010  0.83870  0.82520  Biso   1.000  C
  H7       1.0000 0.68780  0.81140  0.82890  Biso   1.000  H
  C25      1.0000 0.73220  0.86590  0.77730  Biso   1.000  C
  C26      1.0000 0.77800  0.91240  0.76850  Biso   1.000  C
  C27      1.0000 0.81210  0.92490  0.81250  Biso   1.000  C
  C28      1.0000 0.80390  0.89430  0.86160  Biso   1.000  C
  H8       1.0000 0.82940  0.90180  0.88890  Biso   1.000  H
  C29      1.0000 0.79180  0.94130  0.71560  Biso   1.000  C
  C30      1.0000 0.77380  0.02450  0.69460  Biso   1.000  C
  C31      1.0000 0.78730  0.05580  0.64880  Biso   1.000  C
  H9       1.0000 0.77540  0.11160  0.63710  Biso   1.000  H
  C32      1.0000 0.81820  0.00610  0.61980  Biso   1.000  C
  C33      1.0000 0.83710  0.92330  0.63860  Biso   1.000  C
  H10      1.0000 0.85890  0.88900  0.61960  Biso   1.000  H
  C34      1.0000 0.82320  0.89320  0.68550  Biso   1.000  C
  C35      1.0000 0.83470  0.03840  0.56790  Biso   1.000  C
  C36      1.0000 0.86910  0.68250  0.88740  Biso   1.000  C
  C37      1.0000 0.90780  0.69130  0.84590  Biso   1.000  C
  C38      1.0000 0.90420  0.63610  0.80430  Biso   1.000  C
  H11      1.0000 0.87800  0.59270  0.80100  Biso   1.000  H
  C39      1.0000 0.93930  0.64420  0.76680  Biso   1.000  C
  C40      1.0000 0.98010  0.70650  0.76960  Biso   1.000  C
  C41      1.0000 0.98250  0.76270  0.81310  Biso   1.000  C
  C42      1.0000 0.94700  0.75550  0.85070  Biso   1.000  C
  H12      1.0000 0.94970  0.79370  0.87890  Biso   1.000  H
  N7       1.0000 0.86270  0.97200  0.80820  Biso   1.000  N
  N8       1.0000 0.69270  0.84490  0.73470  Biso   1.000  N
  N9       1.0000 0.73980  0.08180  0.72410  Biso   1.000  N
  N10      1.0000 0.84320  0.80110  0.70080  Biso   1.000  N
  N11      1.0000 0.02480  0.82860  0.82280  Biso   1.000  N
  N12      1.0000 0.93170  0.58490  0.72200  Biso   1.000  N
  O19      1.0000 0.77780  0.82010  0.95550  Biso   1.000  O
  O20      1.0000 0.69580  0.79190  0.92370  Biso   1.000  O
  O21      1.0000 0.90100  0.94710  0.83700  Biso   1.000  O
  O22      1.0000 0.86330  0.03360  0.77810  Biso   1.000  O
  O23      1.0000 0.64860  0.82070  0.74390  Biso   1.000  O
  O24      1.0000 0.70650  0.84540  0.69010  Biso   1.000  O
  O25      1.0000 0.84630  0.78750  0.74670  Biso   1.000  O
  O26      1.0000 0.85630  0.75080  0.66820  Biso   1.000  O
  O27      1.0000 0.70460  0.04620  0.74450  Biso   1.000  O
  O28      1.0000 0.75130  0.16240  0.72550  Biso   1.000  O
  O29      1.0000 0.86870  0.99230  0.54860  Biso   1.000  O
  O30      1.0000 0.81430  0.10880  0.55060  Biso   1.000  O
  O31      1.0000 0.87820  0.73040  0.92600  Biso   1.000  O
  O32      1.0000 0.83210  0.62980  0.87900  Biso   1.000  O
  O33      1.0000 0.03420  0.85690  0.86520  Biso   1.000  O
  O34      1.0000 0.04840  0.85260  0.78590  Biso   1.000  O
  O35      1.0000 0.91210  0.51210  0.72980  Biso   1.000  O
  O36      1.0000 0.94310  0.61160  0.68020  Biso   1.000  O
  Gd3      1.0000 0.65176  0.26371  0.49342  Biso   1.000  Gd
  C43      1.0000 0.75680  0.31970  0.57990  Biso   1.000  C
  C44      1.0000 0.74450  0.35150  0.63170  Biso   1.000  C
  C45      1.0000 0.77990  0.33870  0.67480  Biso   1.000  C
  H13      1.0000 0.81220  0.31140  0.67110  Biso   1.000  H
  C46      1.0000 0.76780  0.36590  0.72270  Biso   1.000  C
  C47      1.0000 0.72200  0.41240  0.73150  Biso   1.000  C
  C48      1.0000 0.68790  0.42490  0.68750  Biso   1.000  C
  C49      1.0000 0.69610  0.39430  0.63840  Biso   1.000  C
  H14      1.0000 0.67060  0.40180  0.61110  Biso   1.000  H
  C50      1.0000 0.70820  0.44130  0.78440  Biso   1.000  C
  C51      1.0000 0.72620  0.52450  0.80540  Biso   1.000  C
  C52      1.0000 0.71270  0.55580  0.85120  Biso   1.000  C
  H15      1.0000 0.72460  0.61160  0.86290  Biso   1.000  H
  C53      1.0000 0.68180  0.50610  0.88020  Biso   1.000  C
  C54      1.0000 0.66290  0.42330  0.86140  Biso   1.000  C
  H16      1.0000 0.64110  0.38900  0.88040  Biso   1.000  H
  C55      1.0000 0.67680  0.39320  0.81450  Biso   1.000  C
  C56      1.0000 0.66530  0.53840  0.93210  Biso   1.000  C
  C57      1.0000 0.63090  0.18250  0.61260  Biso   1.000  C
  C58      1.0000 0.59220  0.19130  0.65410  Biso   1.000  C
  C59      1.0000 0.59580  0.13610  0.69570  Biso   1.000  C
  H17      1.0000 0.62200  0.09270  0.69900  Biso   1.000  H
  C60      1.0000 0.56070  0.14420  0.73320  Biso   1.000  C
  C61      1.0000 0.51990  0.20650  0.73040  Biso   1.000  C
  C62      1.0000 0.51750  0.26270  0.68690  Biso   1.000  C
  C63      1.0000 0.55300  0.25550  0.64930  Biso   1.000  C
  H18      1.0000 0.55030  0.29370  0.62110  Biso   1.000  H
  N13      1.0000 0.63730  0.47200  0.69180  Biso   1.000  N
  N14      1.0000 0.80730  0.34490  0.76530  Biso   1.000  N
  N15      1.0000 0.76020  0.58180  0.77590  Biso   1.000  N
  N16      1.0000 0.65680  0.30110  0.79920  Biso   1.000  N
  N17      1.0000 0.47520  0.32860  0.67720  Biso   1.000  N
  N18      1.0000 0.56830  0.08490  0.77800  Biso   1.000  N
  O37      1.0000 0.72220  0.32010  0.54450  Biso   1.000  O
  O38      1.0000 0.80420  0.29190  0.57630  Biso   1.000  O
  O39      1.0000 0.59900  0.44710  0.66300  Biso   1.000  O
  O40      1.0000 0.63670  0.53360  0.72190  Biso   1.000  O
  O41      1.0000 0.85140  0.32070  0.75610  Biso   1.000  O
  O42      1.0000 0.79350  0.34540  0.80990  Biso   1.000  O
  O43      1.0000 0.65370  0.28750  0.75330  Biso   1.000  O
  O44      1.0000 0.64370  0.25080  0.83180  Biso   1.000  O
  O45      1.0000 0.79540  0.54620  0.75550  Biso   1.000  O
  O46      1.0000 0.74870  0.66240  0.77450  Biso   1.000  O
  O47      1.0000 0.63130  0.49230  0.95140  Biso   1.000  O
  O48      1.0000 0.68570  0.60880  0.94940  Biso   1.000  O
  O49      1.0000 0.62180  0.23040  0.57400  Biso   1.000  O
  O50      1.0000 0.66790  0.12980  0.62100  Biso   1.000  O
  O51      1.0000 0.46580  0.35690  0.63480  Biso   1.000  O
  O52      1.0000 0.45160  0.35260  0.71410  Biso   1.000  O
  O53      1.0000 0.58790  0.01210  0.77020  Biso   1.000  O
  O54      1.0000 0.55690  0.11160  0.81980  Biso   1.000  O
  Gd4      1.0000 0.15176  0.76371  0.49342  Biso   1.000  Gd
  C64      1.0000 0.25680  0.81970  0.57990  Biso   1.000  C
  C65      1.0000 0.24450  0.85150  0.63170  Biso   1.000  C
  C66      1.0000 0.27990  0.83870  0.67480  Biso   1.000  C
  H19      1.0000 0.31220  0.81140  0.67110  Biso   1.000  H
  C67      1.0000 0.26780  0.86590  0.72270  Biso   1.000  C
  C68      1.0000 0.22200  0.91240  0.73150  Biso   1.000  C
  C69      1.0000 0.18790  0.92490  0.68750  Biso   1.000  C
  C70      1.0000 0.19610  0.89430  0.63840  Biso   1.000  C
  H20      1.0000 0.17060  0.90180  0.61110  Biso   1.000  H
  C71      1.0000 0.20820  0.94130  0.78440  Biso   1.000  C
  C72      1.0000 0.22620  0.02450  0.80540  Biso   1.000  C
  C73      1.0000 0.21270  0.05580  0.85120  Biso   1.000  C
  H21      1.0000 0.22460  0.11160  0.86290  Biso   1.000  H
  C74      1.0000 0.18180  0.00610  0.88020  Biso   1.000  C
  C75      1.0000 0.16290  0.92330  0.86140  Biso   1.000  C
  H22      1.0000 0.14110  0.88900  0.88040  Biso   1.000  H
  C76      1.0000 0.17680  0.89320  0.81450  Biso   1.000  C
  C77      1.0000 0.16530  0.03840  0.93210  Biso   1.000  C
  C78      1.0000 0.13090  0.68250  0.61260  Biso   1.000  C
  C79      1.0000 0.09220  0.69130  0.65410  Biso   1.000  C
  C80      1.0000 0.09580  0.63610  0.69570  Biso   1.000  C
  H23      1.0000 0.12200  0.59270  0.69900  Biso   1.000  H
  C81      1.0000 0.06070  0.64420  0.73320  Biso   1.000  C
  C82      1.0000 0.01990  0.70650  0.73040  Biso   1.000  C
  C83      1.0000 0.01750  0.76270  0.68690  Biso   1.000  C
  C84      1.0000 0.05300  0.75550  0.64930  Biso   1.000  C
  H24      1.0000 0.05030  0.79370  0.62110  Biso   1.000  H
  N19      1.0000 0.13730  0.97200  0.69180  Biso   1.000  N
  N20      1.0000 0.30730  0.84490  0.76530  Biso   1.000  N
  N21      1.0000 0.26020  0.08180  0.77590  Biso   1.000  N
  N22      1.0000 0.15680  0.80110  0.79920  Biso   1.000  N
  N23      1.0000 0.97520  0.82860  0.67720  Biso   1.000  N
  N24      1.0000 0.06830  0.58490  0.77800  Biso   1.000  N
  O55      1.0000 0.22220  0.82010  0.54450  Biso   1.000  O
  O56      1.0000 0.30420  0.79190  0.57630  Biso   1.000  O
  O57      1.0000 0.09900  0.94710  0.66300  Biso   1.000  O
  O58      1.0000 0.13670  0.03360  0.72190  Biso   1.000  O
  O59      1.0000 0.35140  0.82070  0.75610  Biso   1.000  O
  O60      1.0000 0.29350  0.84540  0.80990  Biso   1.000  O
  O61      1.0000 0.15370  0.78750  0.75330  Biso   1.000  O
  O62      1.0000 0.14370  0.75080  0.83180  Biso   1.000  O
  O63      1.0000 0.29540  0.04620  0.75550  Biso   1.000  O
  O64      1.0000 0.24870  0.16240  0.77450  Biso   1.000  O
  O65      1.0000 0.13130  0.99230  0.95140  Biso   1.000  O
  O66      1.0000 0.18570  0.10880  0.94940  Biso   1.000  O
  O67      1.0000 0.12180  0.73040  0.57400  Biso   1.000  O
  O68      1.0000 0.16790  0.62980  0.62100  Biso   1.000  O
  O69      1.0000 0.96580  0.85690  0.63480  Biso   1.000  O
  O70      1.0000 0.95160  0.85260  0.71410  Biso   1.000  O
  O71      1.0000 0.08790  0.51210  0.77020  Biso   1.000  O
  O72      1.0000 0.05690  0.61160  0.81980  Biso   1.000  O
  Gd5      1.0000 0.65176  0.73629  0.99342  Biso   1.000  Gd
  C85      1.0000 0.75680  0.68030  0.07990  Biso   1.000  C
  C86      1.0000 0.74450  0.64850  0.13170  Biso   1.000  C
  C87      1.0000 0.77990  0.66130  0.17480  Biso   1.000  C
  H25      1.0000 0.81220  0.68860  0.17110  Biso   1.000  H
  C88      1.0000 0.76780  0.63410  0.22270  Biso   1.000  C
  C89      1.0000 0.72200  0.58760  0.23150  Biso   1.000  C
  C90      1.0000 0.68790  0.57510  0.18750  Biso   1.000  C
  C91      1.0000 0.69610  0.60570  0.13840  Biso   1.000  C
  H26      1.0000 0.67060  0.59820  0.11110  Biso   1.000  H
  C92      1.0000 0.70820  0.55870  0.28440  Biso   1.000  C
  C93      1.0000 0.72620  0.47550  0.30540  Biso   1.000  C
  C94      1.0000 0.71270  0.44420  0.35120  Biso   1.000  C
  H27      1.0000 0.72460  0.38840  0.36290  Biso   1.000  H
  C95      1.0000 0.68180  0.49390  0.38020  Biso   1.000  C
  C96      1.0000 0.66290  0.57670  0.36140  Biso   1.000  C
  H28      1.0000 0.64110  0.61100  0.38040  Biso   1.000  H
  C97      1.0000 0.67680  0.60680  0.31450  Biso   1.000  C
  C98      1.0000 0.66530  0.46160  0.43210  Biso   1.000  C
  C99      1.0000 0.63090  0.81750  0.11260  Biso   1.000  C
  C100     1.0000 0.59220  0.80870  0.15410  Biso   1.000  C
  C101     1.0000 0.59580  0.86390  0.19570  Biso   1.000  C
  H29      1.0000 0.62200  0.90730  0.19900  Biso   1.000  H
  C102     1.0000 0.56070  0.85580  0.23320  Biso   1.000  C
  C103     1.0000 0.51990  0.79350  0.23040  Biso   1.000  C
  C104     1.0000 0.51750  0.73730  0.18690  Biso   1.000  C
  C105     1.0000 0.55300  0.74450  0.14930  Biso   1.000  C
  H30      1.0000 0.55030  0.70630  0.12110  Biso   1.000  H
  N25      1.0000 0.63730  0.52800  0.19180  Biso   1.000  N
  N26      1.0000 0.80730  0.65510  0.26530  Biso   1.000  N
  N27      1.0000 0.76020  0.41820  0.27590  Biso   1.000  N
  N28      1.0000 0.65680  0.69890  0.29920  Biso   1.000  N
  N29      1.0000 0.47520  0.67140  0.17720  Biso   1.000  N
  N30      1.0000 0.56830  0.91510  0.27800  Biso   1.000  N
  O73      1.0000 0.72220  0.67990  0.04450  Biso   1.000  O
  O74      1.0000 0.80420  0.70810  0.07630  Biso   1.000  O
  O75      1.0000 0.59900  0.55290  0.16300  Biso   1.000  O
  O76      1.0000 0.63670  0.46640  0.22190  Biso   1.000  O
  O77      1.0000 0.85140  0.67930  0.25610  Biso   1.000  O
  O78      1.0000 0.79350  0.65460  0.30990  Biso   1.000  O
  O79      1.0000 0.65370  0.71250  0.25330  Biso   1.000  O
  O80      1.0000 0.64370  0.74920  0.33180  Biso   1.000  O
  O81      1.0000 0.79540  0.45380  0.25550  Biso   1.000  O
  O82      1.0000 0.74870  0.33760  0.27450  Biso   1.000  O
  O83      1.0000 0.63130  0.50770  0.45140  Biso   1.000  O
  O84      1.0000 0.68570  0.39120  0.44940  Biso   1.000  O
  O85      1.0000 0.62180  0.76960  0.07400  Biso   1.000  O
  O86      1.0000 0.66790  0.87020  0.12100  Biso   1.000  O
  O87      1.0000 0.46580  0.64310  0.13480  Biso   1.000  O
  O88      1.0000 0.45160  0.64740  0.21410  Biso   1.000  O
  O89      1.0000 0.58790  0.98790  0.27020  Biso   1.000  O
  O90      1.0000 0.55690  0.88840  0.31980  Biso   1.000  O
  Gd6      1.0000 0.15176  0.23629  0.99342  Biso   1.000  Gd
  C106     1.0000 0.25680  0.18030  0.07990  Biso   1.000  C
  C107     1.0000 0.24450  0.14850  0.13170  Biso   1.000  C
  C108     1.0000 0.27990  0.16130  0.17480  Biso   1.000  C
  H31      1.0000 0.31220  0.18860  0.17110  Biso   1.000  H
  C109     1.0000 0.26780  0.13410  0.22270  Biso   1.000  C
  C110     1.0000 0.22200  0.08760  0.23150  Biso   1.000  C
  C111     1.0000 0.18790  0.07510  0.18750  Biso   1.000  C
  C112     1.0000 0.19610  0.10570  0.13840  Biso   1.000  C
  H32      1.0000 0.17060  0.09820  0.11110  Biso   1.000  H
  C113     1.0000 0.20820  0.05870  0.28440  Biso   1.000  C
  C114     1.0000 0.22620  0.97550  0.30540  Biso   1.000  C
  C115     1.0000 0.21270  0.94420  0.35120  Biso   1.000  C
  H33      1.0000 0.22460  0.88840  0.36290  Biso   1.000  H
  C116     1.0000 0.18180  0.99390  0.38020  Biso   1.000  C
  C117     1.0000 0.16290  0.07670  0.36140  Biso   1.000  C
  H34      1.0000 0.14110  0.11100  0.38040  Biso   1.000  H
  C118     1.0000 0.17680  0.10680  0.31450  Biso   1.000  C
  C119     1.0000 0.16530  0.96160  0.43210  Biso   1.000  C
  C120     1.0000 0.13090  0.31750  0.11260  Biso   1.000  C
  C121     1.0000 0.09220  0.30870  0.15410  Biso   1.000  C
  C122     1.0000 0.09580  0.36390  0.19570  Biso   1.000  C
  H35      1.0000 0.12200  0.40730  0.19900  Biso   1.000  H
  C123     1.0000 0.06070  0.35580  0.23320  Biso   1.000  C
  C124     1.0000 0.01990  0.29350  0.23040  Biso   1.000  C
  C125     1.0000 0.01750  0.23730  0.18690  Biso   1.000  C
  C126     1.0000 0.05300  0.24450  0.14930  Biso   1.000  C
  H36      1.0000 0.05030  0.20630  0.12110  Biso   1.000  H
  N31      1.0000 0.13730  0.02800  0.19180  Biso   1.000  N
  N32      1.0000 0.30730  0.15510  0.26530  Biso   1.000  N
  N33      1.0000 0.26020  0.91820  0.27590  Biso   1.000  N
  N34      1.0000 0.15680  0.19890  0.29920  Biso   1.000  N
  N35      1.0000 0.97520  0.17140  0.17720  Biso   1.000  N
  N36      1.0000 0.06830  0.41510  0.27800  Biso   1.000  N
  O91      1.0000 0.22220  0.17990  0.04450  Biso   1.000  O
  O92      1.0000 0.30420  0.20810  0.07630  Biso   1.000  O
  O93      1.0000 0.09900  0.05290  0.16300  Biso   1.000  O
  O94      1.0000 0.13670  0.96640  0.22190  Biso   1.000  O
  O95      1.0000 0.35140  0.17930  0.25610  Biso   1.000  O
  O96      1.0000 0.29350  0.15460  0.30990  Biso   1.000  O
  O97      1.0000 0.15370  0.21250  0.25330  Biso   1.000  O
  O98      1.0000 0.14370  0.24920  0.33180  Biso   1.000  O
  O99      1.0000 0.29540  0.95380  0.25550  Biso   1.000  O
  O100     1.0000 0.24870  0.83760  0.27450  Biso   1.000  O
  O101     1.0000 0.13130  0.00770  0.45140  Biso   1.000  O
  O102     1.0000 0.18570  0.89120  0.44940  Biso   1.000  O
  O103     1.0000 0.12180  0.26960  0.07400  Biso   1.000  O
  O104     1.0000 0.16790  0.37020  0.12100  Biso   1.000  O
  O105     1.0000 0.96580  0.14310  0.13480  Biso   1.000  O
  O106     1.0000 0.95160  0.14740  0.21410  Biso   1.000  O
  O107     1.0000 0.08790  0.48790  0.27020  Biso   1.000  O
  O108     1.0000 0.05690  0.38840  0.31980  Biso   1.000  O
  Gd7      1.0000 0.34824  0.73629  0.50658  Biso   1.000  Gd
  C127     1.0000 0.24320  0.68030  0.42010  Biso   1.000  C
  C128     1.0000 0.25550  0.64850  0.36830  Biso   1.000  C
  C129     1.0000 0.22010  0.66130  0.32520  Biso   1.000  C
  H37      1.0000 0.18780  0.68860  0.32890  Biso   1.000  H
  C130     1.0000 0.23220  0.63410  0.27730  Biso   1.000  C
  C131     1.0000 0.27800  0.58760  0.26850  Biso   1.000  C
  C132     1.0000 0.31210  0.57510  0.31250  Biso   1.000  C
  C133     1.0000 0.30390  0.60570  0.36160  Biso   1.000  C
  H38      1.0000 0.32940  0.59820  0.38890  Biso   1.000  H
  C134     1.0000 0.29180  0.55870  0.21560  Biso   1.000  C
  C135     1.0000 0.27380  0.47550  0.19460  Biso   1.000  C
  C136     1.0000 0.28730  0.44420  0.14880  Biso   1.000  C
  H39      1.0000 0.27540  0.38840  0.13710  Biso   1.000  H
  C137     1.0000 0.31820  0.49390  0.11980  Biso   1.000  C
  C138     1.0000 0.33710  0.57670  0.13860  Biso   1.000  C
  H40      1.0000 0.35890  0.61100  0.11960  Biso   1.000  H
  C139     1.0000 0.32320  0.60680  0.18550  Biso   1.000  C
  C140     1.0000 0.33470  0.46160  0.06790  Biso   1.000  C
  C141     1.0000 0.36910  0.81750  0.38740  Biso   1.000  C
  C142     1.0000 0.40780  0.80870  0.34590  Biso   1.000  C
  C143     1.0000 0.40420  0.86390  0.30430  Biso   1.000  C
  H41      1.0000 0.37800  0.90730  0.30100  Biso   1.000  H
  C144     1.0000 0.43930  0.85580  0.26680  Biso   1.000  C
  C145     1.0000 0.48010  0.79350  0.26960  Biso   1.000  C
  C146     1.0000 0.48250  0.73730  0.31310  Biso   1.000  C
  C147     1.0000 0.44700  0.74450  0.35070  Biso   1.000  C
  H42      1.0000 0.44970  0.70630  0.37890  Biso   1.000  H
  N37      1.0000 0.36270  0.52800  0.30820  Biso   1.000  N
  N38      1.0000 0.19270  0.65510  0.23470  Biso   1.000  N
  N39      1.0000 0.23980  0.41820  0.22410  Biso   1.000  N
  N40      1.0000 0.34320  0.69890  0.20080  Biso   1.000  N
  N41      1.0000 0.52480  0.67140  0.32280  Biso   1.000  N
  N42      1.0000 0.43170  0.91510  0.22200  Biso   1.000  N
  O109     1.0000 0.27780  0.67990  0.45550  Biso   1.000  O
  O110     1.0000 0.19580  0.70810  0.42370  Biso   1.000  O
  O111     1.0000 0.40100  0.55290  0.33700  Biso   1.000  O
  O112     1.0000 0.36330  0.46640  0.27810  Biso   1.000  O
  O113     1.0000 0.14860  0.67930  0.24390  Biso   1.000  O
  O114     1.0000 0.20650  0.65460  0.19010  Biso   1.000  O
  O115     1.0000 0.34630  0.71250  0.24670  Biso   1.000  O
  O116     1.0000 0.35630  0.74920  0.16820  Biso   1.000  O
  O117     1.0000 0.20460  0.45380  0.24450  Biso   1.000  O
  O118     1.0000 0.25130  0.33760  0.22550  Biso   1.000  O
  O119     1.0000 0.36870  0.50770  0.04860  Biso   1.000  O
  O120     1.0000 0.31430  0.39120  0.05060  Biso   1.000  O
  O121     1.0000 0.37820  0.76960  0.42600  Biso   1.000  O
  O122     1.0000 0.33210  0.87020  0.37900  Biso   1.000  O
  O123     1.0000 0.53420  0.64310  0.36520  Biso   1.000  O
  O124     1.0000 0.54840  0.64740  0.28590  Biso   1.000  O
  O125     1.0000 0.41210  0.98790  0.22980  Biso   1.000  O
  O126     1.0000 0.44310  0.88840  0.18020  Biso   1.000  O
  Gd8      1.0000 0.84824  0.23629  0.50658  Biso   1.000  Gd
  C148     1.0000 0.74320  0.18030  0.42010  Biso   1.000  C
  C149     1.0000 0.75550  0.14850  0.36830  Biso   1.000  C
  C150     1.0000 0.72010  0.16130  0.32520  Biso   1.000  C
  H43      1.0000 0.68780  0.18860  0.32890  Biso   1.000  H
  C151     1.0000 0.73220  0.13410  0.27730  Biso   1.000  C
  C152     1.0000 0.77800  0.08760  0.26850  Biso   1.000  C
  C153     1.0000 0.81210  0.07510  0.31250  Biso   1.000  C
  C154     1.0000 0.80390  0.10570  0.36160  Biso   1.000  C
  H44      1.0000 0.82940  0.09820  0.38890  Biso   1.000  H
  C155     1.0000 0.79180  0.05870  0.21560  Biso   1.000  C
  C156     1.0000 0.77380  0.97550  0.19460  Biso   1.000  C
  C157     1.0000 0.78730  0.94420  0.14880  Biso   1.000  C
  H45      1.0000 0.77540  0.88840  0.13710  Biso   1.000  H
  C158     1.0000 0.81820  0.99390  0.11980  Biso   1.000  C
  C159     1.0000 0.83710  0.07670  0.13860  Biso   1.000  C
  H46      1.0000 0.85890  0.11100  0.11960  Biso   1.000  H
  C160     1.0000 0.82320  0.10680  0.18550  Biso   1.000  C
  C161     1.0000 0.83470  0.96160  0.06790  Biso   1.000  C
  C162     1.0000 0.86910  0.31750  0.38740  Biso   1.000  C
  C163     1.0000 0.90780  0.30870  0.34590  Biso   1.000  C
  C164     1.0000 0.90420  0.36390  0.30430  Biso   1.000  C
  H47      1.0000 0.87800  0.40730  0.30100  Biso   1.000  H
  C165     1.0000 0.93930  0.35580  0.26680  Biso   1.000  C
  C166     1.0000 0.98010  0.29350  0.26960  Biso   1.000  C
  C167     1.0000 0.98250  0.23730  0.31310  Biso   1.000  C
  C168     1.0000 0.94700  0.24450  0.35070  Biso   1.000  C
  H48      1.0000 0.94970  0.20630  0.37890  Biso   1.000  H
  N43      1.0000 0.86270  0.02800  0.30820  Biso   1.000  N
  N44      1.0000 0.69270  0.15510  0.23470  Biso   1.000  N
  N45      1.0000 0.73980  0.91820  0.22410  Biso   1.000  N
  N46      1.0000 0.84320  0.19890  0.20080  Biso   1.000  N
  N47      1.0000 0.02480  0.17140  0.32280  Biso   1.000  N
  N48      1.0000 0.93170  0.41510  0.22200  Biso   1.000  N
  O127     1.0000 0.77780  0.17990  0.45550  Biso   1.000  O
  O128     1.0000 0.69580  0.20810  0.42370  Biso   1.000  O
  O129     1.0000 0.90100  0.05290  0.33700  Biso   1.000  O
  O130     1.0000 0.86330  0.96640  0.27810  Biso   1.000  O
  O131     1.0000 0.64860  0.17930  0.24390  Biso   1.000  O
  O132     1.0000 0.70650  0.15460  0.19010  Biso   1.000  O
  O133     1.0000 0.84630  0.21250  0.24670  Biso   1.000  O
  O134     1.0000 0.85630  0.24920  0.16820  Biso   1.000  O
  O135     1.0000 0.70460  0.95380  0.24450  Biso   1.000  O
  O136     1.0000 0.75130  0.83760  0.22550  Biso   1.000  O
  O137     1.0000 0.86870  0.00770  0.04860  Biso   1.000  O
  O138     1.0000 0.81430  0.89120  0.05060  Biso   1.000  O
  O139     1.0000 0.87820  0.26960  0.42600  Biso   1.000  O
  O140     1.0000 0.83210  0.37020  0.37900  Biso   1.000  O
  O141     1.0000 0.03420  0.14310  0.36520  Biso   1.000  O
  O142     1.0000 0.04840  0.14740  0.28590  Biso   1.000  O
  O143     1.0000 0.91210  0.48790  0.22980  Biso   1.000  O
  O144     1.0000 0.94310  0.38840  0.18020  Biso   1.000  O
