data_image0
_cell_length_a       13.137
_cell_length_b       30.227
_cell_length_c       23.326
_cell_angle_alpha    90
_cell_angle_beta     102.075
_cell_angle_gamma    90

_symmetry_space_group_name_H-M    "P 1"
_symmetry_int_tables_number       1

loop_
  _symmetry_equiv_pos_as_xyz
  'x, y, z'

loop_
  _atom_site_label
  _atom_site_occupancy
  _atom_site_fract_x
  _atom_site_fract_y
  _atom_site_fract_z
  _atom_site_thermal_displace_type
  _atom_site_B_iso_or_equiv
  _atom_site_type_symbol
  Gd1      1.0000 0.64970  0.27018  0.77143  Biso   1.000  Gd
  Gd2      1.0000 0.34925  0.24513  0.69915  Biso   1.000  Gd
  C1       1.0000 0.50890  0.24441  0.62890  Biso   1.000  C
  C2       1.0000 0.58910  0.24237  0.59080  Biso   1.000  C
  C3       1.0000 0.67390  0.27051  0.60080  Biso   1.000  C
  H1       1.0000 0.68310  0.29080  0.63150  Biso   1.000  H
  C4       1.0000 0.74450  0.26807  0.56460  Biso   1.000  C
  C5       1.0000 0.73470  0.23883  0.51770  Biso   1.000  C
  C6       1.0000 0.64690  0.21185  0.50910  Biso   1.000  C
  C7       1.0000 0.57460  0.21317  0.54420  Biso   1.000  C
  H2       1.0000 0.51680  0.19460  0.53660  Biso   1.000  H
  C8       1.0000 0.80530  0.23909  0.47490  Biso   1.000  C
  C9       1.0000 0.90210  0.21782  0.48450  Biso   1.000  C
  C10      1.0000 0.96500  0.21743  0.44400  Biso   1.000  C
  H3       1.0000 0.03060  0.20450  0.45300  Biso   1.000  H
  C11      1.0000 0.92880  0.23656  0.38970  Biso   1.000  C
  C12      1.0000 0.83330  0.25760  0.37710  Biso   1.000  C
  H4       1.0000 0.80870  0.27030  0.34060  Biso   1.000  H
  C13      1.0000 0.77490  0.25928  0.42020  Biso   1.000  C
  C14      1.0000 0.99610  0.23453  0.34490  Biso   1.000  C
  C15      1.0000 0.45740  0.34741  0.72680  Biso   1.000  C
  C16      1.0000 0.43300  0.39660  0.72890  Biso   1.000  C
  C17      1.0000 0.50660  0.42559  0.75830  Biso   1.000  C
  H5       1.0000 0.57320  0.41550  0.77480  Biso   1.000  H
  C18      1.0000 0.48180  0.46978  0.76320  Biso   1.000  C
  C19      1.0000 0.38410  0.48737  0.73960  Biso   1.000  C
  C20      1.0000 0.31210  0.45649  0.71000  Biso   1.000  C
  C21      1.0000 0.33520  0.41269  0.70440  Biso   1.000  C
  H6       1.0000 0.28470  0.39370  0.68400  Biso   1.000  H
  C22      1.0000 0.54150  0.16981  0.75320  Biso   1.000  C
  C23      1.0000 0.56540  0.12080  0.75690  Biso   1.000  C
  C24      1.0000 0.49060  0.09056  0.73170  Biso   1.000  C
  H7       1.0000 0.42400  0.10000  0.71410  Biso   1.000  H
  C25      1.0000 0.51600  0.04583  0.73310  Biso   1.000  C
  C26      1.0000 0.61380  0.02937  0.75680  Biso   1.000  C
  C27      1.0000 0.68870  0.06159  0.78070  Biso   1.000  C
  C28      1.0000 0.66450  0.10584  0.78170  Biso   1.000  C
  H8       1.0000 0.71510  0.12590  0.79920  Biso   1.000  H
  C29      1.0000 0.64050  0.98165  0.75110  Biso   1.000  C
  C30      1.0000 0.65970  0.96558  0.69860  Biso   1.000  C
  C31      1.0000 0.68590  0.92213  0.69050  Biso   1.000  C
  H9       1.0000 0.69800  0.91290  0.65440  Biso   1.000  H
  C32      1.0000 0.69420  0.89238  0.73660  Biso   1.000  C
  C33      1.0000 0.67200  0.90651  0.78940  Biso   1.000  C
  H10      1.0000 0.67550  0.88670  0.82030  Biso   1.000  H
  C34      1.0000 0.64470  0.95019  0.79570  Biso   1.000  C
  C35      1.0000 0.73060  0.84596  0.72920  Biso   1.000  C
  C36      1.0000 0.25810  0.66685  0.78510  Biso   1.000  C
  C37      1.0000 0.29790  0.62144  0.77480  Biso   1.000  C
  C38      1.0000 0.31590  0.61060  0.72020  Biso   1.000  C
  H11      1.0000 0.30680  0.63170  0.69060  Biso   1.000  H
  C39      1.0000 0.34750  0.56826  0.70970  Biso   1.000  C
  C40      1.0000 0.35630  0.53408  0.75130  Biso   1.000  C
  C41      1.0000 0.34110  0.54752  0.80570  Biso   1.000  C
  C42      1.0000 0.31490  0.59021  0.81870  Biso   1.000  C
  H12      1.0000 0.30880  0.59760  0.85650  Biso   1.000  H
  N1       1.0000 0.83140  0.29953  0.57590  Biso   1.000  N
  N2       1.0000 0.62730  0.18179  0.45860  Biso   1.000  N
  N3       1.0000 0.94110  0.19419  0.53980  Biso   1.000  N
  N4       1.0000 0.67640  0.28409  0.40560  Biso   1.000  N
  N5       1.0000 0.56300  0.49791  0.79840  Biso   1.000  N
  N6       1.0000 0.20590  0.47053  0.68260  Biso   1.000  N
  N7       1.0000 0.43290  0.01593  0.70300  Biso   1.000  N
  N8       1.0000 0.79800  0.04906  0.80120  Biso   1.000  N
  N9       1.0000 0.65450  0.99527  0.64770  Biso   1.000  N
  N10      1.0000 0.61930  0.96267  0.85190  Biso   1.000  N
  N11      1.0000 0.35460  0.51525  0.85490  Biso   1.000  N
  N12      1.0000 0.37110  0.56035  0.65190  Biso   1.000  N
  O1       1.0000 0.41970  0.23056  0.60916  Biso   1.000  O
  O2       1.0000 0.53600  0.26098  0.67969  Biso   1.000  O
  O3       1.0000 0.81470  0.33628  0.59180  Biso   1.000  O
  O4       1.0000 0.91660  0.28630  0.57040  Biso   1.000  O
  O5       1.0000 0.53750  0.17760  0.43280  Biso   1.000  O
  O6       1.0000 0.69790  0.16212  0.44470  Biso   1.000  O
  O7       1.0000 0.63500  0.28734  0.35435  Biso   1.000  O
  O8       1.0000 0.64290  0.30120  0.44512  Biso   1.000  O
  O9       1.0000 0.87750  0.18040  0.56640  Biso   1.000  O
  O10      1.0000 0.03260  0.18640  0.55400  Biso   1.000  O
  O11      1.0000 0.95500  0.24111  0.29186  Biso   1.000  O
  O12      1.0000 0.38440  0.32336  0.70105  Biso   1.000  O
  O13      1.0000 0.54730  0.33620  0.75136  Biso   1.000  O
  O14      1.0000 0.14990  0.44480  0.65390  Biso   1.000  O
  O15      1.0000 0.17420  0.50604  0.69460  Biso   1.000  O
  O16      1.0000 0.62800  0.47965  0.83620  Biso   1.000  O
  O17      1.0000 0.56120  0.53759  0.78920  Biso   1.000  O
  O18      1.0000 0.60780  0.19420  0.78422  Biso   1.000  O
  O19      1.0000 0.45910  0.18051  0.71869  Biso   1.000  O
  O20      1.0000 0.43450  0.97719  0.71810  Biso   1.000  O
  O21      1.0000 0.36800  0.03111  0.66310  Biso   1.000  O
  O22      1.0000 0.82310  0.01023  0.79790  Biso   1.000  O
  O23      1.0000 0.86110  0.07855  0.81820  Biso   1.000  O
  O24      1.0000 0.63040  0.97868  0.59922  Biso   1.000  O
  O25      1.0000 0.67410  0.03445  0.65668  Biso   1.000  O
  O26      1.0000 0.59830  0.93361  0.88300  Biso   1.000  O
  O27      1.0000 0.62010  0.00152  0.86470  Biso   1.000  O
  O28      1.0000 0.74990  0.83537  0.68078  Biso   1.000  O
  O29      1.0000 0.22390  0.69026  0.74132  Biso   1.000  O
  O30      1.0000 0.25710  0.67871  0.83690  Biso   1.000  O
  O31      1.0000 0.39350  0.59151  0.62480  Biso   1.000  O
  O32      1.0000 0.37280  0.52336  0.63470  Biso   1.000  O
  O33      1.0000 0.38790  0.52969  0.90390  Biso   1.000  O
  O34      1.0000 0.33010  0.47700  0.84380  Biso   1.000  O
  O35      1.0000 0.09050  0.22644  0.36222  Biso   1.000  O
  O36      1.0000 0.74440  0.82060  0.77305  Biso   1.000  O
  Gd3      1.0000 0.85030  0.77018  0.72857  Biso   1.000  Gd
  Gd4      1.0000 0.15075  0.74513  0.80085  Biso   1.000  Gd
  C43      1.0000 0.99110  0.74441  0.87110  Biso   1.000  C
  C44      1.0000 0.91090  0.74237  0.90920  Biso   1.000  C
  C45      1.0000 0.82610  0.77051  0.89920  Biso   1.000  C
  H13      1.0000 0.81690  0.79080  0.86850  Biso   1.000  H
  C46      1.0000 0.75550  0.76807  0.93540  Biso   1.000  C
  C47      1.0000 0.76530  0.73883  0.98230  Biso   1.000  C
  C48      1.0000 0.85310  0.71185  0.99090  Biso   1.000  C
  C49      1.0000 0.92540  0.71317  0.95580  Biso   1.000  C
  H14      1.0000 0.98320  0.69460  0.96340  Biso   1.000  H
  C50      1.0000 0.69470  0.73909  0.02510  Biso   1.000  C
  C51      1.0000 0.59790  0.71782  0.01550  Biso   1.000  C
  C52      1.0000 0.53500  0.71743  0.05600  Biso   1.000  C
  H15      1.0000 0.46940  0.70450  0.04700  Biso   1.000  H
  C53      1.0000 0.57120  0.73656  0.11030  Biso   1.000  C
  C54      1.0000 0.66670  0.75760  0.12290  Biso   1.000  C
  H16      1.0000 0.69130  0.77030  0.15940  Biso   1.000  H
  C55      1.0000 0.72510  0.75928  0.07980  Biso   1.000  C
  C56      1.0000 0.50390  0.73453  0.15510  Biso   1.000  C
  C57      1.0000 0.04260  0.84741  0.77320  Biso   1.000  C
  C58      1.0000 0.06700  0.89660  0.77110  Biso   1.000  C
  C59      1.0000 0.99340  0.92559  0.74170  Biso   1.000  C
  H17      1.0000 0.92680  0.91550  0.72520  Biso   1.000  H
  C60      1.0000 0.01820  0.96978  0.73680  Biso   1.000  C
  C61      1.0000 0.11590  0.98737  0.76040  Biso   1.000  C
  C62      1.0000 0.18790  0.95649  0.79000  Biso   1.000  C
  C63      1.0000 0.16480  0.91269  0.79560  Biso   1.000  C
  H18      1.0000 0.21530  0.89370  0.81600  Biso   1.000  H
  C64      1.0000 0.95850  0.66981  0.74680  Biso   1.000  C
  C65      1.0000 0.93460  0.62080  0.74310  Biso   1.000  C
  C66      1.0000 0.00940  0.59056  0.76830  Biso   1.000  C
  H19      1.0000 0.07600  0.60000  0.78590  Biso   1.000  H
  C67      1.0000 0.98400  0.54583  0.76690  Biso   1.000  C
  C68      1.0000 0.88620  0.52937  0.74320  Biso   1.000  C
  C69      1.0000 0.81130  0.56159  0.71930  Biso   1.000  C
  C70      1.0000 0.83550  0.60584  0.71830  Biso   1.000  C
  H20      1.0000 0.78490  0.62590  0.70080  Biso   1.000  H
  C71      1.0000 0.85950  0.48165  0.74890  Biso   1.000  C
  C72      1.0000 0.84030  0.46558  0.80140  Biso   1.000  C
  C73      1.0000 0.81410  0.42213  0.80950  Biso   1.000  C
  H21      1.0000 0.80200  0.41290  0.84560  Biso   1.000  H
  C74      1.0000 0.80580  0.39238  0.76340  Biso   1.000  C
  C75      1.0000 0.82800  0.40651  0.71060  Biso   1.000  C
  H22      1.0000 0.82450  0.38670  0.67970  Biso   1.000  H
  C76      1.0000 0.85530  0.45019  0.70430  Biso   1.000  C
  C77      1.0000 0.76940  0.34596  0.77080  Biso   1.000  C
  C78      1.0000 0.24190  0.16685  0.71490  Biso   1.000  C
  C79      1.0000 0.20210  0.12144  0.72520  Biso   1.000  C
  C80      1.0000 0.18410  0.11060  0.77980  Biso   1.000  C
  H23      1.0000 0.19320  0.13170  0.80940  Biso   1.000  H
  C81      1.0000 0.15250  0.06826  0.79030  Biso   1.000  C
  C82      1.0000 0.14370  0.03408  0.74870  Biso   1.000  C
  C83      1.0000 0.15890  0.04752  0.69430  Biso   1.000  C
  C84      1.0000 0.18510  0.09021  0.68130  Biso   1.000  C
  H24      1.0000 0.19120  0.09760  0.64350  Biso   1.000  H
  N13      1.0000 0.66860  0.79953  0.92410  Biso   1.000  N
  N14      1.0000 0.87270  0.68179  0.04140  Biso   1.000  N
  N15      1.0000 0.55890  0.69419  0.96020  Biso   1.000  N
  N16      1.0000 0.82360  0.78409  0.09440  Biso   1.000  N
  N17      1.0000 0.93700  0.99791  0.70160  Biso   1.000  N
  N18      1.0000 0.29410  0.97053  0.81740  Biso   1.000  N
  N19      1.0000 0.06710  0.51593  0.79700  Biso   1.000  N
  N20      1.0000 0.70200  0.54906  0.69880  Biso   1.000  N
  N21      1.0000 0.84550  0.49527  0.85230  Biso   1.000  N
  N22      1.0000 0.88070  0.46267  0.64810  Biso   1.000  N
  N23      1.0000 0.14540  0.01525  0.64510  Biso   1.000  N
  N24      1.0000 0.12890  0.06035  0.84810  Biso   1.000  N
  O37      1.0000 0.08030  0.73056  0.89084  Biso   1.000  O
  O38      1.0000 0.96400  0.76098  0.82031  Biso   1.000  O
  O39      1.0000 0.68530  0.83628  0.90820  Biso   1.000  O
  O40      1.0000 0.58340  0.78630  0.92960  Biso   1.000  O
  O41      1.0000 0.96250  0.67760  0.06720  Biso   1.000  O
  O42      1.0000 0.80210  0.66212  0.05530  Biso   1.000  O
  O43      1.0000 0.86500  0.78734  0.14565  Biso   1.000  O
  O44      1.0000 0.85710  0.80120  0.05488  Biso   1.000  O
  O45      1.0000 0.62250  0.68040  0.93360  Biso   1.000  O
  O46      1.0000 0.46740  0.68640  0.94600  Biso   1.000  O
  O47      1.0000 0.54500  0.74111  0.20814  Biso   1.000  O
  O48      1.0000 0.11560  0.82336  0.79895  Biso   1.000  O
  O49      1.0000 0.95270  0.83620  0.74864  Biso   1.000  O
  O50      1.0000 0.35010  0.94480  0.84610  Biso   1.000  O
  O51      1.0000 0.32580  0.00604  0.80540  Biso   1.000  O
  O52      1.0000 0.87200  0.97965  0.66380  Biso   1.000  O
  O53      1.0000 0.93880  0.03759  0.71080  Biso   1.000  O
  O54      1.0000 0.89220  0.69420  0.71578  Biso   1.000  O
  O55      1.0000 0.04090  0.68051  0.78131  Biso   1.000  O
  O56      1.0000 0.06550  0.47719  0.78190  Biso   1.000  O
  O57      1.0000 0.13200  0.53111  0.83690  Biso   1.000  O
  O58      1.0000 0.67690  0.51023  0.70210  Biso   1.000  O
  O59      1.0000 0.63890  0.57855  0.68180  Biso   1.000  O
  O60      1.0000 0.86960  0.47868  0.90078  Biso   1.000  O
  O61      1.0000 0.82590  0.53445  0.84332  Biso   1.000  O
  O62      1.0000 0.90170  0.43361  0.61700  Biso   1.000  O
  O63      1.0000 0.87990  0.50152  0.63530  Biso   1.000  O
  O64      1.0000 0.75010  0.33537  0.81922  Biso   1.000  O
  O65      1.0000 0.27610  0.19026  0.75868  Biso   1.000  O
  O66      1.0000 0.24290  0.17871  0.66310  Biso   1.000  O
  O67      1.0000 0.10650  0.09151  0.87520  Biso   1.000  O
  O68      1.0000 0.12720  0.02336  0.86530  Biso   1.000  O
  O69      1.0000 0.11210  0.02969  0.59610  Biso   1.000  O
  O70      1.0000 0.16990  0.97700  0.65620  Biso   1.000  O
  O71      1.0000 0.40950  0.72644  0.13778  Biso   1.000  O
  O72      1.0000 0.75560  0.32060  0.72695  Biso   1.000  O
  Gd5      1.0000 0.35030  0.72982  0.22857  Biso   1.000  Gd
  Gd6      1.0000 0.65075  0.75487  0.30085  Biso   1.000  Gd
  C85      1.0000 0.49110  0.75559  0.37110  Biso   1.000  C
  C86      1.0000 0.41090  0.75763  0.40920  Biso   1.000  C
  C87      1.0000 0.32610  0.72949  0.39920  Biso   1.000  C
  H25      1.0000 0.31690  0.70920  0.36850  Biso   1.000  H
  C88      1.0000 0.25550  0.73193  0.43540  Biso   1.000  C
  C89      1.0000 0.26530  0.76117  0.48230  Biso   1.000  C
  C90      1.0000 0.35310  0.78815  0.49090  Biso   1.000  C
  C91      1.0000 0.42540  0.78683  0.45580  Biso   1.000  C
  H26      1.0000 0.48320  0.80540  0.46340  Biso   1.000  H
  C92      1.0000 0.19470  0.76091  0.52510  Biso   1.000  C
  C93      1.0000 0.09790  0.78218  0.51550  Biso   1.000  C
  C94      1.0000 0.03500  0.78257  0.55600  Biso   1.000  C
  H27      1.0000 0.96940  0.79550  0.54700  Biso   1.000  H
  C95      1.0000 0.07120  0.76344  0.61030  Biso   1.000  C
  C96      1.0000 0.16670  0.74240  0.62290  Biso   1.000  C
  H28      1.0000 0.19130  0.72970  0.65940  Biso   1.000  H
  C97      1.0000 0.22510  0.74072  0.57980  Biso   1.000  C
  C98      1.0000 0.00390  0.76547  0.65510  Biso   1.000  C
  C99      1.0000 0.54260  0.65259  0.27320  Biso   1.000  C
  C100     1.0000 0.56700  0.60340  0.27110  Biso   1.000  C
  C101     1.0000 0.49340  0.57441  0.24170  Biso   1.000  C
  H29      1.0000 0.42680  0.58450  0.22520  Biso   1.000  H
  C102     1.0000 0.51820  0.53022  0.23680  Biso   1.000  C
  C103     1.0000 0.61590  0.51263  0.26040  Biso   1.000  C
  C104     1.0000 0.68790  0.54351  0.29000  Biso   1.000  C
  C105     1.0000 0.66480  0.58731  0.29560  Biso   1.000  C
  H30      1.0000 0.71530  0.60630  0.31600  Biso   1.000  H
  C106     1.0000 0.45850  0.83019  0.24680  Biso   1.000  C
  C107     1.0000 0.43460  0.87920  0.24310  Biso   1.000  C
  C108     1.0000 0.50940  0.90944  0.26830  Biso   1.000  C
  H31      1.0000 0.57600  0.90000  0.28590  Biso   1.000  H
  C109     1.0000 0.48400  0.95417  0.26690  Biso   1.000  C
  C110     1.0000 0.38620  0.97063  0.24320  Biso   1.000  C
  C111     1.0000 0.31130  0.93841  0.21930  Biso   1.000  C
  C112     1.0000 0.33550  0.89416  0.21830  Biso   1.000  C
  H32      1.0000 0.28490  0.87410  0.20080  Biso   1.000  H
  C113     1.0000 0.35950  0.01835  0.24890  Biso   1.000  C
  C114     1.0000 0.34030  0.03442  0.30140  Biso   1.000  C
  C115     1.0000 0.31410  0.07787  0.30950  Biso   1.000  C
  H33      1.0000 0.30200  0.08710  0.34560  Biso   1.000  H
  C116     1.0000 0.30580  0.10762  0.26340  Biso   1.000  C
  C117     1.0000 0.32800  0.09349  0.21060  Biso   1.000  C
  H34      1.0000 0.32450  0.11330  0.17970  Biso   1.000  H
  C118     1.0000 0.35530  0.04981  0.20430  Biso   1.000  C
  C119     1.0000 0.26940  0.15404  0.27080  Biso   1.000  C
  C120     1.0000 0.74190  0.33315  0.21490  Biso   1.000  C
  C121     1.0000 0.70210  0.37856  0.22520  Biso   1.000  C
  C122     1.0000 0.68410  0.38940  0.27980  Biso   1.000  C
  H35      1.0000 0.69320  0.36830  0.30940  Biso   1.000  H
  C123     1.0000 0.65250  0.43174  0.29030  Biso   1.000  C
  C124     1.0000 0.64370  0.46592  0.24870  Biso   1.000  C
  C125     1.0000 0.65890  0.45248  0.19430  Biso   1.000  C
  C126     1.0000 0.68510  0.40979  0.18130  Biso   1.000  C
  H36      1.0000 0.69120  0.40240  0.14350  Biso   1.000  H
  N25      1.0000 0.16860  0.70047  0.42410  Biso   1.000  N
  N26      1.0000 0.37270  0.81821  0.54140  Biso   1.000  N
  N27      1.0000 0.05890  0.80581  0.46020  Biso   1.000  N
  N28      1.0000 0.32360  0.71591  0.59440  Biso   1.000  N
  N29      1.0000 0.43700  0.50209  0.20160  Biso   1.000  N
  N30      1.0000 0.79410  0.52947  0.31740  Biso   1.000  N
  N31      1.0000 0.56710  0.98407  0.29700  Biso   1.000  N
  N32      1.0000 0.20200  0.95094  0.19880  Biso   1.000  N
  N33      1.0000 0.34550  0.00473  0.35230  Biso   1.000  N
  N34      1.0000 0.38070  0.03733  0.14810  Biso   1.000  N
  N35      1.0000 0.64540  0.48475  0.14510  Biso   1.000  N
  N36      1.0000 0.62890  0.43965  0.34810  Biso   1.000  N
  O73      1.0000 0.58030  0.76944  0.39084  Biso   1.000  O
  O74      1.0000 0.46400  0.73902  0.32031  Biso   1.000  O
  O75      1.0000 0.18530  0.66372  0.40820  Biso   1.000  O
  O76      1.0000 0.08340  0.71370  0.42960  Biso   1.000  O
  O77      1.0000 0.46250  0.82240  0.56720  Biso   1.000  O
  O78      1.0000 0.30210  0.83788  0.55530  Biso   1.000  O
  O79      1.0000 0.36500  0.71266  0.64565  Biso   1.000  O
  O80      1.0000 0.35710  0.69880  0.55488  Biso   1.000  O
  O81      1.0000 0.12250  0.81960  0.43360  Biso   1.000  O
  O82      1.0000 0.96740  0.81360  0.44600  Biso   1.000  O
  O83      1.0000 0.04500  0.75889  0.70814  Biso   1.000  O
  O84      1.0000 0.61560  0.67664  0.29895  Biso   1.000  O
  O85      1.0000 0.45270  0.66380  0.24864  Biso   1.000  O
  O86      1.0000 0.85010  0.55520  0.34610  Biso   1.000  O
  O87      1.0000 0.82580  0.49396  0.30540  Biso   1.000  O
  O88      1.0000 0.37200  0.52035  0.16380  Biso   1.000  O
  O89      1.0000 0.43880  0.46241  0.21080  Biso   1.000  O
  O90      1.0000 0.39220  0.80580  0.21578  Biso   1.000  O
  O91      1.0000 0.54090  0.81949  0.28131  Biso   1.000  O
  O92      1.0000 0.56550  0.02281  0.28190  Biso   1.000  O
  O93      1.0000 0.63200  0.96889  0.33690  Biso   1.000  O
  O94      1.0000 0.17690  0.98977  0.20210  Biso   1.000  O
  O95      1.0000 0.13890  0.92145  0.18180  Biso   1.000  O
  O96      1.0000 0.36960  0.02132  0.40078  Biso   1.000  O
  O97      1.0000 0.32590  0.96555  0.34332  Biso   1.000  O
  O98      1.0000 0.40170  0.06639  0.11700  Biso   1.000  O
  O99      1.0000 0.37990  0.99848  0.13530  Biso   1.000  O
  O100     1.0000 0.25010  0.16463  0.31922  Biso   1.000  O
  O101     1.0000 0.77610  0.30974  0.25868  Biso   1.000  O
  O102     1.0000 0.74290  0.32129  0.16310  Biso   1.000  O
  O103     1.0000 0.60650  0.40849  0.37520  Biso   1.000  O
  O104     1.0000 0.62720  0.47664  0.36530  Biso   1.000  O
  O105     1.0000 0.61210  0.47031  0.09610  Biso   1.000  O
  O106     1.0000 0.66990  0.52300  0.15620  Biso   1.000  O
  O107     1.0000 0.90950  0.77356  0.63778  Biso   1.000  O
  O108     1.0000 0.25560  0.17940  0.22695  Biso   1.000  O
  Gd7      1.0000 0.14970  0.22982  0.27143  Biso   1.000  Gd
  Gd8      1.0000 0.84925  0.25487  0.19915  Biso   1.000  Gd
  C127     1.0000 0.00890  0.25559  0.12890  Biso   1.000  C
  C128     1.0000 0.08910  0.25763  0.09080  Biso   1.000  C
  C129     1.0000 0.17390  0.22949  0.10080  Biso   1.000  C
  H37      1.0000 0.18310  0.20920  0.13150  Biso   1.000  H
  C130     1.0000 0.24450  0.23193  0.06460  Biso   1.000  C
  C131     1.0000 0.23470  0.26117  0.01770  Biso   1.000  C
  C132     1.0000 0.14690  0.28815  0.00910  Biso   1.000  C
  C133     1.0000 0.07460  0.28683  0.04420  Biso   1.000  C
  H38      1.0000 0.01680  0.30540  0.03660  Biso   1.000  H
  C134     1.0000 0.30530  0.26091  0.97490  Biso   1.000  C
  C135     1.0000 0.40210  0.28218  0.98450  Biso   1.000  C
  C136     1.0000 0.46500  0.28257  0.94400  Biso   1.000  C
  H39      1.0000 0.53060  0.29550  0.95300  Biso   1.000  H
  C137     1.0000 0.42880  0.26344  0.88970  Biso   1.000  C
  C138     1.0000 0.33330  0.24240  0.87710  Biso   1.000  C
  H40      1.0000 0.30870  0.22970  0.84060  Biso   1.000  H
  C139     1.0000 0.27490  0.24072  0.92020  Biso   1.000  C
  C140     1.0000 0.49610  0.26547  0.84490  Biso   1.000  C
  C141     1.0000 0.95740  0.15259  0.22680  Biso   1.000  C
  C142     1.0000 0.93300  0.10340  0.22890  Biso   1.000  C
  C143     1.0000 0.00660  0.07441  0.25830  Biso   1.000  C
  H41      1.0000 0.07320  0.08450  0.27480  Biso   1.000  H
  C144     1.0000 0.98180  0.03022  0.26320  Biso   1.000  C
  C145     1.0000 0.88410  0.01263  0.23960  Biso   1.000  C
  C146     1.0000 0.81210  0.04351  0.21000  Biso   1.000  C
  C147     1.0000 0.83520  0.08731  0.20440  Biso   1.000  C
  H42      1.0000 0.78470  0.10630  0.18400  Biso   1.000  H
  C148     1.0000 0.04150  0.33019  0.25320  Biso   1.000  C
  C149     1.0000 0.06540  0.37920  0.25690  Biso   1.000  C
  C150     1.0000 0.99060  0.40944  0.23170  Biso   1.000  C
  H43      1.0000 0.92400  0.40000  0.21410  Biso   1.000  H
  C151     1.0000 0.01600  0.45417  0.23310  Biso   1.000  C
  C152     1.0000 0.11380  0.47063  0.25680  Biso   1.000  C
  C153     1.0000 0.18870  0.43841  0.28070  Biso   1.000  C
  C154     1.0000 0.16450  0.39416  0.28170  Biso   1.000  C
  H44      1.0000 0.21510  0.37410  0.29920  Biso   1.000  H
  C155     1.0000 0.14050  0.51835  0.25110  Biso   1.000  C
  C156     1.0000 0.15970  0.53442  0.19860  Biso   1.000  C
  C157     1.0000 0.18590  0.57787  0.19050  Biso   1.000  C
  H45      1.0000 0.19800  0.58710  0.15440  Biso   1.000  H
  C158     1.0000 0.19420  0.60762  0.23660  Biso   1.000  C
  C159     1.0000 0.17200  0.59349  0.28940  Biso   1.000  C
  H46      1.0000 0.17550  0.61330  0.32030  Biso   1.000  H
  C160     1.0000 0.14470  0.54981  0.29570  Biso   1.000  C
  C161     1.0000 0.23060  0.65404  0.22920  Biso   1.000  C
  C162     1.0000 0.75810  0.83315  0.28510  Biso   1.000  C
  C163     1.0000 0.79790  0.87856  0.27480  Biso   1.000  C
  C164     1.0000 0.81590  0.88940  0.22020  Biso   1.000  C
  H47      1.0000 0.80680  0.86830  0.19060  Biso   1.000  H
  C165     1.0000 0.84750  0.93174  0.20970  Biso   1.000  C
  C166     1.0000 0.85630  0.96592  0.25130  Biso   1.000  C
  C167     1.0000 0.84110  0.95248  0.30570  Biso   1.000  C
  C168     1.0000 0.81490  0.90979  0.31870  Biso   1.000  C
  H48      1.0000 0.80880  0.90240  0.35650  Biso   1.000  H
  N37      1.0000 0.33140  0.20047  0.07590  Biso   1.000  N
  N38      1.0000 0.12730  0.31821  0.95860  Biso   1.000  N
  N39      1.0000 0.44110  0.30581  0.03980  Biso   1.000  N
  N40      1.0000 0.17640  0.21591  0.90560  Biso   1.000  N
  N41      1.0000 0.06300  0.00209  0.29840  Biso   1.000  N
  N42      1.0000 0.70590  0.02947  0.18260  Biso   1.000  N
  N43      1.0000 0.93290  0.48407  0.20300  Biso   1.000  N
  N44      1.0000 0.29800  0.45094  0.30120  Biso   1.000  N
  N45      1.0000 0.15450  0.50473  0.14770  Biso   1.000  N
  N46      1.0000 0.11930  0.53733  0.35190  Biso   1.000  N
  N47      1.0000 0.85460  0.98475  0.35490  Biso   1.000  N
  N48      1.0000 0.87110  0.93965  0.15190  Biso   1.000  N
  O109     1.0000 0.91970  0.26944  0.10916  Biso   1.000  O
  O110     1.0000 0.03600  0.23902  0.17969  Biso   1.000  O
  O111     1.0000 0.31470  0.16372  0.09180  Biso   1.000  O
  O112     1.0000 0.41660  0.21370  0.07040  Biso   1.000  O
  O113     1.0000 0.03750  0.32240  0.93280  Biso   1.000  O
  O114     1.0000 0.19790  0.33788  0.94470  Biso   1.000  O
  O115     1.0000 0.13500  0.21266  0.85435  Biso   1.000  O
  O116     1.0000 0.14290  0.19880  0.94512  Biso   1.000  O
  O117     1.0000 0.37750  0.31960  0.06640  Biso   1.000  O
  O118     1.0000 0.53260  0.31360  0.05400  Biso   1.000  O
  O119     1.0000 0.45500  0.25889  0.79186  Biso   1.000  O
  O120     1.0000 0.88440  0.17664  0.20105  Biso   1.000  O
  O121     1.0000 0.04730  0.16380  0.25136  Biso   1.000  O
  O122     1.0000 0.64990  0.05520  0.15390  Biso   1.000  O
  O123     1.0000 0.67420  0.99396  0.19460  Biso   1.000  O
  O124     1.0000 0.12800  0.02035  0.33620  Biso   1.000  O
  O125     1.0000 0.06120  0.96241  0.28920  Biso   1.000  O
  O126     1.0000 0.10780  0.30580  0.28422  Biso   1.000  O
  O127     1.0000 0.95910  0.31949  0.21869  Biso   1.000  O
  O128     1.0000 0.93450  0.52281  0.21810  Biso   1.000  O
  O129     1.0000 0.86800  0.46889  0.16310  Biso   1.000  O
  O130     1.0000 0.32310  0.48977  0.29790  Biso   1.000  O
  O131     1.0000 0.36110  0.42145  0.31820  Biso   1.000  O
  O132     1.0000 0.13040  0.52132  0.09922  Biso   1.000  O
  O133     1.0000 0.17410  0.46555  0.15668  Biso   1.000  O
  O134     1.0000 0.09830  0.56639  0.38300  Biso   1.000  O
  O135     1.0000 0.12010  0.49848  0.36470  Biso   1.000  O
  O136     1.0000 0.24990  0.66463  0.18078  Biso   1.000  O
  O137     1.0000 0.72390  0.80974  0.24132  Biso   1.000  O
  O138     1.0000 0.75710  0.82129  0.33690  Biso   1.000  O
  O139     1.0000 0.89350  0.90849  0.12480  Biso   1.000  O
  O140     1.0000 0.87280  0.97664  0.13470  Biso   1.000  O
  O141     1.0000 0.88790  0.97031  0.40390  Biso   1.000  O
  O142     1.0000 0.83010  0.02300  0.34380  Biso   1.000  O
  O143     1.0000 0.59050  0.27356  0.86222  Biso   1.000  O
  O144     1.0000 0.24440  0.67940  0.27305  Biso   1.000  O
