data_image0
_cell_length_a       25.179
_cell_length_b       14.747
_cell_length_c       26.053
_cell_angle_alpha    90
_cell_angle_beta     94.964
_cell_angle_gamma    90

_symmetry_space_group_name_H-M    "P 1"
_symmetry_int_tables_number       1

loop_
  _symmetry_equiv_pos_as_xyz
  'x, y, z'

loop_
  _atom_site_label
  _atom_site_occupancy
  _atom_site_fract_x
  _atom_site_fract_y
  _atom_site_fract_z
  _atom_site_thermal_displace_type
  _atom_site_B_iso_or_equiv
  _atom_site_type_symbol
  Gd1      1.0000 0.85025  0.24571  0.00708  Biso   1.000  Gd
  C1       1.0000 0.84180  0.04130  0.06990  Biso   1.000  C
  C2       1.0000 0.82410  0.00750  0.12050  Biso   1.000  C
  C3       1.0000 0.79480  0.06100  0.15030  Biso   1.000  C
  H1       1.0000 0.78410  0.11830  0.13870  Biso   1.000  H
  C4       1.0000 0.78110  0.03060  0.19760  Biso   1.000  C
  C5       1.0000 0.79520  0.94440  0.21730  Biso   1.000  C
  C6       1.0000 0.82440  0.89220  0.18500  Biso   1.000  C
  C7       1.0000 0.83880  0.92090  0.13810  Biso   1.000  C
  H2       1.0000 0.85820  0.88300  0.11820  Biso   1.000  H
  C8       1.0000 0.78160  0.91500  0.26970  Biso   1.000  C
  C9       1.0000 0.81790  0.92360  0.31290  Biso   1.000  C
  C10      1.0000 0.80800  0.89290  0.36160  Biso   1.000  C
  H3       1.0000 0.83390  0.89800  0.38910  Biso   1.000  H
  C11      1.0000 0.75880  0.85480  0.36850  Biso   1.000  C
  C12      1.0000 0.72160  0.84660  0.32730  Biso   1.000  C
  H4       1.0000 0.68820  0.82250  0.33190  Biso   1.000  H
  C13      1.0000 0.73350  0.87430  0.27870  Biso   1.000  C
  C14      1.0000 0.86690  0.32560  0.88570  Biso   1.000  C
  C15      1.0000 0.90660  0.31880  0.84550  Biso   1.000  C
  C16      1.0000 0.94750  0.25660  0.85070  Biso   1.000  C
  H5       1.0000 0.95140  0.21900  0.87940  Biso   1.000  H
  C17      1.0000 0.98260  0.25020  0.81310  Biso   1.000  C
  C18      1.0000 0.97970  0.30400  0.76960  Biso   1.000  C
  C19      1.0000 0.93770  0.36620  0.76550  Biso   1.000  C
  C20      1.0000 0.90110  0.37290  0.80300  Biso   1.000  C
  H6       1.0000 0.87310  0.41420  0.79880  Biso   1.000  H
  C21      1.0000 0.74560  0.82280  0.42160  Biso   1.000  C
  N1       1.0000 0.75140  0.09130  0.22810  Biso   1.000  N
  N2       1.0000 0.83980  0.79890  0.19990  Biso   1.000  N
  N3       1.0000 0.86960  0.96590  0.30870  Biso   1.000  N
  N4       1.0000 0.69310  0.85500  0.23620  Biso   1.000  N
  N5       1.0000 0.92820  0.42510  0.72090  Biso   1.000  N
  N6       1.0000 0.02560  0.18300  0.82190  Biso   1.000  N
  O1       1.0000 0.82150  0.11400  0.05331  Biso   1.000  O
  O2       1.0000 0.87660  0.99630  0.05031  Biso   1.000  O
  O3       1.0000 0.76500  0.17040  0.22960  Biso   1.000  O
  O4       1.0000 0.84240  0.77870  0.24530  Biso   1.000  O
  O5       1.0000 0.85090  0.74720  0.16610  Biso   1.000  O
  O6       1.0000 0.70640  0.85840  0.19220  Biso   1.000  O
  O7       1.0000 0.64910  0.83090  0.24633  Biso   1.000  O
  O8       1.0000 0.87270  0.02790  0.27750  Biso   1.000  O
  O9       1.0000 0.90760  0.93830  0.33640  Biso   1.000  O
  O10      1.0000 0.87940  0.28150  0.92671  Biso   1.000  O
  O11      1.0000 0.82670  0.37150  0.87599  Biso   1.000  O
  O12      1.0000 0.03610  0.15620  0.86570  Biso   1.000  O
  O13      1.0000 0.04910  0.15770  0.78565  Biso   1.000  O
  O14      1.0000 0.90310  0.49190  0.72490  Biso   1.000  O
  O15      1.0000 0.94310  0.39890  0.68020  Biso   1.000  O
  O16      1.0000 0.69930  0.79620  0.42488  Biso   1.000  O
  O17      1.0000 0.78249  0.82360  0.45673  Biso   1.000  O
  O18      1.0000 0.71440  0.06080  0.25040  Biso   1.000  O
  Gd2      1.0000 0.35025  0.74571  0.00708  Biso   1.000  Gd
  C22      1.0000 0.34180  0.54130  0.06990  Biso   1.000  C
  C23      1.0000 0.32410  0.50750  0.12050  Biso   1.000  C
  C24      1.0000 0.29480  0.56100  0.15030  Biso   1.000  C
  H7       1.0000 0.28410  0.61830  0.13870  Biso   1.000  H
  C25      1.0000 0.28110  0.53060  0.19760  Biso   1.000  C
  C26      1.0000 0.29520  0.44440  0.21730  Biso   1.000  C
  C27      1.0000 0.32440  0.39220  0.18500  Biso   1.000  C
  C28      1.0000 0.33880  0.42090  0.13810  Biso   1.000  C
  H8       1.0000 0.35820  0.38300  0.11820  Biso   1.000  H
  C29      1.0000 0.28160  0.41500  0.26970  Biso   1.000  C
  C30      1.0000 0.31790  0.42360  0.31290  Biso   1.000  C
  C31      1.0000 0.30800  0.39290  0.36160  Biso   1.000  C
  H9       1.0000 0.33390  0.39800  0.38910  Biso   1.000  H
  C32      1.0000 0.25880  0.35480  0.36850  Biso   1.000  C
  C33      1.0000 0.22160  0.34660  0.32730  Biso   1.000  C
  H10      1.0000 0.18820  0.32250  0.33190  Biso   1.000  H
  C34      1.0000 0.23350  0.37430  0.27870  Biso   1.000  C
  C35      1.0000 0.36690  0.82560  0.88570  Biso   1.000  C
  C36      1.0000 0.40660  0.81880  0.84550  Biso   1.000  C
  C37      1.0000 0.44750  0.75660  0.85070  Biso   1.000  C
  H11      1.0000 0.45140  0.71900  0.87940  Biso   1.000  H
  C38      1.0000 0.48260  0.75020  0.81310  Biso   1.000  C
  C39      1.0000 0.47970  0.80400  0.76960  Biso   1.000  C
  C40      1.0000 0.43770  0.86620  0.76550  Biso   1.000  C
  C41      1.0000 0.40110  0.87290  0.80300  Biso   1.000  C
  H12      1.0000 0.37310  0.91420  0.79880  Biso   1.000  H
  C42      1.0000 0.24560  0.32280  0.42160  Biso   1.000  C
  N7       1.0000 0.25140  0.59130  0.22810  Biso   1.000  N
  N8       1.0000 0.33980  0.29890  0.19990  Biso   1.000  N
  N9       1.0000 0.36960  0.46590  0.30870  Biso   1.000  N
  N10      1.0000 0.19310  0.35500  0.23620  Biso   1.000  N
  N11      1.0000 0.42820  0.92510  0.72090  Biso   1.000  N
  N12      1.0000 0.52560  0.68300  0.82190  Biso   1.000  N
  O19      1.0000 0.32150  0.61400  0.05331  Biso   1.000  O
  O20      1.0000 0.37660  0.49630  0.05031  Biso   1.000  O
  O21      1.0000 0.26500  0.67040  0.22960  Biso   1.000  O
  O22      1.0000 0.34240  0.27870  0.24530  Biso   1.000  O
  O23      1.0000 0.35090  0.24720  0.16610  Biso   1.000  O
  O24      1.0000 0.20640  0.35840  0.19220  Biso   1.000  O
  O25      1.0000 0.14910  0.33090  0.24633  Biso   1.000  O
  O26      1.0000 0.37270  0.52790  0.27750  Biso   1.000  O
  O27      1.0000 0.40760  0.43830  0.33640  Biso   1.000  O
  O28      1.0000 0.37940  0.78150  0.92671  Biso   1.000  O
  O29      1.0000 0.32670  0.87150  0.87599  Biso   1.000  O
  O30      1.0000 0.53610  0.65620  0.86570  Biso   1.000  O
  O31      1.0000 0.54910  0.65770  0.78565  Biso   1.000  O
  O32      1.0000 0.40310  0.99190  0.72490  Biso   1.000  O
  O33      1.0000 0.44310  0.89890  0.68020  Biso   1.000  O
  O34      1.0000 0.19930  0.29620  0.42488  Biso   1.000  O
  O35      1.0000 0.28249  0.32360  0.45673  Biso   1.000  O
  O36      1.0000 0.21440  0.56080  0.25040  Biso   1.000  O
  Gd3      1.0000 0.14975  0.24571  0.49292  Biso   1.000  Gd
  C43      1.0000 0.15820  0.04130  0.43010  Biso   1.000  C
  C44      1.0000 0.17590  0.00750  0.37950  Biso   1.000  C
  C45      1.0000 0.20520  0.06100  0.34970  Biso   1.000  C
  H13      1.0000 0.21590  0.11830  0.36130  Biso   1.000  H
  C46      1.0000 0.21890  0.03060  0.30240  Biso   1.000  C
  C47      1.0000 0.20480  0.94440  0.28270  Biso   1.000  C
  C48      1.0000 0.17560  0.89220  0.31500  Biso   1.000  C
  C49      1.0000 0.16120  0.92090  0.36190  Biso   1.000  C
  H14      1.0000 0.14180  0.88300  0.38180  Biso   1.000  H
  C50      1.0000 0.21840  0.91500  0.23030  Biso   1.000  C
  C51      1.0000 0.18210  0.92360  0.18710  Biso   1.000  C
  C52      1.0000 0.19200  0.89290  0.13840  Biso   1.000  C
  H15      1.0000 0.16610  0.89800  0.11090  Biso   1.000  H
  C53      1.0000 0.24120  0.85480  0.13150  Biso   1.000  C
  C54      1.0000 0.27840  0.84660  0.17270  Biso   1.000  C
  H16      1.0000 0.31180  0.82250  0.16810  Biso   1.000  H
  C55      1.0000 0.26650  0.87430  0.22130  Biso   1.000  C
  C56      1.0000 0.13310  0.32560  0.61430  Biso   1.000  C
  C57      1.0000 0.09340  0.31880  0.65450  Biso   1.000  C
  C58      1.0000 0.05250  0.25660  0.64930  Biso   1.000  C
  H17      1.0000 0.04860  0.21900  0.62060  Biso   1.000  H
  C59      1.0000 0.01740  0.25020  0.68690  Biso   1.000  C
  C60      1.0000 0.02030  0.30400  0.73040  Biso   1.000  C
  C61      1.0000 0.06230  0.36620  0.73450  Biso   1.000  C
  C62      1.0000 0.09890  0.37290  0.69700  Biso   1.000  C
  H18      1.0000 0.12690  0.41420  0.70120  Biso   1.000  H
  C63      1.0000 0.25440  0.82280  0.07840  Biso   1.000  C
  N13      1.0000 0.24860  0.09130  0.27190  Biso   1.000  N
  N14      1.0000 0.16020  0.79890  0.30010  Biso   1.000  N
  N15      1.0000 0.13040  0.96590  0.19130  Biso   1.000  N
  N16      1.0000 0.30690  0.85500  0.26380  Biso   1.000  N
  N17      1.0000 0.07180  0.42510  0.77910  Biso   1.000  N
  N18      1.0000 0.97440  0.18300  0.67810  Biso   1.000  N
  O37      1.0000 0.17850  0.11400  0.44669  Biso   1.000  O
  O38      1.0000 0.12340  0.99630  0.44969  Biso   1.000  O
  O39      1.0000 0.23500  0.17040  0.27040  Biso   1.000  O
  O40      1.0000 0.15760  0.77870  0.25470  Biso   1.000  O
  O41      1.0000 0.14910  0.74720  0.33390  Biso   1.000  O
  O42      1.0000 0.29360  0.85840  0.30780  Biso   1.000  O
  O43      1.0000 0.35090  0.83090  0.25367  Biso   1.000  O
  O44      1.0000 0.12730  0.02790  0.22250  Biso   1.000  O
  O45      1.0000 0.09240  0.93830  0.16360  Biso   1.000  O
  O46      1.0000 0.12060  0.28150  0.57329  Biso   1.000  O
  O47      1.0000 0.17330  0.37150  0.62401  Biso   1.000  O
  O48      1.0000 0.96390  0.15620  0.63430  Biso   1.000  O
  O49      1.0000 0.95090  0.15770  0.71435  Biso   1.000  O
  O50      1.0000 0.09690  0.49190  0.77510  Biso   1.000  O
  O51      1.0000 0.05690  0.39890  0.81980  Biso   1.000  O
  O52      1.0000 0.30070  0.79620  0.07512  Biso   1.000  O
  O53      1.0000 0.21751  0.82360  0.04327  Biso   1.000  O
  O54      1.0000 0.28560  0.06080  0.24960  Biso   1.000  O
  Gd4      1.0000 0.64975  0.74571  0.49292  Biso   1.000  Gd
  C64      1.0000 0.65820  0.54130  0.43010  Biso   1.000  C
  C65      1.0000 0.67590  0.50750  0.37950  Biso   1.000  C
  C66      1.0000 0.70520  0.56100  0.34970  Biso   1.000  C
  H19      1.0000 0.71590  0.61830  0.36130  Biso   1.000  H
  C67      1.0000 0.71890  0.53060  0.30240  Biso   1.000  C
  C68      1.0000 0.70480  0.44440  0.28270  Biso   1.000  C
  C69      1.0000 0.67560  0.39220  0.31500  Biso   1.000  C
  C70      1.0000 0.66120  0.42090  0.36190  Biso   1.000  C
  H20      1.0000 0.64180  0.38300  0.38180  Biso   1.000  H
  C71      1.0000 0.71840  0.41500  0.23030  Biso   1.000  C
  C72      1.0000 0.68210  0.42360  0.18710  Biso   1.000  C
  C73      1.0000 0.69200  0.39290  0.13840  Biso   1.000  C
  H21      1.0000 0.66610  0.39800  0.11090  Biso   1.000  H
  C74      1.0000 0.74120  0.35480  0.13150  Biso   1.000  C
  C75      1.0000 0.77840  0.34660  0.17270  Biso   1.000  C
  H22      1.0000 0.81180  0.32250  0.16810  Biso   1.000  H
  C76      1.0000 0.76650  0.37430  0.22130  Biso   1.000  C
  C77      1.0000 0.63310  0.82560  0.61430  Biso   1.000  C
  C78      1.0000 0.59340  0.81880  0.65450  Biso   1.000  C
  C79      1.0000 0.55250  0.75660  0.64930  Biso   1.000  C
  H23      1.0000 0.54860  0.71900  0.62060  Biso   1.000  H
  C80      1.0000 0.51740  0.75020  0.68690  Biso   1.000  C
  C81      1.0000 0.52030  0.80400  0.73040  Biso   1.000  C
  C82      1.0000 0.56230  0.86620  0.73450  Biso   1.000  C
  C83      1.0000 0.59890  0.87290  0.69700  Biso   1.000  C
  H24      1.0000 0.62690  0.91420  0.70120  Biso   1.000  H
  C84      1.0000 0.75440  0.32280  0.07840  Biso   1.000  C
  N19      1.0000 0.74860  0.59130  0.27190  Biso   1.000  N
  N20      1.0000 0.66020  0.29890  0.30010  Biso   1.000  N
  N21      1.0000 0.63040  0.46590  0.19130  Biso   1.000  N
  N22      1.0000 0.80690  0.35500  0.26380  Biso   1.000  N
  N23      1.0000 0.57180  0.92510  0.77910  Biso   1.000  N
  N24      1.0000 0.47440  0.68300  0.67810  Biso   1.000  N
  O55      1.0000 0.67850  0.61400  0.44669  Biso   1.000  O
  O56      1.0000 0.62340  0.49630  0.44969  Biso   1.000  O
  O57      1.0000 0.73500  0.67040  0.27040  Biso   1.000  O
  O58      1.0000 0.65760  0.27870  0.25470  Biso   1.000  O
  O59      1.0000 0.64910  0.24720  0.33390  Biso   1.000  O
  O60      1.0000 0.79360  0.35840  0.30780  Biso   1.000  O
  O61      1.0000 0.85090  0.33090  0.25367  Biso   1.000  O
  O62      1.0000 0.62730  0.52790  0.22250  Biso   1.000  O
  O63      1.0000 0.59240  0.43830  0.16360  Biso   1.000  O
  O64      1.0000 0.62060  0.78150  0.57329  Biso   1.000  O
  O65      1.0000 0.67330  0.87150  0.62401  Biso   1.000  O
  O66      1.0000 0.46390  0.65620  0.63430  Biso   1.000  O
  O67      1.0000 0.45090  0.65770  0.71435  Biso   1.000  O
  O68      1.0000 0.59690  0.99190  0.77510  Biso   1.000  O
  O69      1.0000 0.55690  0.89890  0.81980  Biso   1.000  O
  O70      1.0000 0.80070  0.29620  0.07512  Biso   1.000  O
  O71      1.0000 0.71751  0.32360  0.04327  Biso   1.000  O
  O72      1.0000 0.78560  0.56080  0.24960  Biso   1.000  O
  Gd5      1.0000 0.14975  0.75429  0.99292  Biso   1.000  Gd
  C85      1.0000 0.15820  0.95870  0.93010  Biso   1.000  C
  C86      1.0000 0.17590  0.99250  0.87950  Biso   1.000  C
  C87      1.0000 0.20520  0.93900  0.84970  Biso   1.000  C
  H25      1.0000 0.21590  0.88170  0.86130  Biso   1.000  H
  C88      1.0000 0.21890  0.96940  0.80240  Biso   1.000  C
  C89      1.0000 0.20480  0.05560  0.78270  Biso   1.000  C
  C90      1.0000 0.17560  0.10780  0.81500  Biso   1.000  C
  C91      1.0000 0.16120  0.07910  0.86190  Biso   1.000  C
  H26      1.0000 0.14180  0.11700  0.88180  Biso   1.000  H
  C92      1.0000 0.21840  0.08500  0.73030  Biso   1.000  C
  C93      1.0000 0.18210  0.07640  0.68710  Biso   1.000  C
  C94      1.0000 0.19200  0.10710  0.63840  Biso   1.000  C
  H27      1.0000 0.16610  0.10200  0.61090  Biso   1.000  H
  C95      1.0000 0.24120  0.14520  0.63150  Biso   1.000  C
  C96      1.0000 0.27840  0.15340  0.67270  Biso   1.000  C
  H28      1.0000 0.31180  0.17750  0.66810  Biso   1.000  H
  C97      1.0000 0.26650  0.12570  0.72130  Biso   1.000  C
  C98      1.0000 0.13310  0.67440  0.11430  Biso   1.000  C
  C99      1.0000 0.09340  0.68120  0.15450  Biso   1.000  C
  C100     1.0000 0.05250  0.74340  0.14930  Biso   1.000  C
  H29      1.0000 0.04860  0.78100  0.12060  Biso   1.000  H
  C101     1.0000 0.01740  0.74980  0.18690  Biso   1.000  C
  C102     1.0000 0.02030  0.69600  0.23040  Biso   1.000  C
  C103     1.0000 0.06230  0.63380  0.23450  Biso   1.000  C
  C104     1.0000 0.09890  0.62710  0.19700  Biso   1.000  C
  H30      1.0000 0.12690  0.58580  0.20120  Biso   1.000  H
  C105     1.0000 0.25440  0.17720  0.57840  Biso   1.000  C
  N25      1.0000 0.24860  0.90870  0.77190  Biso   1.000  N
  N26      1.0000 0.16020  0.20110  0.80010  Biso   1.000  N
  N27      1.0000 0.13040  0.03410  0.69130  Biso   1.000  N
  N28      1.0000 0.30690  0.14500  0.76380  Biso   1.000  N
  N29      1.0000 0.07180  0.57490  0.27910  Biso   1.000  N
  N30      1.0000 0.97440  0.81700  0.17810  Biso   1.000  N
  O73      1.0000 0.17850  0.88600  0.94669  Biso   1.000  O
  O74      1.0000 0.12340  0.00370  0.94969  Biso   1.000  O
  O75      1.0000 0.23500  0.82960  0.77040  Biso   1.000  O
  O76      1.0000 0.15760  0.22130  0.75470  Biso   1.000  O
  O77      1.0000 0.14910  0.25280  0.83390  Biso   1.000  O
  O78      1.0000 0.29360  0.14160  0.80780  Biso   1.000  O
  O79      1.0000 0.35090  0.16910  0.75367  Biso   1.000  O
  O80      1.0000 0.12730  0.97210  0.72250  Biso   1.000  O
  O81      1.0000 0.09240  0.06170  0.66360  Biso   1.000  O
  O82      1.0000 0.12060  0.71850  0.07329  Biso   1.000  O
  O83      1.0000 0.17330  0.62850  0.12401  Biso   1.000  O
  O84      1.0000 0.96390  0.84380  0.13430  Biso   1.000  O
  O85      1.0000 0.95090  0.84230  0.21435  Biso   1.000  O
  O86      1.0000 0.09690  0.50810  0.27510  Biso   1.000  O
  O87      1.0000 0.05690  0.60110  0.31980  Biso   1.000  O
  O88      1.0000 0.30070  0.20380  0.57512  Biso   1.000  O
  O89      1.0000 0.21751  0.17640  0.54327  Biso   1.000  O
  O90      1.0000 0.28560  0.93920  0.74960  Biso   1.000  O
  Gd6      1.0000 0.64975  0.25429  0.99292  Biso   1.000  Gd
  C106     1.0000 0.65820  0.45870  0.93010  Biso   1.000  C
  C107     1.0000 0.67590  0.49250  0.87950  Biso   1.000  C
  C108     1.0000 0.70520  0.43900  0.84970  Biso   1.000  C
  H31      1.0000 0.71590  0.38170  0.86130  Biso   1.000  H
  C109     1.0000 0.71890  0.46940  0.80240  Biso   1.000  C
  C110     1.0000 0.70480  0.55560  0.78270  Biso   1.000  C
  C111     1.0000 0.67560  0.60780  0.81500  Biso   1.000  C
  C112     1.0000 0.66120  0.57910  0.86190  Biso   1.000  C
  H32      1.0000 0.64180  0.61700  0.88180  Biso   1.000  H
  C113     1.0000 0.71840  0.58500  0.73030  Biso   1.000  C
  C114     1.0000 0.68210  0.57640  0.68710  Biso   1.000  C
  C115     1.0000 0.69200  0.60710  0.63840  Biso   1.000  C
  H33      1.0000 0.66610  0.60200  0.61090  Biso   1.000  H
  C116     1.0000 0.74120  0.64520  0.63150  Biso   1.000  C
  C117     1.0000 0.77840  0.65340  0.67270  Biso   1.000  C
  H34      1.0000 0.81180  0.67750  0.66810  Biso   1.000  H
  C118     1.0000 0.76650  0.62570  0.72130  Biso   1.000  C
  C119     1.0000 0.63310  0.17440  0.11430  Biso   1.000  C
  C120     1.0000 0.59340  0.18120  0.15450  Biso   1.000  C
  C121     1.0000 0.55250  0.24340  0.14930  Biso   1.000  C
  H35      1.0000 0.54860  0.28100  0.12060  Biso   1.000  H
  C122     1.0000 0.51740  0.24980  0.18690  Biso   1.000  C
  C123     1.0000 0.52030  0.19600  0.23040  Biso   1.000  C
  C124     1.0000 0.56230  0.13380  0.23450  Biso   1.000  C
  C125     1.0000 0.59890  0.12710  0.19700  Biso   1.000  C
  H36      1.0000 0.62690  0.08580  0.20120  Biso   1.000  H
  C126     1.0000 0.75440  0.67720  0.57840  Biso   1.000  C
  N31      1.0000 0.74860  0.40870  0.77190  Biso   1.000  N
  N32      1.0000 0.66020  0.70110  0.80010  Biso   1.000  N
  N33      1.0000 0.63040  0.53410  0.69130  Biso   1.000  N
  N34      1.0000 0.80690  0.64500  0.76380  Biso   1.000  N
  N35      1.0000 0.57180  0.07490  0.27910  Biso   1.000  N
  N36      1.0000 0.47440  0.31700  0.17810  Biso   1.000  N
  O91      1.0000 0.67850  0.38600  0.94669  Biso   1.000  O
  O92      1.0000 0.62340  0.50370  0.94969  Biso   1.000  O
  O93      1.0000 0.73500  0.32960  0.77040  Biso   1.000  O
  O94      1.0000 0.65760  0.72130  0.75470  Biso   1.000  O
  O95      1.0000 0.64910  0.75280  0.83390  Biso   1.000  O
  O96      1.0000 0.79360  0.64160  0.80780  Biso   1.000  O
  O97      1.0000 0.85090  0.66910  0.75367  Biso   1.000  O
  O98      1.0000 0.62730  0.47210  0.72250  Biso   1.000  O
  O99      1.0000 0.59240  0.56170  0.66360  Biso   1.000  O
  O100     1.0000 0.62060  0.21850  0.07329  Biso   1.000  O
  O101     1.0000 0.67330  0.12850  0.12401  Biso   1.000  O
  O102     1.0000 0.46390  0.34380  0.13430  Biso   1.000  O
  O103     1.0000 0.45090  0.34230  0.21435  Biso   1.000  O
  O104     1.0000 0.59690  0.00810  0.27510  Biso   1.000  O
  O105     1.0000 0.55690  0.10110  0.31980  Biso   1.000  O
  O106     1.0000 0.80070  0.70380  0.57512  Biso   1.000  O
  O107     1.0000 0.71751  0.67640  0.54327  Biso   1.000  O
  O108     1.0000 0.78560  0.43920  0.74960  Biso   1.000  O
  Gd7      1.0000 0.85025  0.75429  0.50708  Biso   1.000  Gd
  C127     1.0000 0.84180  0.95870  0.56990  Biso   1.000  C
  C128     1.0000 0.82410  0.99250  0.62050  Biso   1.000  C
  C129     1.0000 0.79480  0.93900  0.65030  Biso   1.000  C
  H37      1.0000 0.78410  0.88170  0.63870  Biso   1.000  H
  C130     1.0000 0.78110  0.96940  0.69760  Biso   1.000  C
  C131     1.0000 0.79520  0.05560  0.71730  Biso   1.000  C
  C132     1.0000 0.82440  0.10780  0.68500  Biso   1.000  C
  C133     1.0000 0.83880  0.07910  0.63810  Biso   1.000  C
  H38      1.0000 0.85820  0.11700  0.61820  Biso   1.000  H
  C134     1.0000 0.78160  0.08500  0.76970  Biso   1.000  C
  C135     1.0000 0.81790  0.07640  0.81290  Biso   1.000  C
  C136     1.0000 0.80800  0.10710  0.86160  Biso   1.000  C
  H39      1.0000 0.83390  0.10200  0.88910  Biso   1.000  H
  C137     1.0000 0.75880  0.14520  0.86850  Biso   1.000  C
  C138     1.0000 0.72160  0.15340  0.82730  Biso   1.000  C
  H40      1.0000 0.68820  0.17750  0.83190  Biso   1.000  H
  C139     1.0000 0.73350  0.12570  0.77870  Biso   1.000  C
  C140     1.0000 0.86690  0.67440  0.38570  Biso   1.000  C
  C141     1.0000 0.90660  0.68120  0.34550  Biso   1.000  C
  C142     1.0000 0.94750  0.74340  0.35070  Biso   1.000  C
  H41      1.0000 0.95140  0.78100  0.37940  Biso   1.000  H
  C143     1.0000 0.98260  0.74980  0.31310  Biso   1.000  C
  C144     1.0000 0.97970  0.69600  0.26960  Biso   1.000  C
  C145     1.0000 0.93770  0.63380  0.26550  Biso   1.000  C
  C146     1.0000 0.90110  0.62710  0.30300  Biso   1.000  C
  H42      1.0000 0.87310  0.58580  0.29880  Biso   1.000  H
  C147     1.0000 0.74560  0.17720  0.92160  Biso   1.000  C
  N37      1.0000 0.75140  0.90870  0.72810  Biso   1.000  N
  N38      1.0000 0.83980  0.20110  0.69990  Biso   1.000  N
  N39      1.0000 0.86960  0.03410  0.80870  Biso   1.000  N
  N40      1.0000 0.69310  0.14500  0.73620  Biso   1.000  N
  N41      1.0000 0.92820  0.57490  0.22090  Biso   1.000  N
  N42      1.0000 0.02560  0.81700  0.32190  Biso   1.000  N
  O109     1.0000 0.82150  0.88600  0.55331  Biso   1.000  O
  O110     1.0000 0.87660  0.00370  0.55031  Biso   1.000  O
  O111     1.0000 0.76500  0.82960  0.72960  Biso   1.000  O
  O112     1.0000 0.84240  0.22130  0.74530  Biso   1.000  O
  O113     1.0000 0.85090  0.25280  0.66610  Biso   1.000  O
  O114     1.0000 0.70640  0.14160  0.69220  Biso   1.000  O
  O115     1.0000 0.64910  0.16910  0.74633  Biso   1.000  O
  O116     1.0000 0.87270  0.97210  0.77750  Biso   1.000  O
  O117     1.0000 0.90760  0.06170  0.83640  Biso   1.000  O
  O118     1.0000 0.87940  0.71850  0.42671  Biso   1.000  O
  O119     1.0000 0.82670  0.62850  0.37599  Biso   1.000  O
  O120     1.0000 0.03610  0.84380  0.36570  Biso   1.000  O
  O121     1.0000 0.04910  0.84230  0.28565  Biso   1.000  O
  O122     1.0000 0.90310  0.50810  0.22490  Biso   1.000  O
  O123     1.0000 0.94310  0.60110  0.18020  Biso   1.000  O
  O124     1.0000 0.69930  0.20380  0.92488  Biso   1.000  O
  O125     1.0000 0.78249  0.17640  0.95673  Biso   1.000  O
  O126     1.0000 0.71440  0.93920  0.75040  Biso   1.000  O
  Gd8      1.0000 0.35025  0.25429  0.50708  Biso   1.000  Gd
  C148     1.0000 0.34180  0.45870  0.56990  Biso   1.000  C
  C149     1.0000 0.32410  0.49250  0.62050  Biso   1.000  C
  C150     1.0000 0.29480  0.43900  0.65030  Biso   1.000  C
  H43      1.0000 0.28410  0.38170  0.63870  Biso   1.000  H
  C151     1.0000 0.28110  0.46940  0.69760  Biso   1.000  C
  C152     1.0000 0.29520  0.55560  0.71730  Biso   1.000  C
  C153     1.0000 0.32440  0.60780  0.68500  Biso   1.000  C
  C154     1.0000 0.33880  0.57910  0.63810  Biso   1.000  C
  H44      1.0000 0.35820  0.61700  0.61820  Biso   1.000  H
  C155     1.0000 0.28160  0.58500  0.76970  Biso   1.000  C
  C156     1.0000 0.31790  0.57640  0.81290  Biso   1.000  C
  C157     1.0000 0.30800  0.60710  0.86160  Biso   1.000  C
  H45      1.0000 0.33390  0.60200  0.88910  Biso   1.000  H
  C158     1.0000 0.25880  0.64520  0.86850  Biso   1.000  C
  C159     1.0000 0.22160  0.65340  0.82730  Biso   1.000  C
  H46      1.0000 0.18820  0.67750  0.83190  Biso   1.000  H
  C160     1.0000 0.23350  0.62570  0.77870  Biso   1.000  C
  C161     1.0000 0.36690  0.17440  0.38570  Biso   1.000  C
  C162     1.0000 0.40660  0.18120  0.34550  Biso   1.000  C
  C163     1.0000 0.44750  0.24340  0.35070  Biso   1.000  C
  H47      1.0000 0.45140  0.28100  0.37940  Biso   1.000  H
  C164     1.0000 0.48260  0.24980  0.31310  Biso   1.000  C
  C165     1.0000 0.47970  0.19600  0.26960  Biso   1.000  C
  C166     1.0000 0.43770  0.13380  0.26550  Biso   1.000  C
  C167     1.0000 0.40110  0.12710  0.30300  Biso   1.000  C
  H48      1.0000 0.37310  0.08580  0.29880  Biso   1.000  H
  C168     1.0000 0.24560  0.67720  0.92160  Biso   1.000  C
  N43      1.0000 0.25140  0.40870  0.72810  Biso   1.000  N
  N44      1.0000 0.33980  0.70110  0.69990  Biso   1.000  N
  N45      1.0000 0.36960  0.53410  0.80870  Biso   1.000  N
  N46      1.0000 0.19310  0.64500  0.73620  Biso   1.000  N
  N47      1.0000 0.42820  0.07490  0.22090  Biso   1.000  N
  N48      1.0000 0.52560  0.31700  0.32190  Biso   1.000  N
  O127     1.0000 0.32150  0.38600  0.55331  Biso   1.000  O
  O128     1.0000 0.37660  0.50370  0.55031  Biso   1.000  O
  O129     1.0000 0.26500  0.32960  0.72960  Biso   1.000  O
  O130     1.0000 0.34240  0.72130  0.74530  Biso   1.000  O
  O131     1.0000 0.35090  0.75280  0.66610  Biso   1.000  O
  O132     1.0000 0.20640  0.64160  0.69220  Biso   1.000  O
  O133     1.0000 0.14910  0.66910  0.74633  Biso   1.000  O
  O134     1.0000 0.37270  0.47210  0.77750  Biso   1.000  O
  O135     1.0000 0.40760  0.56170  0.83640  Biso   1.000  O
  O136     1.0000 0.37940  0.21850  0.42671  Biso   1.000  O
  O137     1.0000 0.32670  0.12850  0.37599  Biso   1.000  O
  O138     1.0000 0.53610  0.34380  0.36570  Biso   1.000  O
  O139     1.0000 0.54910  0.34230  0.28565  Biso   1.000  O
  O140     1.0000 0.40310  0.00810  0.22490  Biso   1.000  O
  O141     1.0000 0.44310  0.10110  0.18020  Biso   1.000  O
  O142     1.0000 0.19930  0.70380  0.92488  Biso   1.000  O
  O143     1.0000 0.28249  0.67640  0.95673  Biso   1.000  O
  O144     1.0000 0.21440  0.43920  0.75040  Biso   1.000  O
