data_image0
_cell_length_a       11.993
_cell_length_b       19.632
_cell_length_c       18.143
_cell_angle_alpha    90
_cell_angle_beta     102.06
_cell_angle_gamma    90

_symmetry_space_group_name_H-M    "P 1"
_symmetry_int_tables_number       1

loop_
  _symmetry_equiv_pos_as_xyz
  'x, y, z'

loop_
  _atom_site_label
  _atom_site_occupancy
  _atom_site_fract_x
  _atom_site_fract_y
  _atom_site_fract_z
  _atom_site_thermal_displace_type
  _atom_site_B_iso_or_equiv
  _atom_site_type_symbol
  Mg1      1.0000 0.84375  0.85471  0.73074  Biso   1.000  Mg
  O1       1.0000 0.91840  0.91791  0.81631  Biso   1.000  O
  O2       1.0000 0.10760  0.91074  0.85257  Biso   1.000  O
  O3       1.0000 0.20960  0.98840  0.96260  Biso   1.000  O
  H1       1.0000 0.20570  0.96750  0.92300  Biso   1.000  H
  O4       1.0000 0.79360  0.79979  0.81470  Biso   1.000  O
  O5       1.0000 0.94610  0.74048  0.87022  Biso   1.000  O
  O6       1.0000 0.95420  0.68577  0.99872  Biso   1.000  O
  H2       1.0000 0.97530  0.69410  0.95950  Biso   1.000  H
  C1       1.0000 0.01110  0.92848  0.86188  Biso   1.000  C
  C2       1.0000 0.00530  0.96605  0.93301  Biso   1.000  C
  C3       1.0000 0.10420  0.99255  0.97870  Biso   1.000  C
  C4       1.0000 0.90070  0.97318  0.95522  Biso   1.000  C
  C5       1.0000 0.84990  0.76712  0.86902  Biso   1.000  C
  C6       1.0000 0.79930  0.75826  0.93759  Biso   1.000  C
  C7       1.0000 0.85140  0.71644  0.99700  Biso   1.000  C
  C8       1.0000 0.69860  0.79193  0.94123  Biso   1.000  C
  H3       1.0000 0.99000  0.77300  0.78800  Biso   1.000  H
  O7       1.0000 0.79830  0.95360  0.91410  Biso   1.000  O
  H4       1.0000 0.80740  0.93370  0.87610  Biso   1.000  H
  O8       1.0000 0.65810  0.83790  0.89270  Biso   1.000  O
  H5       1.0000 0.70010  0.84230  0.86270  Biso   1.000  H
  Mg2      1.0000 0.34375  0.35471  0.73074  Biso   1.000  Mg
  O9       1.0000 0.41840  0.41791  0.81631  Biso   1.000  O
  O10      1.0000 0.60760  0.41074  0.85257  Biso   1.000  O
  O11      1.0000 0.70960  0.48840  0.96260  Biso   1.000  O
  H6       1.0000 0.70570  0.46750  0.92300  Biso   1.000  H
  O12      1.0000 0.29360  0.29979  0.81470  Biso   1.000  O
  O13      1.0000 0.44610  0.24048  0.87022  Biso   1.000  O
  O14      1.0000 0.45420  0.18577  0.99872  Biso   1.000  O
  H7       1.0000 0.47530  0.19410  0.95950  Biso   1.000  H
  C9       1.0000 0.51110  0.42848  0.86188  Biso   1.000  C
  C10      1.0000 0.50530  0.46605  0.93301  Biso   1.000  C
  C11      1.0000 0.60420  0.49255  0.97870  Biso   1.000  C
  C12      1.0000 0.40070  0.47318  0.95522  Biso   1.000  C
  C13      1.0000 0.34990  0.26712  0.86902  Biso   1.000  C
  C14      1.0000 0.29930  0.25826  0.93759  Biso   1.000  C
  C15      1.0000 0.35140  0.21644  0.99700  Biso   1.000  C
  C16      1.0000 0.19860  0.29193  0.94123  Biso   1.000  C
  H8       1.0000 0.49000  0.27300  0.78800  Biso   1.000  H
  O15      1.0000 0.29830  0.45360  0.91410  Biso   1.000  O
  H9       1.0000 0.30740  0.43370  0.87610  Biso   1.000  H
  O16      1.0000 0.15810  0.33790  0.89270  Biso   1.000  O
  H10      1.0000 0.20010  0.34230  0.86270  Biso   1.000  H
  Mg3      1.0000 0.15625  0.85471  0.76926  Biso   1.000  Mg
  O17      1.0000 0.08160  0.91791  0.68369  Biso   1.000  O
  O18      1.0000 0.89240  0.91074  0.64743  Biso   1.000  O
  O19      1.0000 0.79040  0.98840  0.53740  Biso   1.000  O
  H11      1.0000 0.79430  0.96750  0.57700  Biso   1.000  H
  O20      1.0000 0.20640  0.79979  0.68530  Biso   1.000  O
  O21      1.0000 0.05390  0.74048  0.62978  Biso   1.000  O
  O22      1.0000 0.04580  0.68577  0.50128  Biso   1.000  O
  H12      1.0000 0.02470  0.69410  0.54050  Biso   1.000  H
  C17      1.0000 0.98890  0.92848  0.63812  Biso   1.000  C
  C18      1.0000 0.99470  0.96605  0.56699  Biso   1.000  C
  C19      1.0000 0.89580  0.99255  0.52130  Biso   1.000  C
  C20      1.0000 0.09930  0.97318  0.54478  Biso   1.000  C
  C21      1.0000 0.15010  0.76712  0.63098  Biso   1.000  C
  C22      1.0000 0.20070  0.75826  0.56241  Biso   1.000  C
  C23      1.0000 0.14860  0.71644  0.50300  Biso   1.000  C
  C24      1.0000 0.30140  0.79193  0.55877  Biso   1.000  C
  H13      1.0000 0.01000  0.77300  0.71200  Biso   1.000  H
  O23      1.0000 0.20170  0.95360  0.58590  Biso   1.000  O
  H14      1.0000 0.19260  0.93370  0.62390  Biso   1.000  H
  O24      1.0000 0.34190  0.83790  0.60730  Biso   1.000  O
  H15      1.0000 0.29990  0.84230  0.63730  Biso   1.000  H
  Mg4      1.0000 0.65625  0.35471  0.76926  Biso   1.000  Mg
  O25      1.0000 0.58160  0.41791  0.68369  Biso   1.000  O
  O26      1.0000 0.39240  0.41074  0.64743  Biso   1.000  O
  O27      1.0000 0.29040  0.48840  0.53740  Biso   1.000  O
  H16      1.0000 0.29430  0.46750  0.57700  Biso   1.000  H
  O28      1.0000 0.70640  0.29979  0.68530  Biso   1.000  O
  O29      1.0000 0.55390  0.24048  0.62978  Biso   1.000  O
  O30      1.0000 0.54580  0.18577  0.50128  Biso   1.000  O
  H17      1.0000 0.52470  0.19410  0.54050  Biso   1.000  H
  C25      1.0000 0.48890  0.42848  0.63812  Biso   1.000  C
  C26      1.0000 0.49470  0.46605  0.56699  Biso   1.000  C
  C27      1.0000 0.39580  0.49255  0.52130  Biso   1.000  C
  C28      1.0000 0.59930  0.47318  0.54478  Biso   1.000  C
  C29      1.0000 0.65010  0.26712  0.63098  Biso   1.000  C
  C30      1.0000 0.70070  0.25826  0.56241  Biso   1.000  C
  C31      1.0000 0.64860  0.21644  0.50300  Biso   1.000  C
  C32      1.0000 0.80140  0.29193  0.55877  Biso   1.000  C
  H18      1.0000 0.51000  0.27300  0.71200  Biso   1.000  H
  O31      1.0000 0.70170  0.45360  0.58590  Biso   1.000  O
  H19      1.0000 0.69260  0.43370  0.62390  Biso   1.000  H
  O32      1.0000 0.84190  0.33790  0.60730  Biso   1.000  O
  H20      1.0000 0.79990  0.34230  0.63730  Biso   1.000  H
  Mg5      1.0000 0.15625  0.14529  0.26926  Biso   1.000  Mg
  O33      1.0000 0.08160  0.08209  0.18369  Biso   1.000  O
  O34      1.0000 0.89240  0.08926  0.14743  Biso   1.000  O
  O35      1.0000 0.79040  0.01160  0.03740  Biso   1.000  O
  H21      1.0000 0.79430  0.03250  0.07700  Biso   1.000  H
  O36      1.0000 0.20640  0.20021  0.18530  Biso   1.000  O
  O37      1.0000 0.05390  0.25952  0.12978  Biso   1.000  O
  O38      1.0000 0.04580  0.31423  0.00128  Biso   1.000  O
  H22      1.0000 0.02470  0.30590  0.04050  Biso   1.000  H
  C33      1.0000 0.98890  0.07152  0.13812  Biso   1.000  C
  C34      1.0000 0.99470  0.03395  0.06699  Biso   1.000  C
  C35      1.0000 0.89580  0.00745  0.02130  Biso   1.000  C
  C36      1.0000 0.09930  0.02682  0.04478  Biso   1.000  C
  C37      1.0000 0.15010  0.23288  0.13098  Biso   1.000  C
  C38      1.0000 0.20070  0.24174  0.06241  Biso   1.000  C
  C39      1.0000 0.14860  0.28356  0.00300  Biso   1.000  C
  C40      1.0000 0.30140  0.20807  0.05877  Biso   1.000  C
  H23      1.0000 0.01000  0.22700  0.21200  Biso   1.000  H
  O39      1.0000 0.20170  0.04640  0.08590  Biso   1.000  O
  H24      1.0000 0.19260  0.06630  0.12390  Biso   1.000  H
  O40      1.0000 0.34190  0.16210  0.10730  Biso   1.000  O
  H25      1.0000 0.29990  0.15770  0.13730  Biso   1.000  H
  Mg6      1.0000 0.65625  0.64529  0.26926  Biso   1.000  Mg
  O41      1.0000 0.58160  0.58209  0.18369  Biso   1.000  O
  O42      1.0000 0.39240  0.58926  0.14743  Biso   1.000  O
  O43      1.0000 0.29040  0.51160  0.03740  Biso   1.000  O
  H26      1.0000 0.29430  0.53250  0.07700  Biso   1.000  H
  O44      1.0000 0.70640  0.70021  0.18530  Biso   1.000  O
  O45      1.0000 0.55390  0.75952  0.12978  Biso   1.000  O
  O46      1.0000 0.54580  0.81423  0.00128  Biso   1.000  O
  H27      1.0000 0.52470  0.80590  0.04050  Biso   1.000  H
  C41      1.0000 0.48890  0.57152  0.13812  Biso   1.000  C
  C42      1.0000 0.49470  0.53395  0.06699  Biso   1.000  C
  C43      1.0000 0.39580  0.50745  0.02130  Biso   1.000  C
  C44      1.0000 0.59930  0.52682  0.04478  Biso   1.000  C
  C45      1.0000 0.65010  0.73288  0.13098  Biso   1.000  C
  C46      1.0000 0.70070  0.74174  0.06241  Biso   1.000  C
  C47      1.0000 0.64860  0.78356  0.00300  Biso   1.000  C
  C48      1.0000 0.80140  0.70807  0.05877  Biso   1.000  C
  H28      1.0000 0.51000  0.72700  0.21200  Biso   1.000  H
  O47      1.0000 0.70170  0.54640  0.08590  Biso   1.000  O
  H29      1.0000 0.69260  0.56630  0.12390  Biso   1.000  H
  O48      1.0000 0.84190  0.66210  0.10730  Biso   1.000  O
  H30      1.0000 0.79990  0.65770  0.13730  Biso   1.000  H
  Mg7      1.0000 0.84375  0.14529  0.23074  Biso   1.000  Mg
  O49      1.0000 0.91840  0.08209  0.31631  Biso   1.000  O
  O50      1.0000 0.10760  0.08926  0.35257  Biso   1.000  O
  O51      1.0000 0.20960  0.01160  0.46260  Biso   1.000  O
  H31      1.0000 0.20570  0.03250  0.42300  Biso   1.000  H
  O52      1.0000 0.79360  0.20021  0.31470  Biso   1.000  O
  O53      1.0000 0.94610  0.25952  0.37022  Biso   1.000  O
  O54      1.0000 0.95420  0.31423  0.49872  Biso   1.000  O
  H32      1.0000 0.97530  0.30590  0.45950  Biso   1.000  H
  C49      1.0000 0.01110  0.07152  0.36188  Biso   1.000  C
  C50      1.0000 0.00530  0.03395  0.43301  Biso   1.000  C
  C51      1.0000 0.10420  0.00745  0.47870  Biso   1.000  C
  C52      1.0000 0.90070  0.02682  0.45522  Biso   1.000  C
  C53      1.0000 0.84990  0.23288  0.36902  Biso   1.000  C
  C54      1.0000 0.79930  0.24174  0.43759  Biso   1.000  C
  C55      1.0000 0.85140  0.28356  0.49700  Biso   1.000  C
  C56      1.0000 0.69860  0.20807  0.44123  Biso   1.000  C
  H33      1.0000 0.99000  0.22700  0.28800  Biso   1.000  H
  O55      1.0000 0.79830  0.04640  0.41410  Biso   1.000  O
  H34      1.0000 0.80740  0.06630  0.37610  Biso   1.000  H
  O56      1.0000 0.65810  0.16210  0.39270  Biso   1.000  O
  H35      1.0000 0.70010  0.15770  0.36270  Biso   1.000  H
  Mg8      1.0000 0.34375  0.64529  0.23074  Biso   1.000  Mg
  O57      1.0000 0.41840  0.58209  0.31631  Biso   1.000  O
  O58      1.0000 0.60760  0.58926  0.35257  Biso   1.000  O
  O59      1.0000 0.70960  0.51160  0.46260  Biso   1.000  O
  H36      1.0000 0.70570  0.53250  0.42300  Biso   1.000  H
  O60      1.0000 0.29360  0.70021  0.31470  Biso   1.000  O
  O61      1.0000 0.44610  0.75952  0.37022  Biso   1.000  O
  O62      1.0000 0.45420  0.81423  0.49872  Biso   1.000  O
  H37      1.0000 0.47530  0.80590  0.45950  Biso   1.000  H
  C57      1.0000 0.51110  0.57152  0.36188  Biso   1.000  C
  C58      1.0000 0.50530  0.53395  0.43301  Biso   1.000  C
  C59      1.0000 0.60420  0.50745  0.47870  Biso   1.000  C
  C60      1.0000 0.40070  0.52682  0.45522  Biso   1.000  C
  C61      1.0000 0.34990  0.73288  0.36902  Biso   1.000  C
  C62      1.0000 0.29930  0.74174  0.43759  Biso   1.000  C
  C63      1.0000 0.35140  0.78356  0.49700  Biso   1.000  C
  C64      1.0000 0.19860  0.70807  0.44123  Biso   1.000  C
  H38      1.0000 0.49000  0.72700  0.28800  Biso   1.000  H
  O63      1.0000 0.29830  0.54640  0.41410  Biso   1.000  O
  H39      1.0000 0.30740  0.56630  0.37610  Biso   1.000  H
  O64      1.0000 0.15810  0.66210  0.39270  Biso   1.000  O
  H40      1.0000 0.20010  0.65770  0.36270  Biso   1.000  H
  O65      1.0000 0.00000  0.79754  0.75000  Biso   1.000  O
  O66      1.0000 0.50000  0.29754  0.75000  Biso   1.000  O
  O67      1.0000 0.00000  0.20246  0.25000  Biso   1.000  O
  O68      1.0000 0.50000  0.70246  0.25000  Biso   1.000  O
