data_image0
_cell_length_a       11.439
_cell_length_b       11.966
_cell_length_c       12.113
_cell_angle_alpha    101.036
_cell_angle_beta     106.89
_cell_angle_gamma    107.95

_symmetry_space_group_name_H-M    "P 1"
_symmetry_int_tables_number       1

loop_
  _symmetry_equiv_pos_as_xyz
  'x, y, z'

loop_
  _atom_site_label
  _atom_site_occupancy
  _atom_site_fract_x
  _atom_site_fract_y
  _atom_site_fract_z
  _atom_site_thermal_displace_type
  _atom_site_B_iso_or_equiv
  _atom_site_type_symbol
  Sr1      1.0000 0.28404  0.28592  0.77425  Biso   1.000  Sr
  O1       1.0000 0.92250  0.16800  0.42470  Biso   1.000  O
  O2       1.0000 0.07060  0.25270  0.61080  Biso   1.000  O
  O3       1.0000 0.86810  0.29920  0.29280  Biso   1.000  O
  O4       1.0000 0.90920  0.96410  0.67550  Biso   1.000  O
  O5       1.0000 0.11850  0.09210  0.76630  Biso   1.000  O
  O6       1.0000 0.77560  0.87040  0.79270  Biso   1.000  O
  O7       1.0000 0.26160  0.11010  0.58690  Biso   1.000  O
  O8       1.0000 0.46250  0.24920  0.69650  Biso   1.000  O
  O9       1.0000 0.66690  0.21470  0.68720  Biso   1.000  O
  C1       1.0000 0.99670  0.26020  0.51620  Biso   1.000  C
  C2       1.0000 0.99740  0.38440  0.50840  Biso   1.000  C
  C3       1.0000 0.93290  0.39610  0.39600  Biso   1.000  C
  C4       1.0000 0.06310  0.48730  0.61030  Biso   1.000  C
  H1       1.0000 0.10550  0.47880  0.68450  Biso   1.000  H
  C5       1.0000 0.01250  0.02400  0.76940  Biso   1.000  C
  C6       1.0000 0.00610  0.01060  0.88910  Biso   1.000  C
  C7       1.0000 0.11730  0.07400  0.99520  Biso   1.000  C
  H2       1.0000 0.19580  0.12350  0.99150  Biso   1.000  H
  C8       1.0000 0.88650  0.93480  0.89300  Biso   1.000  C
  C9       1.0000 0.38430  0.14790  0.61520  Biso   1.000  C
  C10      1.0000 0.44450  0.07150  0.55460  Biso   1.000  C
  C11      1.0000 0.58280  0.10930  0.59480  Biso   1.000  C
  C12      1.0000 0.36320  0.96270  0.46060  Biso   1.000  C
  H3       1.0000 0.27170  0.93790  0.43450  Biso   1.000  H
  H4       1.0000 0.86100  0.23570  0.31200  Biso   1.000  H
  H5       1.0000 0.79300  0.87300  0.73130  Biso   1.000  H
  H6       1.0000 0.62200  0.25000  0.70700  Biso   1.000  H
  Sr2      1.0000 0.71596  0.71408  0.22575  Biso   1.000  Sr
  O10      1.0000 0.07750  0.83200  0.57530  Biso   1.000  O
  O11      1.0000 0.92940  0.74730  0.38920  Biso   1.000  O
  O12      1.0000 0.13190  0.70080  0.70720  Biso   1.000  O
  O13      1.0000 0.09080  0.03590  0.32450  Biso   1.000  O
  O14      1.0000 0.88150  0.90790  0.23370  Biso   1.000  O
  O15      1.0000 0.22440  0.12960  0.20730  Biso   1.000  O
  O16      1.0000 0.73840  0.88990  0.41310  Biso   1.000  O
  O17      1.0000 0.53750  0.75080  0.30350  Biso   1.000  O
  O18      1.0000 0.33310  0.78530  0.31280  Biso   1.000  O
  C13      1.0000 0.00330  0.73980  0.48380  Biso   1.000  C
  C14      1.0000 0.00260  0.61560  0.49160  Biso   1.000  C
  C15      1.0000 0.06710  0.60390  0.60400  Biso   1.000  C
  C16      1.0000 0.93690  0.51270  0.38970  Biso   1.000  C
  H7       1.0000 0.89450  0.52120  0.31550  Biso   1.000  H
  C17      1.0000 0.98750  0.97600  0.23060  Biso   1.000  C
  C18      1.0000 0.99390  0.98940  0.11090  Biso   1.000  C
  C19      1.0000 0.88270  0.92600  0.00480  Biso   1.000  C
  H8       1.0000 0.80420  0.87650  0.00850  Biso   1.000  H
  C20      1.0000 0.11350  0.06520  0.10700  Biso   1.000  C
  C21      1.0000 0.61570  0.85210  0.38480  Biso   1.000  C
  C22      1.0000 0.55550  0.92850  0.44540  Biso   1.000  C
  C23      1.0000 0.41720  0.89070  0.40520  Biso   1.000  C
  C24      1.0000 0.63680  0.03730  0.53940  Biso   1.000  C
  H9       1.0000 0.72830  0.06210  0.56550  Biso   1.000  H
  H10      1.0000 0.13900  0.76430  0.68800  Biso   1.000  H
  H11      1.0000 0.20700  0.12700  0.26870  Biso   1.000  H
  H12      1.0000 0.37800  0.75000  0.29300  Biso   1.000  H
  Sr3      1.0000 0.00000  0.00000  0.50000  Biso   1.000  Sr
