data_YUGZIK_clean
_audit_creation_date              2014-07-02
_audit_creation_method            'Materials Studio'
_symmetry_space_group_name_H-M    'P1'
_symmetry_Int_Tables_number       1
_symmetry_cell_setting            triclinic
loop_
_symmetry_equiv_pos_as_xyz
  x,y,z
_cell_length_a                    23.5956
_cell_length_b                    23.5956
_cell_length_c                    30.7544
_cell_angle_alpha                 69.5370
_cell_angle_beta                  69.5369
_cell_angle_gamma                 95.0863
loop_
_atom_site_label
_atom_site_type_symbol
_atom_site_fract_x
_atom_site_fract_y
_atom_site_fract_z
_atom_site_U_iso_or_equiv
_atom_site_adp_type
_atom_site_occupancy
Zn1    Zn    0.63315   0.38315   0.73370   0.01267  Uiso   1.00
Zn2    Zn    0.11685   0.86685   0.76630   0.01267  Uiso   1.00
Zn3    Zn    0.36685   0.61685   0.26630   0.01267  Uiso   1.00
Zn4    Zn    0.88315   0.13315   0.23370   0.01267  Uiso   1.00
Zn5    Zn    0.09708   0.34708   0.80584   0.01267  Uiso   1.00
Zn6    Zn    0.15292   0.40292   0.69416   0.01267  Uiso   1.00
Zn7    Zn    0.90292   0.65292   0.19416   0.01267  Uiso   1.00
Zn8    Zn    0.84708   0.59708   0.30584   0.01267  Uiso   1.00
H1     H     0.71840   0.18600   0.74900   0.01267  Uiso   1.00
H2     H     0.79800   0.25940   0.74880   0.01267  Uiso   1.00
H3     H     0.82280   0.48540   0.74840   0.01267  Uiso   1.00
H4     H     0.75680   0.55940   0.75040   0.01267  Uiso   1.00
H5     H     0.88340   0.40720   0.67320   0.01267  Uiso   1.00
H6     H     0.98060   0.41140   0.67400   0.01267  Uiso   1.00
H7     H     0.90440   0.33520   0.82380   0.01267  Uiso   1.00
H8     H     0.80720   0.33380   0.82180   0.01267  Uiso   1.00
H9     H     0.57440   0.12460   0.80480   0.01267  Uiso   1.00
H10    H     0.57880   0.02560   0.80280   0.01267  Uiso   1.00
H11    H     0.59860   0.01780   0.72660   0.01267  Uiso   1.00
H12    H     0.64360   0.10620   0.64960   0.01267  Uiso   1.00
H13    H     0.64800   0.20600   0.65480   0.01267  Uiso   1.00
H14    H     0.87540   0.51940   0.39240   0.01267  Uiso   1.00
H15    H     0.83480   0.47680   0.47920   0.01267  Uiso   1.00
H16    H     0.65050   0.51190   0.55700   0.01267  Uiso   1.00
H17    H     0.60980   0.46800   0.64280   0.01267  Uiso   1.00
H18    H     0.53260   0.56500   0.74900   0.01267  Uiso   1.00
H19    H     0.45320   0.49180   0.74880   0.01267  Uiso   1.00
H20    H     0.42880   0.26620   0.74840   0.01267  Uiso   1.00
H21    H     0.49280   0.19020   0.75040   0.01267  Uiso   1.00
H22    H     0.44340   0.41960   0.67320   0.01267  Uiso   1.00
H23    H     0.34540   0.41460   0.67400   0.01267  Uiso   1.00
H24    H     0.27180   0.34100   0.82380   0.01267  Uiso   1.00
H25    H     0.37100   0.34440   0.82180   0.01267  Uiso   1.00
H26    H     0.62080   0.57060   0.80480   0.01267  Uiso   1.00
H27    H     0.61840   0.67160   0.80280   0.01267  Uiso   1.00
H28    H     0.67480   0.75560   0.72660   0.01267  Uiso   1.00
H29    H     0.70680   0.74420   0.64960   0.01267  Uiso   1.00
H30    H     0.69720   0.63920   0.65480   0.01267  Uiso   1.00
H31    H     0.73220   0.58820   0.39240   0.01267  Uiso   1.00
H32    H     0.68600   0.54400   0.47920   0.01267  Uiso   1.00
H33    H     0.79250   0.43110   0.55700   0.01267  Uiso   1.00
H34    H     0.74740   0.38920   0.64280   0.01267  Uiso   1.00
H35    H     0.31400   0.78160   0.75100   0.01267  Uiso   1.00
H36    H     0.24060   0.70200   0.75120   0.01267  Uiso   1.00
H37    H     0.01460   0.67720   0.75160   0.01267  Uiso   1.00
H38    H     0.94060   0.74320   0.74960   0.01267  Uiso   1.00
H39    H     0.09280   0.61660   0.82680   0.01267  Uiso   1.00
H40    H     0.08860   0.51940   0.82600   0.01267  Uiso   1.00
H41    H     0.16480   0.59560   0.67620   0.01267  Uiso   1.00
H42    H     0.16620   0.69280   0.67820   0.01267  Uiso   1.00
H43    H     0.37540   0.92560   0.69520   0.01267  Uiso   1.00
H44    H     0.47440   0.92120   0.69720   0.01267  Uiso   1.00
H45    H     0.48220   0.90140   0.77340   0.01267  Uiso   1.00
H46    H     0.39380   0.85640   0.85040   0.01267  Uiso   1.00
H47    H     0.29400   0.85200   0.84520   0.01267  Uiso   1.00
H48    H     0.98060   0.62460   0.10760   0.01267  Uiso   1.00
H49    H     0.02320   0.66520   0.02080   0.01267  Uiso   1.00
H50    H     0.98810   0.84950   0.94300   0.01267  Uiso   1.00
H51    H     0.03200   0.89020   0.85720   0.01267  Uiso   1.00
H52    H     0.93500   0.96740   0.75100   0.01267  Uiso   1.00
H53    H     0.00820   0.04680   0.75120   0.01267  Uiso   1.00
H54    H     0.23380   0.07120   0.75160   0.01267  Uiso   1.00
H55    H     0.30980   0.00720   0.74960   0.01267  Uiso   1.00
H56    H     0.08040   0.05660   0.82680   0.01267  Uiso   1.00
H57    H     0.08540   0.15460   0.82600   0.01267  Uiso   1.00
H58    H     0.15900   0.22820   0.67620   0.01267  Uiso   1.00
H59    H     0.15560   0.12900   0.67820   0.01267  Uiso   1.00
H60    H     0.92940   0.87920   0.69520   0.01267  Uiso   1.00
H61    H     0.82840   0.88160   0.69720   0.01267  Uiso   1.00
H62    H     0.74440   0.82520   0.77340   0.01267  Uiso   1.00
H63    H     0.75580   0.79320   0.85040   0.01267  Uiso   1.00
H64    H     0.86080   0.80280   0.84520   0.01267  Uiso   1.00
H65    H     0.91180   0.76780   0.10760   0.01267  Uiso   1.00
H66    H     0.95600   0.81400   0.02080   0.01267  Uiso   1.00
H67    H     0.06890   0.70750   0.94300   0.01267  Uiso   1.00
H68    H     0.11080   0.75260   0.85720   0.01267  Uiso   1.00
H69    H     0.28160   0.81400   0.25100   0.01267  Uiso   1.00
H70    H     0.20200   0.74060   0.25120   0.01267  Uiso   1.00
H71    H     0.17720   0.51460   0.25160   0.01267  Uiso   1.00
H72    H     0.24320   0.44060   0.24960   0.01267  Uiso   1.00
H73    H     0.11660   0.59280   0.32680   0.01267  Uiso   1.00
H74    H     0.01940   0.58860   0.32600   0.01267  Uiso   1.00
H75    H     0.09560   0.66480   0.17620   0.01267  Uiso   1.00
H76    H     0.19280   0.66620   0.17820   0.01267  Uiso   1.00
H77    H     0.42560   0.87540   0.19520   0.01267  Uiso   1.00
H78    H     0.42120   0.97440   0.19720   0.01267  Uiso   1.00
H79    H     0.40140   0.98220   0.27340   0.01267  Uiso   1.00
H80    H     0.35640   0.89380   0.35040   0.01267  Uiso   1.00
H81    H     0.35200   0.79400   0.34520   0.01267  Uiso   1.00
H82    H     0.12460   0.48060   0.60760   0.01267  Uiso   1.00
H83    H     0.16520   0.52320   0.52080   0.01267  Uiso   1.00
H84    H     0.34950   0.48810   0.44300   0.01267  Uiso   1.00
H85    H     0.39020   0.53200   0.35720   0.01267  Uiso   1.00
H86    H     0.46740   0.43500   0.25100   0.01267  Uiso   1.00
H87    H     0.54680   0.50820   0.25120   0.01267  Uiso   1.00
H88    H     0.57120   0.73380   0.25160   0.01267  Uiso   1.00
H89    H     0.50720   0.80980   0.24960   0.01267  Uiso   1.00
H90    H     0.55660   0.58040   0.32680   0.01267  Uiso   1.00
H91    H     0.65460   0.58540   0.32600   0.01267  Uiso   1.00
H92    H     0.72820   0.65900   0.17620   0.01267  Uiso   1.00
H93    H     0.62900   0.65560   0.17820   0.01267  Uiso   1.00
H94    H     0.37920   0.42940   0.19520   0.01267  Uiso   1.00
H95    H     0.38160   0.32840   0.19720   0.01267  Uiso   1.00
H96    H     0.32520   0.24440   0.27340   0.01267  Uiso   1.00
H97    H     0.29320   0.25580   0.35040   0.01267  Uiso   1.00
H98    H     0.30280   0.36080   0.34520   0.01267  Uiso   1.00
H99    H     0.26780   0.41180   0.60760   0.01267  Uiso   1.00
H100   H     0.31400   0.45600   0.52080   0.01267  Uiso   1.00
H101   H     0.20750   0.56890   0.44300   0.01267  Uiso   1.00
H102   H     0.25260   0.61080   0.35720   0.01267  Uiso   1.00
H103   H     0.68600   0.21840   0.24900   0.01267  Uiso   1.00
H104   H     0.75940   0.29800   0.24880   0.01267  Uiso   1.00
H105   H     0.98540   0.32280   0.24840   0.01267  Uiso   1.00
H106   H     0.05940   0.25680   0.25040   0.01267  Uiso   1.00
H107   H     0.90720   0.38340   0.17320   0.01267  Uiso   1.00
H108   H     0.91140   0.48060   0.17400   0.01267  Uiso   1.00
H109   H     0.83520   0.40440   0.32380   0.01267  Uiso   1.00
H110   H     0.83380   0.30720   0.32180   0.01267  Uiso   1.00
H111   H     0.62460   0.07440   0.30480   0.01267  Uiso   1.00
H112   H     0.52560   0.07880   0.30280   0.01267  Uiso   1.00
H113   H     0.51780   0.09860   0.22660   0.01267  Uiso   1.00
H114   H     0.60620   0.14360   0.14960   0.01267  Uiso   1.00
H115   H     0.70600   0.14800   0.15480   0.01267  Uiso   1.00
H116   H     0.01940   0.37540   0.89240   0.01267  Uiso   1.00
H117   H     0.97680   0.33480   0.97920   0.01267  Uiso   1.00
H118   H     0.01190   0.15050   0.05700   0.01267  Uiso   1.00
H119   H     0.96800   0.10980   0.14280   0.01267  Uiso   1.00
H120   H     0.06500   0.03260   0.24900   0.01267  Uiso   1.00
H121   H     0.99180   0.95320   0.24880   0.01267  Uiso   1.00
H122   H     0.76620   0.92880   0.24840   0.01267  Uiso   1.00
H123   H     0.69020   0.99280   0.25040   0.01267  Uiso   1.00
H124   H     0.91960   0.94340   0.17320   0.01267  Uiso   1.00
H125   H     0.91460   0.84540   0.17400   0.01267  Uiso   1.00
H126   H     0.84100   0.77180   0.32380   0.01267  Uiso   1.00
H127   H     0.84440   0.87100   0.32180   0.01267  Uiso   1.00
H128   H     0.07060   0.12080   0.30480   0.01267  Uiso   1.00
H129   H     0.17160   0.11840   0.30280   0.01267  Uiso   1.00
H130   H     0.25560   0.17480   0.22660   0.01267  Uiso   1.00
H131   H     0.24420   0.20680   0.14960   0.01267  Uiso   1.00
H132   H     0.13920   0.19720   0.15480   0.01267  Uiso   1.00
H133   H     0.08820   0.23220   0.89240   0.01267  Uiso   1.00
H134   H     0.04400   0.18600   0.97920   0.01267  Uiso   1.00
H135   H     0.93110   0.29250   0.05700   0.01267  Uiso   1.00
H136   H     0.88920   0.24740   0.14280   0.01267  Uiso   1.00
C1     C     0.66656   0.25716   0.74584   0.01267  Uiso   1.00
C2     C     0.71687   0.22567   0.74800   0.01267  Uiso   1.00
C3     C     0.76007   0.26619   0.74806   0.01267  Uiso   1.00
C4     C     0.73954   0.32080   0.74672   0.01267  Uiso   1.00
C5     C     0.77160   0.37300   0.74708   0.01267  Uiso   1.00
C6     C     0.75062   0.42662   0.74708   0.01267  Uiso   1.00
C7     C     0.78335   0.48015   0.74816   0.01267  Uiso   1.00
C8     C     0.74769   0.52111   0.74888   0.01267  Uiso   1.00
C9     C     0.69216   0.49372   0.74694   0.01267  Uiso   1.00
C10    C     0.61180   0.23028   0.74564   0.01267  Uiso   1.00
C11    C     0.83529   0.37141   0.74726   0.01267  Uiso   1.00
C12    C     0.88695   0.39293   0.70416   0.01267  Uiso   1.00
C13    C     0.94545   0.39439   0.70458   0.01267  Uiso   1.00
C14    C     0.95225   0.37115   0.74912   0.01267  Uiso   1.00
C15    C     0.90099   0.34981   0.79272   0.01267  Uiso   1.00
C16    C     0.84238   0.34956   0.79138   0.01267  Uiso   1.00
C17    C     0.01636   0.37134   0.74946   0.01267  Uiso   1.00
C18    C     0.61120   0.17440   0.73200   0.01267  Uiso   1.00
C19    C     0.58990   0.12190   0.77360   0.01267  Uiso   1.00
C20    C     0.58924   0.06084   0.77312   0.01267  Uiso   1.00
C21    C     0.60480   0.05700   0.72700   0.01267  Uiso   1.00
C22    C     0.62967   0.10947   0.68066   0.01267  Uiso   1.00
C23    C     0.63220   0.16980   0.68440   0.01267  Uiso   1.00
C24    C     0.83694   0.52524   0.40982   0.01267  Uiso   1.00
C25    C     0.81229   0.49869   0.46262   0.01267  Uiso   1.00
C26    C     0.67144   0.48714   0.57342   0.01267  Uiso   1.00
C27    C     0.64715   0.46041   0.62518   0.01267  Uiso   1.00
C28    C     0.58760   0.49700   0.74584   0.01267  Uiso   1.00
C29    C     0.53513   0.52633   0.74800   0.01267  Uiso   1.00
C30    C     0.49187   0.48575   0.74806   0.01267  Uiso   1.00
C31    C     0.51374   0.43248   0.74672   0.01267  Uiso   1.00
C32    C     0.48132   0.37992   0.74708   0.01267  Uiso   1.00
C33    C     0.50230   0.32630   0.74708   0.01267  Uiso   1.00
C34    C     0.46849   0.27169   0.74816   0.01267  Uiso   1.00
C35    C     0.50343   0.23001   0.74888   0.01267  Uiso   1.00
C36    C     0.56090   0.25934   0.74694   0.01267  Uiso   1.00
C37    C     0.64256   0.52408   0.74564   0.01267  Uiso   1.00
C38    C     0.41745   0.38133   0.74726   0.01267  Uiso   1.00
C39    C     0.40889   0.40291   0.70416   0.01267  Uiso   1.00
C40    C     0.34997   0.40103   0.70458   0.01267  Uiso   1.00
C41    C     0.29863   0.37973   0.74912   0.01267  Uiso   1.00
C42    C     0.30629   0.35747   0.79272   0.01267  Uiso   1.00
C43    C     0.36624   0.35906   0.79138   0.01267  Uiso   1.00
C44    C     0.23418   0.37920   0.74946   0.01267  Uiso   1.00
C45    C     0.65680   0.59360   0.73200   0.01267  Uiso   1.00
C46    C     0.63650   0.60450   0.77360   0.01267  Uiso   1.00
C47    C     0.63764   0.66604   0.77312   0.01267  Uiso   1.00
C48    C     0.66820   0.71600   0.72700   0.01267  Uiso   1.00
C49    C     0.68967   0.70987   0.68066   0.01267  Uiso   1.00
C50    C     0.68340   0.64580   0.68440   0.01267  Uiso   1.00
C51    C     0.75324   0.56494   0.40982   0.01267  Uiso   1.00
C52    C     0.72509   0.53869   0.46262   0.01267  Uiso   1.00
C53    C     0.75514   0.43944   0.57342   0.01267  Uiso   1.00
C54    C     0.72767   0.41441   0.62518   0.01267  Uiso   1.00
C55    C     0.24284   0.83344   0.75416   0.01267  Uiso   1.00
C56    C     0.27433   0.78313   0.75200   0.01267  Uiso   1.00
C57    C     0.23381   0.73993   0.75194   0.01267  Uiso   1.00
C58    C     0.17920   0.76046   0.75328   0.01267  Uiso   1.00
C59    C     0.12700   0.72840   0.75292   0.01267  Uiso   1.00
C60    C     0.07338   0.74938   0.75292   0.01267  Uiso   1.00
C61    C     0.01985   0.71665   0.75184   0.01267  Uiso   1.00
C62    C     0.97889   0.75231   0.75112   0.01267  Uiso   1.00
C63    C     0.00628   0.80784   0.75306   0.01267  Uiso   1.00
C64    C     0.26972   0.88820   0.75436   0.01267  Uiso   1.00
C65    C     0.12859   0.66471   0.75274   0.01267  Uiso   1.00
C66    C     0.10707   0.61305   0.79584   0.01267  Uiso   1.00
C67    C     0.10561   0.55455   0.79542   0.01267  Uiso   1.00
C68    C     0.12885   0.54775   0.75088   0.01267  Uiso   1.00
C69    C     0.15019   0.59901   0.70728   0.01267  Uiso   1.00
C70    C     0.15044   0.65762   0.70862   0.01267  Uiso   1.00
C71    C     0.12866   0.48364   0.75054   0.01267  Uiso   1.00
C72    C     0.32560   0.88880   0.76800   0.01267  Uiso   1.00
C73    C     0.37810   0.91010   0.72640   0.01267  Uiso   1.00
C74    C     0.43916   0.91076   0.72688   0.01267  Uiso   1.00
C75    C     0.44300   0.89520   0.77300   0.01267  Uiso   1.00
C76    C     0.39053   0.87033   0.81934   0.01267  Uiso   1.00
C77    C     0.33020   0.86780   0.81560   0.01267  Uiso   1.00
C78    C     0.97476   0.66306   0.09018   0.01267  Uiso   1.00
C79    C     0.00131   0.68771   0.03738   0.01267  Uiso   1.00
C80    C     0.01286   0.82856   0.92658   0.01267  Uiso   1.00
C81    C     0.03959   0.85285   0.87482   0.01267  Uiso   1.00
C82    C     0.00300   0.91240   0.75416   0.01267  Uiso   1.00
C83    C     0.97367   0.96487   0.75200   0.01267  Uiso   1.00
C84    C     0.01425   0.00813   0.75194   0.01267  Uiso   1.00
C85    C     0.06752   0.98626   0.75328   0.01267  Uiso   1.00
C86    C     0.12008   0.01868   0.75292   0.01267  Uiso   1.00
C87    C     0.17370   0.99770   0.75292   0.01267  Uiso   1.00
C88    C     0.22831   0.03151   0.75184   0.01267  Uiso   1.00
C89    C     0.26999   0.99657   0.75112   0.01267  Uiso   1.00
C90    C     0.24066   0.93910   0.75306   0.01267  Uiso   1.00
C91    C     0.97592   0.85744   0.75436   0.01267  Uiso   1.00
C92    C     0.11867   0.08255   0.75274   0.01267  Uiso   1.00
C93    C     0.09709   0.09111   0.79584   0.01267  Uiso   1.00
C94    C     0.09897   0.15003   0.79542   0.01267  Uiso   1.00
C95    C     0.12027   0.20137   0.75088   0.01267  Uiso   1.00
C96    C     0.14253   0.19371   0.70728   0.01267  Uiso   1.00
C97    C     0.14094   0.13376   0.70862   0.01267  Uiso   1.00
C98    C     0.12080   0.26582   0.75054   0.01267  Uiso   1.00
C99    C     0.90640   0.84320   0.76800   0.01267  Uiso   1.00
C100   C     0.89550   0.86350   0.72640   0.01267  Uiso   1.00
C101   C     0.83396   0.86236   0.72688   0.01267  Uiso   1.00
C102   C     0.78400   0.83180   0.77300   0.01267  Uiso   1.00
C103   C     0.79013   0.81033   0.81934   0.01267  Uiso   1.00
C104   C     0.85420   0.81660   0.81560   0.01267  Uiso   1.00
C105   C     0.93506   0.74676   0.09018   0.01267  Uiso   1.00
C106   C     0.96131   0.77491   0.03738   0.01267  Uiso   1.00
C107   C     0.06056   0.74486   0.92658   0.01267  Uiso   1.00
C108   C     0.08559   0.77233   0.87482   0.01267  Uiso   1.00
C109   C     0.33344   0.74284   0.25416   0.01267  Uiso   1.00
C110   C     0.28313   0.77433   0.25200   0.01267  Uiso   1.00
C111   C     0.23993   0.73381   0.25194   0.01267  Uiso   1.00
C112   C     0.26046   0.67920   0.25328   0.01267  Uiso   1.00
C113   C     0.22840   0.62700   0.25292   0.01267  Uiso   1.00
C114   C     0.24938   0.57338   0.25292   0.01267  Uiso   1.00
C115   C     0.21665   0.51985   0.25184   0.01267  Uiso   1.00
C116   C     0.25231   0.47889   0.25112   0.01267  Uiso   1.00
C117   C     0.30784   0.50628   0.25306   0.01267  Uiso   1.00
C118   C     0.38820   0.76972   0.25436   0.01267  Uiso   1.00
C119   C     0.16471   0.62859   0.25274   0.01267  Uiso   1.00
C120   C     0.11305   0.60707   0.29584   0.01267  Uiso   1.00
C121   C     0.05455   0.60561   0.29542   0.01267  Uiso   1.00
C122   C     0.04775   0.62885   0.25088   0.01267  Uiso   1.00
C123   C     0.09901   0.65019   0.20728   0.01267  Uiso   1.00
C124   C     0.15762   0.65044   0.20862   0.01267  Uiso   1.00
C125   C     0.98364   0.62866   0.25054   0.01267  Uiso   1.00
C126   C     0.38880   0.82560   0.26800   0.01267  Uiso   1.00
C127   C     0.41010   0.87810   0.22640   0.01267  Uiso   1.00
C128   C     0.41076   0.93916   0.22688   0.01267  Uiso   1.00
C129   C     0.39520   0.94300   0.27300   0.01267  Uiso   1.00
C130   C     0.37033   0.89053   0.31934   0.01267  Uiso   1.00
C131   C     0.36780   0.83020   0.31560   0.01267  Uiso   1.00
C132   C     0.16306   0.47476   0.59018   0.01267  Uiso   1.00
C133   C     0.18771   0.50131   0.53738   0.01267  Uiso   1.00
C134   C     0.32856   0.51286   0.42658   0.01267  Uiso   1.00
C135   C     0.35285   0.53959   0.37482   0.01267  Uiso   1.00
C136   C     0.41240   0.50300   0.25416   0.01267  Uiso   1.00
C137   C     0.46487   0.47367   0.25200   0.01267  Uiso   1.00
C138   C     0.50813   0.51425   0.25194   0.01267  Uiso   1.00
C139   C     0.48626   0.56752   0.25328   0.01267  Uiso   1.00
C140   C     0.51868   0.62008   0.25292   0.01267  Uiso   1.00
C141   C     0.49770   0.67370   0.25292   0.01267  Uiso   1.00
C142   C     0.53151   0.72831   0.25184   0.01267  Uiso   1.00
C143   C     0.49657   0.76999   0.25112   0.01267  Uiso   1.00
C144   C     0.43910   0.74066   0.25306   0.01267  Uiso   1.00
C145   C     0.35744   0.47592   0.25436   0.01267  Uiso   1.00
C146   C     0.58255   0.61867   0.25274   0.01267  Uiso   1.00
C147   C     0.59111   0.59709   0.29584   0.01267  Uiso   1.00
C148   C     0.65003   0.59897   0.29542   0.01267  Uiso   1.00
C149   C     0.70137   0.62027   0.25088   0.01267  Uiso   1.00
C150   C     0.69371   0.64253   0.20728   0.01267  Uiso   1.00
C151   C     0.63376   0.64094   0.20862   0.01267  Uiso   1.00
C152   C     0.76582   0.62080   0.25054   0.01267  Uiso   1.00
C153   C     0.34320   0.40640   0.26800   0.01267  Uiso   1.00
C154   C     0.36350   0.39550   0.22640   0.01267  Uiso   1.00
C155   C     0.36236   0.33396   0.22688   0.01267  Uiso   1.00
C156   C     0.33180   0.28400   0.27300   0.01267  Uiso   1.00
C157   C     0.31033   0.29013   0.31934   0.01267  Uiso   1.00
C158   C     0.31660   0.35420   0.31560   0.01267  Uiso   1.00
C159   C     0.24676   0.43506   0.59018   0.01267  Uiso   1.00
C160   C     0.27491   0.46131   0.53738   0.01267  Uiso   1.00
C161   C     0.24486   0.56056   0.42658   0.01267  Uiso   1.00
C162   C     0.27233   0.58559   0.37482   0.01267  Uiso   1.00
C163   C     0.75716   0.16656   0.24584   0.01267  Uiso   1.00
C164   C     0.72567   0.21687   0.24800   0.01267  Uiso   1.00
C165   C     0.76619   0.26007   0.24806   0.01267  Uiso   1.00
C166   C     0.82080   0.23954   0.24672   0.01267  Uiso   1.00
C167   C     0.87300   0.27160   0.24708   0.01267  Uiso   1.00
C168   C     0.92662   0.25062   0.24708   0.01267  Uiso   1.00
C169   C     0.98015   0.28335   0.24816   0.01267  Uiso   1.00
C170   C     0.02111   0.24769   0.24888   0.01267  Uiso   1.00
C171   C     0.99372   0.19216   0.24694   0.01267  Uiso   1.00
C172   C     0.73028   0.11180   0.24564   0.01267  Uiso   1.00
C173   C     0.87141   0.33529   0.24726   0.01267  Uiso   1.00
C174   C     0.89293   0.38695   0.20416   0.01267  Uiso   1.00
C175   C     0.89439   0.44545   0.20458   0.01267  Uiso   1.00
C176   C     0.87115   0.45225   0.24912   0.01267  Uiso   1.00
C177   C     0.84981   0.40099   0.29272   0.01267  Uiso   1.00
C178   C     0.84956   0.34238   0.29138   0.01267  Uiso   1.00
C179   C     0.87134   0.51636   0.24946   0.01267  Uiso   1.00
C180   C     0.67440   0.11120   0.23200   0.01267  Uiso   1.00
C181   C     0.62190   0.08990   0.27360   0.01267  Uiso   1.00
C182   C     0.56084   0.08924   0.27312   0.01267  Uiso   1.00
C183   C     0.55700   0.10480   0.22700   0.01267  Uiso   1.00
C184   C     0.60947   0.12967   0.18066   0.01267  Uiso   1.00
C185   C     0.66980   0.13220   0.18440   0.01267  Uiso   1.00
C186   C     0.02524   0.33694   0.90982   0.01267  Uiso   1.00
C187   C     0.99869   0.31229   0.96262   0.01267  Uiso   1.00
C188   C     0.98714   0.17144   0.07342   0.01267  Uiso   1.00
C189   C     0.96041   0.14715   0.12518   0.01267  Uiso   1.00
C190   C     0.99700   0.08760   0.24584   0.01267  Uiso   1.00
C191   C     0.02633   0.03513   0.24800   0.01267  Uiso   1.00
C192   C     0.98575   0.99187   0.24806   0.01267  Uiso   1.00
C193   C     0.93248   0.01374   0.24672   0.01267  Uiso   1.00
C194   C     0.87992   0.98132   0.24708   0.01267  Uiso   1.00
C195   C     0.82630   0.00230   0.24708   0.01267  Uiso   1.00
C196   C     0.77169   0.96849   0.24816   0.01267  Uiso   1.00
C197   C     0.73001   0.00343   0.24888   0.01267  Uiso   1.00
C198   C     0.75934   0.06090   0.24694   0.01267  Uiso   1.00
C199   C     0.02408   0.14256   0.24564   0.01267  Uiso   1.00
C200   C     0.88133   0.91745   0.24726   0.01267  Uiso   1.00
C201   C     0.90291   0.90889   0.20416   0.01267  Uiso   1.00
C202   C     0.90103   0.84997   0.20458   0.01267  Uiso   1.00
C203   C     0.87973   0.79863   0.24912   0.01267  Uiso   1.00
C204   C     0.85747   0.80629   0.29272   0.01267  Uiso   1.00
C205   C     0.85906   0.86624   0.29138   0.01267  Uiso   1.00
C206   C     0.87920   0.73418   0.24946   0.01267  Uiso   1.00
C207   C     0.09360   0.15680   0.23200   0.01267  Uiso   1.00
C208   C     0.10450   0.13650   0.27360   0.01267  Uiso   1.00
C209   C     0.16604   0.13764   0.27312   0.01267  Uiso   1.00
C210   C     0.21600   0.16820   0.22700   0.01267  Uiso   1.00
C211   C     0.20987   0.18967   0.18066   0.01267  Uiso   1.00
C212   C     0.14580   0.18340   0.18440   0.01267  Uiso   1.00
C213   C     0.06494   0.25324   0.90982   0.01267  Uiso   1.00
C214   C     0.03869   0.22509   0.96262   0.01267  Uiso   1.00
C215   C     0.93944   0.25514   0.07342   0.01267  Uiso   1.00
C216   C     0.91441   0.22767   0.12518   0.01267  Uiso   1.00
C217   C     0.75478   0.50478   0.49044   0.01267  Uiso   1.00
C218   C     0.72753   0.47753   0.54494   0.01267  Uiso   1.00
C219   C     0.99522   0.74522   0.00956   0.01267  Uiso   1.00
C220   C     0.02247   0.77247   0.95506   0.01267  Uiso   1.00
C221   C     0.24522   0.49522   0.50956   0.01267  Uiso   1.00
C222   C     0.27247   0.52247   0.45506   0.01267  Uiso   1.00
C223   C     0.00478   0.25478   0.99044   0.01267  Uiso   1.00
C224   C     0.97753   0.22753   0.04494   0.01267  Uiso   1.00
N1     N     0.68127   0.31419   0.74556   0.01267  Uiso   1.00
N2     N     0.69452   0.43754   0.74578   0.01267  Uiso   1.00
N3     N     0.57317   0.44025   0.74556   0.01267  Uiso   1.00
N4     N     0.55970   0.31668   0.74578   0.01267  Uiso   1.00
N5     N     0.18581   0.81873   0.75444   0.01267  Uiso   1.00
N6     N     0.06246   0.80548   0.75422   0.01267  Uiso   1.00
N7     N     0.05975   0.92683   0.75444   0.01267  Uiso   1.00
N8     N     0.18332   0.94030   0.75422   0.01267  Uiso   1.00
N9     N     0.31873   0.68581   0.25444   0.01267  Uiso   1.00
N10    N     0.30548   0.56246   0.25422   0.01267  Uiso   1.00
N11    N     0.42683   0.55975   0.25444   0.01267  Uiso   1.00
N12    N     0.44030   0.68332   0.25422   0.01267  Uiso   1.00
N13    N     0.81419   0.18127   0.24556   0.01267  Uiso   1.00
N14    N     0.93754   0.19452   0.24578   0.01267  Uiso   1.00
N15    N     0.94025   0.07317   0.24556   0.01267  Uiso   1.00
N16    N     0.81668   0.05970   0.24578   0.01267  Uiso   1.00
N17    N     0.80872   0.55872   0.38256   0.01267  Uiso   1.00
N18    N     0.67398   0.42398   0.65204   0.01267  Uiso   1.00
N19    N     0.94128   0.69128   0.11744   0.01267  Uiso   1.00
N20    N     0.07602   0.82602   0.84796   0.01267  Uiso   1.00
N21    N     0.19128   0.44128   0.61744   0.01267  Uiso   1.00
N22    N     0.32602   0.57602   0.34796   0.01267  Uiso   1.00
N23    N     0.05872   0.30872   0.88256   0.01267  Uiso   1.00
N24    N     0.92398   0.17398   0.15204   0.01267  Uiso   1.00
O1     O     0.01860   0.35068   0.79178   0.01267  Uiso   1.00
O2     O     0.06135   0.39265   0.70698   0.01267  Uiso   1.00
O3     O     0.18962   0.35754   0.79178   0.01267  Uiso   1.00
O4     O     0.23167   0.40037   0.70698   0.01267  Uiso   1.00
O5     O     0.14932   0.48140   0.70822   0.01267  Uiso   1.00
O6     O     0.10735   0.43865   0.79302   0.01267  Uiso   1.00
O7     O     0.14246   0.31038   0.70822   0.01267  Uiso   1.00
O8     O     0.09963   0.26833   0.79302   0.01267  Uiso   1.00
O9     O     0.98140   0.64932   0.20822   0.01267  Uiso   1.00
O10    O     0.93865   0.60735   0.29302   0.01267  Uiso   1.00
O11    O     0.81038   0.64246   0.20822   0.01267  Uiso   1.00
O12    O     0.76833   0.59963   0.29302   0.01267  Uiso   1.00
O13    O     0.85068   0.51860   0.29178   0.01267  Uiso   1.00
O14    O     0.89265   0.56135   0.20698   0.01267  Uiso   1.00
O15    O     0.85754   0.68962   0.29178   0.01267  Uiso   1.00
O16    O     0.90037   0.73167   0.20698   0.01267  Uiso   1.00
