data_image0
_cell_length_a       7.4374
_cell_length_b       16.4283
_cell_length_c       14.553
_cell_angle_alpha    90
_cell_angle_beta     94.837
_cell_angle_gamma    90

_symmetry_space_group_name_H-M    "P 1"
_symmetry_int_tables_number       1

loop_
  _symmetry_equiv_pos_as_xyz
  'x, y, z'

loop_
  _atom_site_label
  _atom_site_occupancy
  _atom_site_fract_x
  _atom_site_fract_y
  _atom_site_fract_z
  _atom_site_thermal_displace_type
  _atom_site_B_iso_or_equiv
  _atom_site_type_symbol
  Zn1      1.0000 0.19218  0.12791  0.47974  Biso   1.000  Zn
  Zn2      1.0000 0.22244  0.01827  0.68121  Biso   1.000  Zn
  O1       1.0000 0.24690  0.01747  0.54636  Biso   1.000  O
  O2       1.0000 0.60390  0.09523  0.58210  Biso   1.000  O
  O3       1.0000 0.42560  0.44959  0.73398  Biso   1.000  O
  O4       1.0000 0.01860  0.10547  0.68426  Biso   1.000  O
  O5       1.0000 0.52500  0.41322  0.87323  Biso   1.000  O
  O6       1.0000 0.90200  0.41485  0.89811  Biso   1.000  O
  O7       1.0000 0.07580  0.42963  0.78339  Biso   1.000  O
  O8       1.0000 0.37870  0.18520  0.56330  Biso   1.000  O
  C1       1.0000 0.83230  0.34020  0.76110  Biso   1.000  C
  O9       1.0000 0.96940  0.15824  0.54350  Biso   1.000  O
  C2       1.0000 0.94580  0.40022  0.81860  Biso   1.000  C
  C3       1.0000 0.94620  0.15397  0.62750  Biso   1.000  C
  C4       1.0000 0.64320  0.34501  0.74550  Biso   1.000  C
  C5       1.0000 0.83100  0.21922  0.66620  Biso   1.000  C
  C6       1.0000 0.53470  0.16336  0.59350  Biso   1.000  C
  C7       1.0000 0.55400  0.28856  0.68800  Biso   1.000  C
  H1       1.0000 0.42990  0.29330  0.67510  Biso   1.000  H
  C8       1.0000 0.92230  0.27751  0.71970  Biso   1.000  C
  H2       1.0000 0.04750  0.27490  0.72850  Biso   1.000  H
  C9       1.0000 0.64390  0.22481  0.64890  Biso   1.000  C
  C10      1.0000 0.52770  0.40719  0.78710  Biso   1.000  C
  Zn3      1.0000 0.30782  0.62791  0.02026  Biso   1.000  Zn
  Zn4      1.0000 0.27756  0.51827  0.81879  Biso   1.000  Zn
  O10      1.0000 0.25310  0.51747  0.95364  Biso   1.000  O
  O11      1.0000 0.89610  0.59523  0.91790  Biso   1.000  O
  O12      1.0000 0.07440  0.94959  0.76602  Biso   1.000  O
  O13      1.0000 0.48140  0.60547  0.81574  Biso   1.000  O
  O14      1.0000 0.97500  0.91322  0.62677  Biso   1.000  O
  O15      1.0000 0.59800  0.91485  0.60189  Biso   1.000  O
  O16      1.0000 0.42420  0.92963  0.71661  Biso   1.000  O
  O17      1.0000 0.12130  0.68520  0.93670  Biso   1.000  O
  C11      1.0000 0.66770  0.84020  0.73890  Biso   1.000  C
  O18      1.0000 0.53060  0.65824  0.95650  Biso   1.000  O
  C12      1.0000 0.55420  0.90022  0.68140  Biso   1.000  C
  C13      1.0000 0.55380  0.65397  0.87250  Biso   1.000  C
  C14      1.0000 0.85680  0.84501  0.75450  Biso   1.000  C
  C15      1.0000 0.66900  0.71922  0.83380  Biso   1.000  C
  C16      1.0000 0.96530  0.66336  0.90650  Biso   1.000  C
  C17      1.0000 0.94600  0.78856  0.81200  Biso   1.000  C
  H3       1.0000 0.07010  0.79330  0.82490  Biso   1.000  H
  C18      1.0000 0.57770  0.77751  0.78030  Biso   1.000  C
  H4       1.0000 0.45250  0.77490  0.77150  Biso   1.000  H
  C19      1.0000 0.85610  0.72481  0.85110  Biso   1.000  C
  C20      1.0000 0.97230  0.90719  0.71290  Biso   1.000  C
  Zn5      1.0000 0.80782  0.87209  0.52026  Biso   1.000  Zn
  Zn6      1.0000 0.77756  0.98173  0.31879  Biso   1.000  Zn
  O19      1.0000 0.75310  0.98253  0.45364  Biso   1.000  O
  O20      1.0000 0.39610  0.90477  0.41790  Biso   1.000  O
  O21      1.0000 0.57440  0.55041  0.26602  Biso   1.000  O
  O22      1.0000 0.98140  0.89453  0.31574  Biso   1.000  O
  O23      1.0000 0.47500  0.58678  0.12677  Biso   1.000  O
  O24      1.0000 0.09800  0.58515  0.10189  Biso   1.000  O
  O25      1.0000 0.92420  0.57037  0.21661  Biso   1.000  O
  O26      1.0000 0.62130  0.81480  0.43670  Biso   1.000  O
  C21      1.0000 0.16770  0.65980  0.23890  Biso   1.000  C
  O27      1.0000 0.03060  0.84176  0.45650  Biso   1.000  O
  C22      1.0000 0.05420  0.59978  0.18140  Biso   1.000  C
  C23      1.0000 0.05380  0.84603  0.37250  Biso   1.000  C
  C24      1.0000 0.35680  0.65499  0.25450  Biso   1.000  C
  C25      1.0000 0.16900  0.78078  0.33380  Biso   1.000  C
  C26      1.0000 0.46530  0.83664  0.40650  Biso   1.000  C
  C27      1.0000 0.44600  0.71144  0.31200  Biso   1.000  C
  H5       1.0000 0.57010  0.70670  0.32490  Biso   1.000  H
  C28      1.0000 0.07770  0.72249  0.28030  Biso   1.000  C
  H6       1.0000 0.95250  0.72510  0.27150  Biso   1.000  H
  C29      1.0000 0.35610  0.77519  0.35110  Biso   1.000  C
  C30      1.0000 0.47230  0.59281  0.21290  Biso   1.000  C
  Zn7      1.0000 0.69218  0.37209  0.97974  Biso   1.000  Zn
  Zn8      1.0000 0.72244  0.48173  0.18121  Biso   1.000  Zn
  O28      1.0000 0.74690  0.48253  0.04636  Biso   1.000  O
  O29      1.0000 0.10390  0.40477  0.08210  Biso   1.000  O
  O30      1.0000 0.92560  0.05041  0.23398  Biso   1.000  O
  O31      1.0000 0.51860  0.39453  0.18426  Biso   1.000  O
  O32      1.0000 0.02500  0.08678  0.37323  Biso   1.000  O
  O33      1.0000 0.40200  0.08515  0.39811  Biso   1.000  O
  O34      1.0000 0.57580  0.07037  0.28339  Biso   1.000  O
  O35      1.0000 0.87870  0.31480  0.06330  Biso   1.000  O
  C31      1.0000 0.33230  0.15980  0.26110  Biso   1.000  C
  O36      1.0000 0.46940  0.34176  0.04350  Biso   1.000  O
  C32      1.0000 0.44580  0.09978  0.31860  Biso   1.000  C
  C33      1.0000 0.44620  0.34603  0.12750  Biso   1.000  C
  C34      1.0000 0.14320  0.15499  0.24550  Biso   1.000  C
  C35      1.0000 0.33100  0.28078  0.16620  Biso   1.000  C
  C36      1.0000 0.03470  0.33664  0.09350  Biso   1.000  C
  C37      1.0000 0.05400  0.21144  0.18800  Biso   1.000  C
  H7       1.0000 0.92990  0.20670  0.17510  Biso   1.000  H
  C38      1.0000 0.42230  0.22249  0.21970  Biso   1.000  C
  H8       1.0000 0.54750  0.22510  0.22850  Biso   1.000  H
  C39      1.0000 0.14390  0.27519  0.14890  Biso   1.000  C
  C40      1.0000 0.02770  0.09281  0.28710  Biso   1.000  C
  Zn9      1.0000 0.50000  0.00000  0.50000  Biso   1.000  Zn
  Zn10     1.0000 0.00000  0.50000  0.00000  Biso   1.000  Zn
