data_YUJNOH_clean
_audit_creation_date              2014-07-02
_audit_creation_method            'Materials Studio'
_symmetry_space_group_name_H-M    'P1'
_symmetry_Int_Tables_number       1
_symmetry_cell_setting            triclinic
loop_
_symmetry_equiv_pos_as_xyz
  x,y,z
_cell_length_a                    8.8601
_cell_length_b                    12.9854
_cell_length_c                    12.9854
_cell_angle_alpha                 90.0000
_cell_angle_beta                  90.0000
_cell_angle_gamma                 90.0000
loop_
_atom_site_label
_atom_site_type_symbol
_atom_site_fract_x
_atom_site_fract_y
_atom_site_fract_z
_atom_site_U_iso_or_equiv
_atom_site_adp_type
_atom_site_occupancy
Sr1    Sr    0.71359   0.04883   0.94494   0.01267  Uiso   1.00
Sr2    Sr    0.71359   0.45117   0.55506   0.01267  Uiso   1.00
Sr3    Sr    0.71359   0.55506   0.04883   0.01267  Uiso   1.00
Sr4    Sr    0.71359   0.94494   0.45117   0.01267  Uiso   1.00
Sr5    Sr    0.28641   0.95117   0.05506   0.01267  Uiso   1.00
Sr6    Sr    0.28641   0.54883   0.44494   0.01267  Uiso   1.00
Sr7    Sr    0.28641   0.44494   0.95117   0.01267  Uiso   1.00
Sr8    Sr    0.28641   0.05506   0.54883   0.01267  Uiso   1.00
C1     C     0.62340   0.99150   0.19620   0.01267  Uiso   1.00
C2     C     0.79210   0.99111   0.19643   0.01267  Uiso   1.00
C3     C     0.62340   0.50850   0.30380   0.01267  Uiso   1.00
C4     C     0.79210   0.50889   0.30357   0.01267  Uiso   1.00
C5     C     0.62340   0.30380   0.99150   0.01267  Uiso   1.00
C6     C     0.79210   0.30357   0.99111   0.01267  Uiso   1.00
C7     C     0.62340   0.19620   0.50850   0.01267  Uiso   1.00
C8     C     0.79210   0.19643   0.50889   0.01267  Uiso   1.00
C9     C     0.37660   0.00850   0.80380   0.01267  Uiso   1.00
C10    C     0.20790   0.00889   0.80357   0.01267  Uiso   1.00
C11    C     0.37660   0.49150   0.69620   0.01267  Uiso   1.00
C12    C     0.20790   0.49111   0.69643   0.01267  Uiso   1.00
C13    C     0.37660   0.69620   0.00850   0.01267  Uiso   1.00
C14    C     0.20790   0.69643   0.00889   0.01267  Uiso   1.00
C15    C     0.37660   0.80380   0.49150   0.01267  Uiso   1.00
C16    C     0.20790   0.80357   0.49111   0.01267  Uiso   1.00
N1     N     0.87670   0.99780   0.11206   0.01267  Uiso   1.00
N2     N     0.87420   0.98186   0.28108   0.01267  Uiso   1.00
N3     N     0.01850   0.99241   0.14732   0.01267  Uiso   1.00
N4     N     0.01770   0.98296   0.24778   0.01267  Uiso   1.00
N5     N     0.87670   0.50220   0.38794   0.01267  Uiso   1.00
N6     N     0.87420   0.51814   0.21892   0.01267  Uiso   1.00
N7     N     0.01850   0.50759   0.35268   0.01267  Uiso   1.00
N8     N     0.01770   0.51704   0.25222   0.01267  Uiso   1.00
N9     N     0.87670   0.38794   0.99780   0.01267  Uiso   1.00
N10    N     0.87420   0.21892   0.98186   0.01267  Uiso   1.00
N11    N     0.01850   0.35268   0.99241   0.01267  Uiso   1.00
N12    N     0.01770   0.25222   0.98296   0.01267  Uiso   1.00
N13    N     0.87670   0.11206   0.50220   0.01267  Uiso   1.00
N14    N     0.87420   0.28108   0.51814   0.01267  Uiso   1.00
N15    N     0.01850   0.14732   0.50759   0.01267  Uiso   1.00
N16    N     0.01770   0.24778   0.51704   0.01267  Uiso   1.00
N17    N     0.12330   0.00220   0.88794   0.01267  Uiso   1.00
N18    N     0.12580   0.01814   0.71892   0.01267  Uiso   1.00
N19    N     0.98150   0.00759   0.85268   0.01267  Uiso   1.00
N20    N     0.98230   0.01704   0.75222   0.01267  Uiso   1.00
N21    N     0.12330   0.49780   0.61206   0.01267  Uiso   1.00
N22    N     0.12580   0.48186   0.78108   0.01267  Uiso   1.00
N23    N     0.98150   0.49241   0.64732   0.01267  Uiso   1.00
N24    N     0.98230   0.48296   0.74778   0.01267  Uiso   1.00
N25    N     0.12330   0.61206   0.00220   0.01267  Uiso   1.00
N26    N     0.12580   0.78108   0.01814   0.01267  Uiso   1.00
N27    N     0.98150   0.64732   0.00759   0.01267  Uiso   1.00
N28    N     0.98230   0.74778   0.01704   0.01267  Uiso   1.00
N29    N     0.12330   0.88794   0.49780   0.01267  Uiso   1.00
N30    N     0.12580   0.71892   0.48186   0.01267  Uiso   1.00
N31    N     0.98150   0.85268   0.49241   0.01267  Uiso   1.00
N32    N     0.98230   0.75222   0.48296   0.01267  Uiso   1.00
O1     O     0.55848   0.99872   0.11047   0.01267  Uiso   1.00
O2     O     0.56014   0.98386   0.28223   0.01267  Uiso   1.00
O3     O     0.55848   0.50128   0.38953   0.01267  Uiso   1.00
O4     O     0.56014   0.51614   0.21777   0.01267  Uiso   1.00
O5     O     0.55848   0.38953   0.99872   0.01267  Uiso   1.00
O6     O     0.56014   0.21777   0.98386   0.01267  Uiso   1.00
O7     O     0.55848   0.11047   0.50128   0.01267  Uiso   1.00
O8     O     0.56014   0.28223   0.51614   0.01267  Uiso   1.00
O9     O     0.44152   0.00128   0.88953   0.01267  Uiso   1.00
O10    O     0.43986   0.01614   0.71777   0.01267  Uiso   1.00
O11    O     0.44152   0.49872   0.61047   0.01267  Uiso   1.00
O12    O     0.43986   0.48386   0.78223   0.01267  Uiso   1.00
O13    O     0.44152   0.61047   0.00128   0.01267  Uiso   1.00
O14    O     0.43986   0.78223   0.01614   0.01267  Uiso   1.00
O15    O     0.44152   0.88953   0.49872   0.01267  Uiso   1.00
O16    O     0.43986   0.71777   0.48386   0.01267  Uiso   1.00
