data_image0
_cell_length_a       13.0836
_cell_length_b       13.0836
_cell_length_c       8.0916
_cell_angle_alpha    90
_cell_angle_beta     90
_cell_angle_gamma    90

_symmetry_space_group_name_H-M    "P 1"
_symmetry_int_tables_number       1

loop_
  _symmetry_equiv_pos_as_xyz
  'x, y, z'

loop_
  _atom_site_label
  _atom_site_occupancy
  _atom_site_fract_x
  _atom_site_fract_y
  _atom_site_fract_z
  _atom_site_thermal_displace_type
  _atom_site_B_iso_or_equiv
  _atom_site_type_symbol
  N1       1.0000 0.16930  0.16000  0.59210  Biso   1.000  N
  N2       1.0000 0.01530  0.03450  0.06160  Biso   1.000  N
  C1       1.0000 0.11510  0.20380  0.47300  Biso   1.000  C
  H1       1.0000 0.10400  0.27390  0.47790  Biso   1.000  H
  C2       1.0000 0.07420  0.14950  0.34100  Biso   1.000  C
  H2       1.0000 0.03660  0.18340  0.26030  Biso   1.000  H
  C3       1.0000 0.08860  0.04840  0.33000  Biso   1.000  C
  C4       1.0000 0.13970  0.00250  0.46000  Biso   1.000  C
  H3       1.0000 0.14700  0.93180  0.46220  Biso   1.000  H
  C5       1.0000 0.17880  0.05900  0.58420  Biso   1.000  C
  H4       1.0000 0.21420  0.02530  0.66810  Biso   1.000  H
  C6       1.0000 0.04960  0.99050  0.19000  Biso   1.000  C
  H5       1.0000 0.04960  0.91940  0.19530  Biso   1.000  H
  N3       1.0000 0.33070  0.34000  0.59210  Biso   1.000  N
  N4       1.0000 0.48470  0.46550  0.06160  Biso   1.000  N
  C7       1.0000 0.38490  0.29620  0.47300  Biso   1.000  C
  H6       1.0000 0.39600  0.22610  0.47790  Biso   1.000  H
  C8       1.0000 0.42580  0.35050  0.34100  Biso   1.000  C
  H7       1.0000 0.46340  0.31660  0.26030  Biso   1.000  H
  C9       1.0000 0.41140  0.45160  0.33000  Biso   1.000  C
  C10      1.0000 0.36030  0.49750  0.46000  Biso   1.000  C
  H8       1.0000 0.35300  0.56820  0.46220  Biso   1.000  H
  C11      1.0000 0.32120  0.44100  0.58420  Biso   1.000  C
  H9       1.0000 0.28580  0.47470  0.66810  Biso   1.000  H
  C12      1.0000 0.45040  0.50950  0.19000  Biso   1.000  C
  H10      1.0000 0.45040  0.58060  0.19530  Biso   1.000  H
  N5       1.0000 0.84000  0.66930  0.09210  Biso   1.000  N
  N6       1.0000 0.96550  0.51530  0.56160  Biso   1.000  N
  C13      1.0000 0.79620  0.61510  0.97300  Biso   1.000  C
  H11      1.0000 0.72610  0.60400  0.97790  Biso   1.000  H
  C14      1.0000 0.85050  0.57420  0.84100  Biso   1.000  C
  H12      1.0000 0.81660  0.53660  0.76030  Biso   1.000  H
  C15      1.0000 0.95160  0.58860  0.83000  Biso   1.000  C
  C16      1.0000 0.99750  0.63970  0.96000  Biso   1.000  C
  H13      1.0000 0.06820  0.64700  0.96220  Biso   1.000  H
  C17      1.0000 0.94100  0.67880  0.08420  Biso   1.000  C
  H14      1.0000 0.97470  0.71420  0.16810  Biso   1.000  H
  C18      1.0000 0.00950  0.54960  0.69000  Biso   1.000  C
  H15      1.0000 0.08060  0.54960  0.69530  Biso   1.000  H
  N7       1.0000 0.66000  0.83070  0.09210  Biso   1.000  N
  N8       1.0000 0.53450  0.98470  0.56160  Biso   1.000  N
  C19      1.0000 0.70380  0.88490  0.97300  Biso   1.000  C
  H16      1.0000 0.77390  0.89600  0.97790  Biso   1.000  H
  C20      1.0000 0.64950  0.92580  0.84100  Biso   1.000  C
  H17      1.0000 0.68340  0.96340  0.76030  Biso   1.000  H
  C21      1.0000 0.54840  0.91140  0.83000  Biso   1.000  C
  C22      1.0000 0.50250  0.86030  0.96000  Biso   1.000  C
  H18      1.0000 0.43180  0.85300  0.96220  Biso   1.000  H
  C23      1.0000 0.55900  0.82120  0.08420  Biso   1.000  C
  H19      1.0000 0.52530  0.78580  0.16810  Biso   1.000  H
  C24      1.0000 0.49050  0.95040  0.69000  Biso   1.000  C
  H20      1.0000 0.41940  0.95040  0.69530  Biso   1.000  H
  N9       1.0000 0.83070  0.84000  0.40790  Biso   1.000  N
  N10      1.0000 0.98470  0.96550  0.93840  Biso   1.000  N
  C25      1.0000 0.88490  0.79620  0.52700  Biso   1.000  C
  H21      1.0000 0.89600  0.72610  0.52210  Biso   1.000  H
  C26      1.0000 0.92580  0.85050  0.65900  Biso   1.000  C
  H22      1.0000 0.96340  0.81660  0.73970  Biso   1.000  H
  C27      1.0000 0.91140  0.95160  0.67000  Biso   1.000  C
  C28      1.0000 0.86030  0.99750  0.54000  Biso   1.000  C
  H23      1.0000 0.85300  0.06820  0.53780  Biso   1.000  H
  C29      1.0000 0.82120  0.94100  0.41580  Biso   1.000  C
  H24      1.0000 0.78580  0.97470  0.33190  Biso   1.000  H
  C30      1.0000 0.95040  0.00950  0.81000  Biso   1.000  C
  H25      1.0000 0.95040  0.08060  0.80470  Biso   1.000  H
  N11      1.0000 0.66930  0.66000  0.40790  Biso   1.000  N
  N12      1.0000 0.51530  0.53450  0.93840  Biso   1.000  N
  C31      1.0000 0.61510  0.70380  0.52700  Biso   1.000  C
  H26      1.0000 0.60400  0.77390  0.52210  Biso   1.000  H
  C32      1.0000 0.57420  0.64950  0.65900  Biso   1.000  C
  H27      1.0000 0.53660  0.68340  0.73970  Biso   1.000  H
  C33      1.0000 0.58860  0.54840  0.67000  Biso   1.000  C
  C34      1.0000 0.63970  0.50250  0.54000  Biso   1.000  C
  H28      1.0000 0.64700  0.43180  0.53780  Biso   1.000  H
  C35      1.0000 0.67880  0.55900  0.41580  Biso   1.000  C
  H29      1.0000 0.71420  0.52530  0.33190  Biso   1.000  H
  C36      1.0000 0.54960  0.49050  0.81000  Biso   1.000  C
  H30      1.0000 0.54960  0.41940  0.80470  Biso   1.000  H
  N13      1.0000 0.16000  0.33070  0.90790  Biso   1.000  N
  N14      1.0000 0.03450  0.48470  0.43840  Biso   1.000  N
  C37      1.0000 0.20380  0.38490  0.02700  Biso   1.000  C
  H31      1.0000 0.27390  0.39600  0.02210  Biso   1.000  H
  C38      1.0000 0.14950  0.42580  0.15900  Biso   1.000  C
  H32      1.0000 0.18340  0.46340  0.23970  Biso   1.000  H
  C39      1.0000 0.04840  0.41140  0.17000  Biso   1.000  C
  C40      1.0000 0.00250  0.36030  0.04000  Biso   1.000  C
  H33      1.0000 0.93180  0.35300  0.03780  Biso   1.000  H
  C41      1.0000 0.05900  0.32120  0.91580  Biso   1.000  C
  H34      1.0000 0.02530  0.28580  0.83190  Biso   1.000  H
  C42      1.0000 0.99050  0.45040  0.31000  Biso   1.000  C
  H35      1.0000 0.91940  0.45040  0.30470  Biso   1.000  H
  N15      1.0000 0.34000  0.16930  0.90790  Biso   1.000  N
  N16      1.0000 0.46550  0.01530  0.43840  Biso   1.000  N
  C43      1.0000 0.29620  0.11510  0.02700  Biso   1.000  C
  H36      1.0000 0.22610  0.10400  0.02210  Biso   1.000  H
  C44      1.0000 0.35050  0.07420  0.15900  Biso   1.000  C
  H37      1.0000 0.31660  0.03660  0.23970  Biso   1.000  H
  C45      1.0000 0.45160  0.08860  0.17000  Biso   1.000  C
  C46      1.0000 0.49750  0.13970  0.04000  Biso   1.000  C
  H38      1.0000 0.56820  0.14700  0.03780  Biso   1.000  H
  C47      1.0000 0.44100  0.17880  0.91580  Biso   1.000  C
  H39      1.0000 0.47470  0.21420  0.83190  Biso   1.000  H
  C48      1.0000 0.50950  0.04960  0.31000  Biso   1.000  C
  H40      1.0000 0.58060  0.04960  0.30470  Biso   1.000  H
  Cu1      1.0000 0.25000  0.25000  0.75000  Biso   1.000  Cu
  Cu2      1.0000 0.75000  0.75000  0.25000  Biso   1.000  Cu
