data_image0
_cell_length_a       9.9939
_cell_length_b       10.6523
_cell_length_c       10.9658
_cell_angle_alpha    80.558
_cell_angle_beta     72.257
_cell_angle_gamma    74.541

_symmetry_space_group_name_H-M    "P 1"
_symmetry_int_tables_number       1

loop_
  _symmetry_equiv_pos_as_xyz
  'x, y, z'

loop_
  _atom_site_label
  _atom_site_occupancy
  _atom_site_fract_x
  _atom_site_fract_y
  _atom_site_fract_z
  _atom_site_thermal_displace_type
  _atom_site_B_iso_or_equiv
  _atom_site_type_symbol
  Eu1      1.0000 0.82491  0.30560  0.46566  Biso   1.000  Eu
  Zn1      1.0000 0.70787  0.13223  0.88350  Biso   1.000  Zn
  N1       1.0000 0.86870  0.19780  0.92500  Biso   1.000  N
  N2       1.0000 0.52280  0.29510  0.92990  Biso   1.000  N
  C1       1.0000 0.77690  0.07530  0.12570  Biso   1.000  C
  C2       1.0000 0.88880  0.14830  0.04120  Biso   1.000  C
  C3       1.0000 0.00680  0.16150  0.07620  Biso   1.000  C
  C4       1.0000 0.10590  0.22450  0.98710  Biso   1.000  C
  H1       1.0000 0.18900  0.22500  0.00600  Biso   1.000  H
  C5       1.0000 0.08410  0.27520  0.86860  Biso   1.000  C
  H2       1.0000 0.14600  0.32500  0.80600  Biso   1.000  H
  C6       1.0000 0.96330  0.26040  0.84130  Biso   1.000  C
  H3       1.0000 0.94200  0.29400  0.76600  Biso   1.000  H
  C7       1.0000 0.02960  0.11570  0.20770  Biso   1.000  C
  C8       1.0000 0.59470  0.33090  0.69990  Biso   1.000  C
  C9       1.0000 0.48560  0.36380  0.82580  Biso   1.000  C
  C10      1.0000 0.36060  0.46270  0.83490  Biso   1.000  C
  C11      1.0000 0.27510  0.49300  0.95740  Biso   1.000  C
  H4       1.0000 0.19600  0.56100  0.96300  Biso   1.000  H
  C12      1.0000 0.31490  0.42570  0.06470  Biso   1.000  C
  H5       1.0000 0.26100  0.43700  0.14700  Biso   1.000  H
  C13      1.0000 0.43900  0.32680  0.04680  Biso   1.000  C
  H6       1.0000 0.46800  0.28100  0.11600  Biso   1.000  H
  C14      1.0000 0.31190  0.53860  0.71980  Biso   1.000  C
  C15      1.0000 0.05960  0.47870  0.43810  Biso   1.000  C
  O1       1.0000 0.68560  0.06030  0.07393  Biso   1.000  O
  O2       1.0000 0.78270  0.03380  0.23664  Biso   1.000  O
  O3       1.0000 0.97270  0.19714  0.28870  Biso   1.000  O
  O4       1.0000 0.10940  0.00632  0.22630  Biso   1.000  O
  O5       1.0000 0.70790  0.24081  0.70312  Biso   1.000  O
  O6       1.0000 0.57662  0.39473  0.59858  Biso   1.000  O
  O7       1.0000 0.33090  0.65233  0.68727  Biso   1.000  O
  O8       1.0000 0.24440  0.48890  0.66786  Biso   1.000  O
  O9       1.0000 0.04350  0.39274  0.38287  Biso   1.000  O
  O10      1.0000 0.16210  0.53510  0.40385  Biso   1.000  O
  Eu2      1.0000 0.17509  0.69440  0.53434  Biso   1.000  Eu
  Zn2      1.0000 0.29213  0.86777  0.11650  Biso   1.000  Zn
  N3       1.0000 0.13130  0.80220  0.07500  Biso   1.000  N
  N4       1.0000 0.47720  0.70490  0.07010  Biso   1.000  N
  C16      1.0000 0.22310  0.92470  0.87430  Biso   1.000  C
  C17      1.0000 0.11120  0.85170  0.95880  Biso   1.000  C
  C18      1.0000 0.99320  0.83850  0.92380  Biso   1.000  C
  C19      1.0000 0.89410  0.77550  0.01290  Biso   1.000  C
  H7       1.0000 0.81100  0.77500  0.99400  Biso   1.000  H
  C20      1.0000 0.91590  0.72480  0.13140  Biso   1.000  C
  H8       1.0000 0.85400  0.67500  0.19400  Biso   1.000  H
  C21      1.0000 0.03670  0.73960  0.15870  Biso   1.000  C
  H9       1.0000 0.05800  0.70600  0.23400  Biso   1.000  H
  C22      1.0000 0.97040  0.88430  0.79230  Biso   1.000  C
  C23      1.0000 0.40530  0.66910  0.30010  Biso   1.000  C
  C24      1.0000 0.51440  0.63620  0.17420  Biso   1.000  C
  C25      1.0000 0.63940  0.53730  0.16510  Biso   1.000  C
  C26      1.0000 0.72490  0.50700  0.04260  Biso   1.000  C
  H10      1.0000 0.80400  0.43900  0.03700  Biso   1.000  H
  C27      1.0000 0.68510  0.57430  0.93530  Biso   1.000  C
  H11      1.0000 0.73900  0.56300  0.85300  Biso   1.000  H
  C28      1.0000 0.56100  0.67320  0.95320  Biso   1.000  C
  H12      1.0000 0.53200  0.71900  0.88400  Biso   1.000  H
  C29      1.0000 0.68810  0.46140  0.28020  Biso   1.000  C
  C30      1.0000 0.94040  0.52130  0.56190  Biso   1.000  C
  O11      1.0000 0.31440  0.93970  0.92607  Biso   1.000  O
  O12      1.0000 0.21730  0.96620  0.76336  Biso   1.000  O
  O13      1.0000 0.02730  0.80286  0.71130  Biso   1.000  O
  O14      1.0000 0.89060  0.99368  0.77370  Biso   1.000  O
  O15      1.0000 0.29210  0.75919  0.29688  Biso   1.000  O
  O16      1.0000 0.42338  0.60527  0.40142  Biso   1.000  O
  O17      1.0000 0.66910  0.34767  0.31273  Biso   1.000  O
  O18      1.0000 0.75560  0.51110  0.33214  Biso   1.000  O
  O19      1.0000 0.95650  0.60726  0.61713  Biso   1.000  O
  O20      1.0000 0.83790  0.46490  0.59615  Biso   1.000  O
