data_YUKKAR_clean
_audit_creation_date              2014-07-02
_audit_creation_method            'Materials Studio'
_symmetry_space_group_name_H-M    'P1'
_symmetry_Int_Tables_number       1
_symmetry_cell_setting            triclinic
loop_
_symmetry_equiv_pos_as_xyz
  x,y,z
_cell_length_a                    9.4700
_cell_length_b                    9.7845
_cell_length_c                    12.7425
_cell_angle_alpha                 87.2465
_cell_angle_beta                  84.3029
_cell_angle_gamma                 61.0577
loop_
_atom_site_label
_atom_site_type_symbol
_atom_site_fract_x
_atom_site_fract_y
_atom_site_fract_z
_atom_site_U_iso_or_equiv
_atom_site_adp_type
_atom_site_occupancy
Mn1    Mn    0.65426   0.69148   0.00000   0.01267  Uiso   1.00
Mn2    Mn    0.34574   0.30852   0.00000   0.01267  Uiso   1.00
H1     H     0.43560   0.23380   0.42580   0.01267  Uiso   1.00
H2     H     0.55540   0.22860   0.25900   0.01267  Uiso   1.00
H3     H     0.06330   0.76460   0.14430   0.01267  Uiso   1.00
H4     H     0.31170   0.76360   0.13870   0.01267  Uiso   1.00
H5     H     0.68400   0.10000   0.10800   0.01267  Uiso   1.00
H6     H     0.33060   0.23380   0.57420   0.01267  Uiso   1.00
H7     H     0.21600   0.22860   0.74100   0.01267  Uiso   1.00
H8     H     0.17210   0.76460   0.85570   0.01267  Uiso   1.00
H9     H     0.92470   0.76360   0.86130   0.01267  Uiso   1.00
H10    H     0.21600   0.10000   0.89200   0.01267  Uiso   1.00
H11    H     0.56440   0.76620   0.57420   0.01267  Uiso   1.00
H12    H     0.44460   0.77140   0.74100   0.01267  Uiso   1.00
H13    H     0.93670   0.23540   0.85570   0.01267  Uiso   1.00
H14    H     0.68830   0.23640   0.86130   0.01267  Uiso   1.00
H15    H     0.31600   0.90000   0.89200   0.01267  Uiso   1.00
H16    H     0.66940   0.76620   0.42580   0.01267  Uiso   1.00
H17    H     0.78400   0.77140   0.25900   0.01267  Uiso   1.00
H18    H     0.82790   0.23540   0.14430   0.01267  Uiso   1.00
H19    H     0.07530   0.23640   0.13870   0.01267  Uiso   1.00
H20    H     0.78400   0.90000   0.10800   0.01267  Uiso   1.00
C1     C     0.50890   0.13620   0.39360   0.01267  Uiso   1.00
C2     C     0.58130   0.13320   0.29510   0.01267  Uiso   1.00
C3     C     0.06590   0.86060   0.14250   0.01267  Uiso   1.00
C4     C     0.21400   0.85980   0.13810   0.01267  Uiso   1.00
C5     C     0.46820   0.53540   0.94690   0.01267  Uiso   1.00
C6     C     0.35490   0.13620   0.60640   0.01267  Uiso   1.00
C7     C     0.28550   0.13320   0.70490   0.01267  Uiso   1.00
C8     C     0.07350   0.86060   0.85750   0.01267  Uiso   1.00
C9     C     0.92620   0.85980   0.86190   0.01267  Uiso   1.00
C10    C     0.99640   0.53540   0.05310   0.01267  Uiso   1.00
C11    C     0.49110   0.86380   0.60640   0.01267  Uiso   1.00
C12    C     0.41870   0.86680   0.70490   0.01267  Uiso   1.00
C13    C     0.93410   0.13940   0.85750   0.01267  Uiso   1.00
C14    C     0.78600   0.14020   0.86190   0.01267  Uiso   1.00
C15    C     0.53180   0.46460   0.05310   0.01267  Uiso   1.00
C16    C     0.64510   0.86380   0.39360   0.01267  Uiso   1.00
C17    C     0.71450   0.86680   0.29510   0.01267  Uiso   1.00
C18    C     0.92650   0.13940   0.14250   0.01267  Uiso   1.00
C19    C     0.07380   0.14020   0.13810   0.01267  Uiso   1.00
C20    C     0.00360   0.46460   0.94690   0.01267  Uiso   1.00
C21    C     0.54020   0.00000   0.44720   0.01267  Uiso   1.00
C22    C     0.76450   0.00000   0.14040   0.01267  Uiso   1.00
C23    C     0.92330   0.00000   0.14420   0.01267  Uiso   1.00
C24    C     0.21870   0.00000   0.13280   0.01267  Uiso   1.00
C25    C     0.37750   0.00000   0.11750   0.01267  Uiso   1.00
C26    C     0.45980   0.00000   0.55280   0.01267  Uiso   1.00
C27    C     0.23550   0.00000   0.85960   0.01267  Uiso   1.00
C28    C     0.07670   0.00000   0.85580   0.01267  Uiso   1.00
C29    C     0.78130   0.00000   0.86720   0.01267  Uiso   1.00
C30    C     0.62250   0.00000   0.88250   0.01267  Uiso   1.00
N1     N     0.68680   0.00000   0.24910   0.01267  Uiso   1.00
N2     N     0.31320   0.00000   0.75090   0.01267  Uiso   1.00
O1     O     0.50543   0.87074   0.11230   0.01267  Uiso   1.00
O2     O     0.50180   0.63740   0.90850   0.01267  Uiso   1.00
O3     O     0.38785   0.48530   0.90540   0.01267  Uiso   1.00
O4     O     0.62383   0.87074   0.88770   0.01267  Uiso   1.00
O5     O     0.86080   0.63740   0.09150   0.01267  Uiso   1.00
O6     O     0.12685   0.48530   0.09460   0.01267  Uiso   1.00
O7     O     0.49457   0.12926   0.88770   0.01267  Uiso   1.00
O8     O     0.49820   0.36260   0.09150   0.01267  Uiso   1.00
O9     O     0.61215   0.51470   0.09460   0.01267  Uiso   1.00
O10    O     0.37617   0.12926   0.11230   0.01267  Uiso   1.00
O11    O     0.13920   0.36260   0.90850   0.01267  Uiso   1.00
O12    O     0.87315   0.51470   0.90540   0.01267  Uiso   1.00
