data_image0
_cell_length_a       8.5211
_cell_length_b       11.9779
_cell_length_c       9.0593
_cell_angle_alpha    90
_cell_angle_beta     90
_cell_angle_gamma    90

_symmetry_space_group_name_H-M    "P 1"
_symmetry_int_tables_number       1

loop_
  _symmetry_equiv_pos_as_xyz
  'x, y, z'

loop_
  _atom_site_label
  _atom_site_occupancy
  _atom_site_fract_x
  _atom_site_fract_y
  _atom_site_fract_z
  _atom_site_thermal_displace_type
  _atom_site_B_iso_or_equiv
  _atom_site_type_symbol
  O1       1.0000 0.25685  0.40746  0.37153  Biso   1.000  O
  O2       1.0000 0.40434  0.17949  0.41632  Biso   1.000  O
  O3       1.0000 0.55742  0.19135  0.61227  Biso   1.000  O
  C1       1.0000 0.51980  0.21654  0.48493  Biso   1.000  C
  H1       1.0000 0.58330  0.26770  0.43590  Biso   1.000  H
  O4       1.0000 0.24315  0.59254  0.37153  Biso   1.000  O
  O5       1.0000 0.09566  0.82051  0.41632  Biso   1.000  O
  O6       1.0000 0.94258  0.80865  0.61227  Biso   1.000  O
  C2       1.0000 0.98020  0.78346  0.48493  Biso   1.000  C
  H2       1.0000 0.91670  0.73230  0.43590  Biso   1.000  H
  O7       1.0000 0.24315  0.90746  0.12847  Biso   1.000  O
  O8       1.0000 0.09566  0.67949  0.08368  Biso   1.000  O
  O9       1.0000 0.94258  0.69135  0.88773  Biso   1.000  O
  C3       1.0000 0.98020  0.71654  0.01507  Biso   1.000  C
  H3       1.0000 0.91670  0.76770  0.06410  Biso   1.000  H
  O10      1.0000 0.25685  0.09254  0.12847  Biso   1.000  O
  O11      1.0000 0.40434  0.32051  0.08368  Biso   1.000  O
  O12      1.0000 0.55742  0.30865  0.88773  Biso   1.000  O
  C4       1.0000 0.51980  0.28346  0.01507  Biso   1.000  C
  H4       1.0000 0.58330  0.23230  0.06410  Biso   1.000  H
  O13      1.0000 0.74315  0.59254  0.62847  Biso   1.000  O
  O14      1.0000 0.59566  0.82051  0.58368  Biso   1.000  O
  O15      1.0000 0.44258  0.80865  0.38773  Biso   1.000  O
  C5       1.0000 0.48020  0.78346  0.51507  Biso   1.000  C
  H5       1.0000 0.41670  0.73230  0.56410  Biso   1.000  H
  O16      1.0000 0.75685  0.40746  0.62847  Biso   1.000  O
  O17      1.0000 0.90434  0.17949  0.58368  Biso   1.000  O
  O18      1.0000 0.05742  0.19135  0.38773  Biso   1.000  O
  C6       1.0000 0.01980  0.21654  0.51507  Biso   1.000  C
  H6       1.0000 0.08330  0.26770  0.56410  Biso   1.000  H
  O19      1.0000 0.75685  0.09254  0.87153  Biso   1.000  O
  O20      1.0000 0.90434  0.32051  0.91632  Biso   1.000  O
  O21      1.0000 0.05742  0.30865  0.11227  Biso   1.000  O
  C7       1.0000 0.01980  0.28346  0.98493  Biso   1.000  C
  H7       1.0000 0.08330  0.23230  0.93590  Biso   1.000  H
  O22      1.0000 0.74315  0.90746  0.87153  Biso   1.000  O
  O23      1.0000 0.59566  0.67949  0.91632  Biso   1.000  O
  O24      1.0000 0.44258  0.69135  0.11227  Biso   1.000  O
  C8       1.0000 0.48020  0.71654  0.98493  Biso   1.000  C
  H8       1.0000 0.41670  0.76770  0.93590  Biso   1.000  H
  Mn1      1.0000 0.25192  0.25000  0.25000  Biso   1.000  Mn
  Mn2      1.0000 0.24808  0.75000  0.25000  Biso   1.000  Mn
  Mn3      1.0000 0.74808  0.75000  0.75000  Biso   1.000  Mn
  Mn4      1.0000 0.75192  0.25000  0.75000  Biso   1.000  Mn
  C9       1.0000 0.25000  0.50000  0.31080  Biso   1.000  C
  H9       1.0000 0.25000  0.50000  0.20820  Biso   1.000  H
  C10      1.0000 0.25000  0.00000  0.18920  Biso   1.000  C
  H10      1.0000 0.25000  0.00000  0.29180  Biso   1.000  H
  C11      1.0000 0.75000  0.50000  0.68920  Biso   1.000  C
  H11      1.0000 0.75000  0.50000  0.79180  Biso   1.000  H
  C12      1.0000 0.75000  0.00000  0.81080  Biso   1.000  C
  H12      1.0000 0.75000  0.00000  0.70820  Biso   1.000  H
