data_image0
_cell_length_a       8.261
_cell_length_b       11.6414
_cell_length_c       8.8332
_cell_angle_alpha    90
_cell_angle_beta     90
_cell_angle_gamma    90

_symmetry_space_group_name_H-M    "P 1"
_symmetry_int_tables_number       1

loop_
  _symmetry_equiv_pos_as_xyz
  'x, y, z'

loop_
  _atom_site_label
  _atom_site_occupancy
  _atom_site_fract_x
  _atom_site_fract_y
  _atom_site_fract_z
  _atom_site_thermal_displace_type
  _atom_site_B_iso_or_equiv
  _atom_site_type_symbol
  O1       1.0000 0.25570  0.40500  0.36248  Biso   1.000  O
  O2       1.0000 0.40781  0.18375  0.41197  Biso   1.000  O
  O3       1.0000 0.56754  0.19269  0.61169  Biso   1.000  O
  C1       1.0000 0.52480  0.22462  0.48300  Biso   1.000  C
  H1       1.0000 0.58420  0.28280  0.43690  Biso   1.000  H
  O4       1.0000 0.24430  0.59500  0.36248  Biso   1.000  O
  O5       1.0000 0.09219  0.81625  0.41197  Biso   1.000  O
  O6       1.0000 0.93246  0.80731  0.61169  Biso   1.000  O
  C2       1.0000 0.97520  0.77538  0.48300  Biso   1.000  C
  H2       1.0000 0.91580  0.71720  0.43690  Biso   1.000  H
  O7       1.0000 0.24430  0.90500  0.13752  Biso   1.000  O
  O8       1.0000 0.09219  0.68375  0.08803  Biso   1.000  O
  O9       1.0000 0.93246  0.69269  0.88831  Biso   1.000  O
  C3       1.0000 0.97520  0.72462  0.01700  Biso   1.000  C
  H3       1.0000 0.91580  0.78280  0.06310  Biso   1.000  H
  O10      1.0000 0.25570  0.09500  0.13752  Biso   1.000  O
  O11      1.0000 0.40781  0.31625  0.08803  Biso   1.000  O
  O12      1.0000 0.56754  0.30731  0.88831  Biso   1.000  O
  C4       1.0000 0.52480  0.27538  0.01700  Biso   1.000  C
  H4       1.0000 0.58420  0.21720  0.06310  Biso   1.000  H
  O13      1.0000 0.74430  0.59500  0.63752  Biso   1.000  O
  O14      1.0000 0.59219  0.81625  0.58803  Biso   1.000  O
  O15      1.0000 0.43246  0.80731  0.38831  Biso   1.000  O
  C5       1.0000 0.47520  0.77538  0.51700  Biso   1.000  C
  H5       1.0000 0.41580  0.71720  0.56310  Biso   1.000  H
  O16      1.0000 0.75570  0.40500  0.63752  Biso   1.000  O
  O17      1.0000 0.90781  0.18375  0.58803  Biso   1.000  O
  O18      1.0000 0.06754  0.19269  0.38831  Biso   1.000  O
  C6       1.0000 0.02480  0.22462  0.51700  Biso   1.000  C
  H6       1.0000 0.08420  0.28280  0.56310  Biso   1.000  H
  O19      1.0000 0.75570  0.09500  0.86248  Biso   1.000  O
  O20      1.0000 0.90781  0.31625  0.91197  Biso   1.000  O
  O21      1.0000 0.06754  0.30731  0.11169  Biso   1.000  O
  C7       1.0000 0.02480  0.27538  0.98300  Biso   1.000  C
  H7       1.0000 0.08420  0.21720  0.93690  Biso   1.000  H
  O22      1.0000 0.74430  0.90500  0.86248  Biso   1.000  O
  O23      1.0000 0.59219  0.68375  0.91197  Biso   1.000  O
  O24      1.0000 0.43246  0.69269  0.11169  Biso   1.000  O
  C8       1.0000 0.47520  0.72462  0.98300  Biso   1.000  C
  H8       1.0000 0.41580  0.78280  0.93690  Biso   1.000  H
  Ni1      1.0000 0.25405  0.25000  0.25000  Biso   1.000  Ni
  Ni2      1.0000 0.24595  0.75000  0.25000  Biso   1.000  Ni
  Ni3      1.0000 0.74595  0.75000  0.75000  Biso   1.000  Ni
  Ni4      1.0000 0.75405  0.25000  0.75000  Biso   1.000  Ni
  C9       1.0000 0.25000  0.50000  0.29930  Biso   1.000  C
  H9       1.0000 0.25000  0.50000  0.19400  Biso   1.000  H
  C10      1.0000 0.25000  0.00000  0.20070  Biso   1.000  C
  H10      1.0000 0.25000  0.00000  0.30600  Biso   1.000  H
  C11      1.0000 0.75000  0.50000  0.70070  Biso   1.000  C
  H11      1.0000 0.75000  0.50000  0.80600  Biso   1.000  H
  C12      1.0000 0.75000  0.00000  0.79930  Biso   1.000  C
  H12      1.0000 0.75000  0.00000  0.69400  Biso   1.000  H
