data_image0
_cell_length_a       8.3343
_cell_length_b       11.753
_cell_length_c       8.9111
_cell_angle_alpha    90
_cell_angle_beta     90
_cell_angle_gamma    90

_symmetry_space_group_name_H-M    "P 1"
_symmetry_int_tables_number       1

loop_
  _symmetry_equiv_pos_as_xyz
  'x, y, z'

loop_
  _atom_site_label
  _atom_site_occupancy
  _atom_site_fract_x
  _atom_site_fract_y
  _atom_site_fract_z
  _atom_site_thermal_displace_type
  _atom_site_B_iso_or_equiv
  _atom_site_type_symbol
  O1       1.0000 0.25671  0.40566  0.36555  Biso   1.000  O
  O2       1.0000 0.40688  0.18273  0.41332  Biso   1.000  O
  O3       1.0000 0.56460  0.19227  0.61190  Biso   1.000  O
  C1       1.0000 0.52340  0.22225  0.48350  Biso   1.000  C
  H1       1.0000 0.58410  0.27830  0.43660  Biso   1.000  H
  O4       1.0000 0.24329  0.59434  0.36555  Biso   1.000  O
  O5       1.0000 0.09312  0.81727  0.41332  Biso   1.000  O
  O6       1.0000 0.93540  0.80773  0.61190  Biso   1.000  O
  C2       1.0000 0.97660  0.77775  0.48350  Biso   1.000  C
  H2       1.0000 0.91590  0.72170  0.43660  Biso   1.000  H
  O7       1.0000 0.24329  0.90566  0.13445  Biso   1.000  O
  O8       1.0000 0.09312  0.68273  0.08668  Biso   1.000  O
  O9       1.0000 0.93540  0.69227  0.88810  Biso   1.000  O
  C3       1.0000 0.97660  0.72225  0.01650  Biso   1.000  C
  H3       1.0000 0.91590  0.77830  0.06340  Biso   1.000  H
  O10      1.0000 0.25671  0.09434  0.13445  Biso   1.000  O
  O11      1.0000 0.40688  0.31727  0.08668  Biso   1.000  O
  O12      1.0000 0.56460  0.30773  0.88810  Biso   1.000  O
  C4       1.0000 0.52340  0.27775  0.01650  Biso   1.000  C
  H4       1.0000 0.58410  0.22170  0.06340  Biso   1.000  H
  O13      1.0000 0.74329  0.59434  0.63445  Biso   1.000  O
  O14      1.0000 0.59312  0.81727  0.58668  Biso   1.000  O
  O15      1.0000 0.43540  0.80773  0.38810  Biso   1.000  O
  C5       1.0000 0.47660  0.77775  0.51650  Biso   1.000  C
  H5       1.0000 0.41590  0.72170  0.56340  Biso   1.000  H
  O16      1.0000 0.75671  0.40566  0.63445  Biso   1.000  O
  O17      1.0000 0.90688  0.18273  0.58668  Biso   1.000  O
  O18      1.0000 0.06460  0.19227  0.38810  Biso   1.000  O
  C6       1.0000 0.02340  0.22225  0.51650  Biso   1.000  C
  H6       1.0000 0.08410  0.27830  0.56340  Biso   1.000  H
  O19      1.0000 0.75671  0.09434  0.86555  Biso   1.000  O
  O20      1.0000 0.90688  0.31727  0.91332  Biso   1.000  O
  O21      1.0000 0.06460  0.30773  0.11190  Biso   1.000  O
  C7       1.0000 0.02340  0.27775  0.98350  Biso   1.000  C
  H7       1.0000 0.08410  0.22170  0.93660  Biso   1.000  H
  O22      1.0000 0.74329  0.90566  0.86555  Biso   1.000  O
  O23      1.0000 0.59312  0.68273  0.91332  Biso   1.000  O
  O24      1.0000 0.43540  0.69227  0.11190  Biso   1.000  O
  C8       1.0000 0.47660  0.72225  0.98350  Biso   1.000  C
  H8       1.0000 0.41590  0.77830  0.93660  Biso   1.000  H
  Co1      1.0000 0.25371  0.25000  0.25000  Biso   1.000  Co
  Co2      1.0000 0.24629  0.75000  0.25000  Biso   1.000  Co
  Co3      1.0000 0.74629  0.75000  0.75000  Biso   1.000  Co
  Co4      1.0000 0.75371  0.25000  0.75000  Biso   1.000  Co
  C9       1.0000 0.25000  0.50000  0.30300  Biso   1.000  C
  H9       1.0000 0.25000  0.50000  0.19860  Biso   1.000  H
  C10      1.0000 0.25000  0.00000  0.19700  Biso   1.000  C
  H10      1.0000 0.25000  0.00000  0.30140  Biso   1.000  H
  C11      1.0000 0.75000  0.50000  0.69700  Biso   1.000  C
  H11      1.0000 0.75000  0.50000  0.80140  Biso   1.000  H
  C12      1.0000 0.75000  0.00000  0.80300  Biso   1.000  C
  H12      1.0000 0.75000  0.00000  0.69860  Biso   1.000  H
