data_image0
_cell_length_a       8.3493
_cell_length_b       11.7276
_cell_length_c       8.9089
_cell_angle_alpha    90
_cell_angle_beta     90
_cell_angle_gamma    90

_symmetry_space_group_name_H-M    "P 1"
_symmetry_int_tables_number       1

loop_
  _symmetry_equiv_pos_as_xyz
  'x, y, z'

loop_
  _atom_site_label
  _atom_site_occupancy
  _atom_site_fract_x
  _atom_site_fract_y
  _atom_site_fract_z
  _atom_site_thermal_displace_type
  _atom_site_B_iso_or_equiv
  _atom_site_type_symbol
  O1       1.0000 0.25761  0.40584  0.36451  Biso   1.000  O
  O2       1.0000 0.40672  0.18209  0.41359  Biso   1.000  O
  O3       1.0000 0.56379  0.19234  0.61254  Biso   1.000  O
  C1       1.0000 0.52260  0.22178  0.48390  Biso   1.000  C
  H1       1.0000 0.58330  0.27780  0.43670  Biso   1.000  H
  O4       1.0000 0.24239  0.59416  0.36451  Biso   1.000  O
  O5       1.0000 0.09328  0.81791  0.41359  Biso   1.000  O
  O6       1.0000 0.93621  0.80766  0.61254  Biso   1.000  O
  C2       1.0000 0.97740  0.77822  0.48390  Biso   1.000  C
  H2       1.0000 0.91670  0.72220  0.43670  Biso   1.000  H
  O7       1.0000 0.24239  0.90584  0.13549  Biso   1.000  O
  O8       1.0000 0.09328  0.68209  0.08641  Biso   1.000  O
  O9       1.0000 0.93621  0.69234  0.88746  Biso   1.000  O
  C3       1.0000 0.97740  0.72178  0.01610  Biso   1.000  C
  H3       1.0000 0.91670  0.77780  0.06330  Biso   1.000  H
  O10      1.0000 0.25761  0.09416  0.13549  Biso   1.000  O
  O11      1.0000 0.40672  0.31791  0.08641  Biso   1.000  O
  O12      1.0000 0.56379  0.30766  0.88746  Biso   1.000  O
  C4       1.0000 0.52260  0.27822  0.01610  Biso   1.000  C
  H4       1.0000 0.58330  0.22220  0.06330  Biso   1.000  H
  O13      1.0000 0.74239  0.59416  0.63549  Biso   1.000  O
  O14      1.0000 0.59328  0.81791  0.58641  Biso   1.000  O
  O15      1.0000 0.43621  0.80766  0.38746  Biso   1.000  O
  C5       1.0000 0.47740  0.77822  0.51610  Biso   1.000  C
  H5       1.0000 0.41670  0.72220  0.56330  Biso   1.000  H
  O16      1.0000 0.75761  0.40584  0.63549  Biso   1.000  O
  O17      1.0000 0.90672  0.18209  0.58641  Biso   1.000  O
  O18      1.0000 0.06379  0.19234  0.38746  Biso   1.000  O
  C6       1.0000 0.02260  0.22178  0.51610  Biso   1.000  C
  H6       1.0000 0.08330  0.27780  0.56330  Biso   1.000  H
  O19      1.0000 0.75761  0.09416  0.86451  Biso   1.000  O
  O20      1.0000 0.90672  0.31791  0.91359  Biso   1.000  O
  O21      1.0000 0.06379  0.30766  0.11254  Biso   1.000  O
  C7       1.0000 0.02260  0.27822  0.98390  Biso   1.000  C
  H7       1.0000 0.08330  0.22220  0.93670  Biso   1.000  H
  O22      1.0000 0.74239  0.90584  0.86451  Biso   1.000  O
  O23      1.0000 0.59328  0.68209  0.91359  Biso   1.000  O
  O24      1.0000 0.43621  0.69234  0.11254  Biso   1.000  O
  C8       1.0000 0.47740  0.72178  0.98390  Biso   1.000  C
  H8       1.0000 0.41670  0.77780  0.93670  Biso   1.000  H
  Zn1      1.0000 0.25565  0.25000  0.25000  Biso   1.000  Zn
  Zn2      1.0000 0.24435  0.75000  0.25000  Biso   1.000  Zn
  Zn3      1.0000 0.74435  0.75000  0.75000  Biso   1.000  Zn
  Zn4      1.0000 0.75565  0.25000  0.75000  Biso   1.000  Zn
  C9       1.0000 0.25000  0.50000  0.30190  Biso   1.000  C
  H9       1.0000 0.25000  0.50000  0.19750  Biso   1.000  H
  C10      1.0000 0.25000  0.00000  0.19810  Biso   1.000  C
  H10      1.0000 0.25000  0.00000  0.30250  Biso   1.000  H
  C11      1.0000 0.75000  0.50000  0.69810  Biso   1.000  C
  H11      1.0000 0.75000  0.50000  0.80250  Biso   1.000  H
  C12      1.0000 0.75000  0.00000  0.80190  Biso   1.000  C
  H12      1.0000 0.75000  0.00000  0.69750  Biso   1.000  H
