data_image0
_cell_length_a       10.0154
_cell_length_b       10.7448
_cell_length_c       10.9746
_cell_angle_alpha    80.363
_cell_angle_beta     72.521
_cell_angle_gamma    74.593

_symmetry_space_group_name_H-M    "P 1"
_symmetry_int_tables_number       1

loop_
  _symmetry_equiv_pos_as_xyz
  'x, y, z'

loop_
  _atom_site_label
  _atom_site_occupancy
  _atom_site_fract_x
  _atom_site_fract_y
  _atom_site_fract_z
  _atom_site_thermal_displace_type
  _atom_site_B_iso_or_equiv
  _atom_site_type_symbol
  Pr1      1.0000 0.82313  0.30429  0.46464  Biso   1.000  Pr
  Zn1      1.0000 0.70708  0.13197  0.88491  Biso   1.000  Zn
  N1       1.0000 0.86840  0.19750  0.92470  Biso   1.000  N
  N2       1.0000 0.52370  0.29340  0.93260  Biso   1.000  N
  C1       1.0000 0.89030  0.14750  0.03970  Biso   1.000  C
  C2       1.0000 0.78080  0.07300  0.12390  Biso   1.000  C
  C3       1.0000 0.00750  0.16150  0.07460  Biso   1.000  C
  C4       1.0000 0.10400  0.22640  0.98620  Biso   1.000  C
  H1       1.0000 0.18800  0.22600  0.00900  Biso   1.000  H
  C5       1.0000 0.07950  0.27800  0.86910  Biso   1.000  C
  H2       1.0000 0.14400  0.31900  0.80400  Biso   1.000  H
  C6       1.0000 0.96020  0.26220  0.84210  Biso   1.000  C
  H3       1.0000 0.93300  0.29900  0.77200  Biso   1.000  H
  C7       1.0000 0.44210  0.32320  0.04950  Biso   1.000  C
  H4       1.0000 0.47700  0.27400  0.11700  Biso   1.000  H
  C8       1.0000 0.31920  0.42220  0.06800  Biso   1.000  C
  H5       1.0000 0.26100  0.44000  0.15100  Biso   1.000  H
  C9       1.0000 0.27870  0.49080  0.96150  Biso   1.000  C
  H6       1.0000 0.20100  0.55500  0.96500  Biso   1.000  H
  C10      1.0000 0.36200  0.46210  0.83920  Biso   1.000  C
  C11      1.0000 0.48620  0.36310  0.82960  Biso   1.000  C
  C12      1.0000 0.31320  0.53730  0.72540  Biso   1.000  C
  C13      1.0000 0.59250  0.33020  0.70340  Biso   1.000  C
  C14      1.0000 0.93970  0.52240  0.56080  Biso   1.000  C
  C15      1.0000 0.03280  0.11390  0.20470  Biso   1.000  C
  O1       1.0000 0.68890  0.05820  0.07308  Biso   1.000  O
  O2       1.0000 0.78910  0.03070  0.23409  Biso   1.000  O
  O3       1.0000 0.97600  0.19280  0.28737  Biso   1.000  O
  O4       1.0000 0.11360  0.00593  0.22165  Biso   1.000  O
  O5       1.0000 0.70443  0.24044  0.70557  Biso   1.000  O
  O6       1.0000 0.57240  0.39471  0.60300  Biso   1.000  O
  O7       1.0000 0.33360  0.65009  0.69220  Biso   1.000  O
  O8       1.0000 0.24420  0.48975  0.67470  Biso   1.000  O
  O9       1.0000 0.83680  0.46750  0.59454  Biso   1.000  O
  O10      1.0000 0.95450  0.60880  0.61478  Biso   1.000  O
  Pr2      1.0000 0.17687  0.69571  0.53536  Biso   1.000  Pr
  Zn2      1.0000 0.29292  0.86803  0.11509  Biso   1.000  Zn
  N3       1.0000 0.13160  0.80250  0.07530  Biso   1.000  N
  N4       1.0000 0.47630  0.70660  0.06740  Biso   1.000  N
  C16      1.0000 0.10970  0.85250  0.96030  Biso   1.000  C
  C17      1.0000 0.21920  0.92700  0.87610  Biso   1.000  C
  C18      1.0000 0.99250  0.83850  0.92540  Biso   1.000  C
  C19      1.0000 0.89600  0.77360  0.01380  Biso   1.000  C
  H7       1.0000 0.81200  0.77400  0.99100  Biso   1.000  H
  C20      1.0000 0.92050  0.72200  0.13090  Biso   1.000  C
  H8       1.0000 0.85600  0.68100  0.19600  Biso   1.000  H
  C21      1.0000 0.03980  0.73780  0.15790  Biso   1.000  C
  H9       1.0000 0.06700  0.70100  0.22800  Biso   1.000  H
  C22      1.0000 0.55790  0.67680  0.95050  Biso   1.000  C
  H10      1.0000 0.52300  0.72600  0.88300  Biso   1.000  H
  C23      1.0000 0.68080  0.57780  0.93200  Biso   1.000  C
  H11      1.0000 0.73900  0.56000  0.84900  Biso   1.000  H
  C24      1.0000 0.72130  0.50920  0.03850  Biso   1.000  C
  H12      1.0000 0.79900  0.44500  0.03500  Biso   1.000  H
  C25      1.0000 0.63800  0.53790  0.16080  Biso   1.000  C
  C26      1.0000 0.51380  0.63690  0.17040  Biso   1.000  C
  C27      1.0000 0.68680  0.46270  0.27460  Biso   1.000  C
  C28      1.0000 0.40750  0.66980  0.29660  Biso   1.000  C
  C29      1.0000 0.06030  0.47760  0.43920  Biso   1.000  C
  C30      1.0000 0.96720  0.88610  0.79530  Biso   1.000  C
  O11      1.0000 0.31110  0.94180  0.92692  Biso   1.000  O
  O12      1.0000 0.21090  0.96930  0.76591  Biso   1.000  O
  O13      1.0000 0.02400  0.80720  0.71263  Biso   1.000  O
  O14      1.0000 0.88640  0.99407  0.77835  Biso   1.000  O
  O15      1.0000 0.29557  0.75956  0.29443  Biso   1.000  O
  O16      1.0000 0.42760  0.60529  0.39700  Biso   1.000  O
  O17      1.0000 0.66640  0.34991  0.30780  Biso   1.000  O
  O18      1.0000 0.75580  0.51025  0.32530  Biso   1.000  O
  O19      1.0000 0.16320  0.53250  0.40546  Biso   1.000  O
  O20      1.0000 0.04550  0.39120  0.38522  Biso   1.000  O
