data_image0
_cell_length_a       10.0218
_cell_length_b       10.7145
_cell_length_c       10.987
_cell_angle_alpha    80.478
_cell_angle_beta     72.442
_cell_angle_gamma    74.522

_symmetry_space_group_name_H-M    "P 1"
_symmetry_int_tables_number       1

loop_
  _symmetry_equiv_pos_as_xyz
  'x, y, z'

loop_
  _atom_site_label
  _atom_site_occupancy
  _atom_site_fract_x
  _atom_site_fract_y
  _atom_site_fract_z
  _atom_site_thermal_displace_type
  _atom_site_B_iso_or_equiv
  _atom_site_type_symbol
  Nd1      1.0000 0.17619  0.19537  0.03486  Biso   1.000  Nd
  Zn1      1.0000 0.29277  0.36785  0.61537  Biso   1.000  Zn
  N1       1.0000 0.47730  0.20540  0.56840  Biso   1.000  N
  N2       1.0000 0.13210  0.30220  0.57500  Biso   1.000  N
  C1       1.0000 0.55980  0.17560  0.45090  Biso   1.000  C
  H1       1.0000 0.53400  0.22500  0.38000  Biso   1.000  H
  C2       1.0000 0.68280  0.07640  0.43320  Biso   1.000  C
  H2       1.0000 0.73900  0.05600  0.35200  Biso   1.000  H
  C3       1.0000 0.72280  0.00770  0.54030  Biso   1.000  C
  H3       1.0000 0.80400  0.94600  0.53100  Biso   1.000  H
  C4       1.0000 0.63850  0.03750  0.66260  Biso   1.000  C
  C5       1.0000 0.51430  0.13650  0.67170  Biso   1.000  C
  C6       1.0000 0.68740  0.96210  0.77650  Biso   1.000  C
  C7       1.0000 0.40690  0.16890  0.79790  Biso   1.000  C
  C8       1.0000 0.11010  0.35230  0.45960  Biso   1.000  C
  C9       1.0000 0.99250  0.33810  0.42500  Biso   1.000  C
  C10      1.0000 0.89550  0.27380  0.51340  Biso   1.000  C
  H4       1.0000 0.81000  0.27000  0.49300  Biso   1.000  H
  C11      1.0000 0.91900  0.22290  0.63110  Biso   1.000  C
  H5       1.0000 0.85400  0.17900  0.69400  Biso   1.000  H
  C12      1.0000 0.03880  0.23860  0.65810  Biso   1.000  C
  H6       1.0000 0.06200  0.20300  0.73100  Biso   1.000  H
  C13      1.0000 0.22060  0.42590  0.37530  Biso   1.000  C
  C14      1.0000 0.96800  0.38540  0.29450  Biso   1.000  C
  C15      1.0000 0.05980  0.97780  0.93920  Biso   1.000  C
  O1       1.0000 0.75540  0.01060  0.82800  Biso   1.000  O
  O2       1.0000 0.66740  0.84890  0.80960  Biso   1.000  O
  O3       1.0000 0.42620  0.10510  0.89870  Biso   1.000  O
  O4       1.0000 0.29400  0.25920  0.79510  Biso   1.000  O
  O5       1.0000 0.31240  0.44080  0.42660  Biso   1.000  O
  O6       1.0000 0.21310  0.46830  0.26520  Biso   1.000  O
  O7       1.0000 0.02500  0.30550  0.21180  Biso   1.000  O
  O8       1.0000 0.88790  0.49380  0.27670  Biso   1.000  O
  O9       1.0000 0.16330  0.03350  0.90440  Biso   1.000  O
  O10      1.0000 0.04450  0.89180  0.88450  Biso   1.000  O
  Nd2      1.0000 0.82381  0.80463  0.96514  Biso   1.000  Nd
  Zn2      1.0000 0.70723  0.63215  0.38463  Biso   1.000  Zn
  N3       1.0000 0.52270  0.79460  0.43160  Biso   1.000  N
  N4       1.0000 0.86790  0.69780  0.42500  Biso   1.000  N
  C16      1.0000 0.44020  0.82440  0.54910  Biso   1.000  C
  H7       1.0000 0.46600  0.77500  0.62000  Biso   1.000  H
  C17      1.0000 0.31720  0.92360  0.56680  Biso   1.000  C
  H8       1.0000 0.26100  0.94400  0.64800  Biso   1.000  H
  C18      1.0000 0.27720  0.99230  0.45970  Biso   1.000  C
  H9       1.0000 0.19600  0.05400  0.46900  Biso   1.000  H
  C19      1.0000 0.36150  0.96250  0.33740  Biso   1.000  C
  C20      1.0000 0.48570  0.86350  0.32830  Biso   1.000  C
  C21      1.0000 0.31260  0.03790  0.22350  Biso   1.000  C
  C22      1.0000 0.59310  0.83110  0.20210  Biso   1.000  C
  C23      1.0000 0.88990  0.64770  0.54040  Biso   1.000  C
  C24      1.0000 0.00750  0.66190  0.57500  Biso   1.000  C
  C25      1.0000 0.10450  0.72620  0.48660  Biso   1.000  C
  H10      1.0000 0.19000  0.73000  0.50700  Biso   1.000  H
  C26      1.0000 0.08100  0.77710  0.36890  Biso   1.000  C
  H11      1.0000 0.14600  0.82100  0.30600  Biso   1.000  H
  C27      1.0000 0.96120  0.76140  0.34190  Biso   1.000  C
  H12      1.0000 0.93800  0.79700  0.26900  Biso   1.000  H
  C28      1.0000 0.77940  0.57410  0.62470  Biso   1.000  C
  C29      1.0000 0.03200  0.61460  0.70550  Biso   1.000  C
  C30      1.0000 0.94020  0.02220  0.06080  Biso   1.000  C
  O11      1.0000 0.24460  0.98940  0.17200  Biso   1.000  O
  O12      1.0000 0.33260  0.15110  0.19040  Biso   1.000  O
  O13      1.0000 0.57380  0.89490  0.10130  Biso   1.000  O
  O14      1.0000 0.70600  0.74080  0.20490  Biso   1.000  O
  O15      1.0000 0.68760  0.55920  0.57340  Biso   1.000  O
  O16      1.0000 0.78690  0.53170  0.73480  Biso   1.000  O
  O17      1.0000 0.97500  0.69450  0.78820  Biso   1.000  O
  O18      1.0000 0.11210  0.50620  0.72330  Biso   1.000  O
  O19      1.0000 0.83670  0.96650  0.09560  Biso   1.000  O
  O20      1.0000 0.95550  0.10820  0.11550  Biso   1.000  O
