data_image0
_cell_length_a       9.9555
_cell_length_b       10.5461
_cell_length_c       10.9407
_cell_angle_alpha    80.768
_cell_angle_beta     71.981
_cell_angle_gamma    74.567

_symmetry_space_group_name_H-M    "P 1"
_symmetry_int_tables_number       1

loop_
  _symmetry_equiv_pos_as_xyz
  'x, y, z'

loop_
  _atom_site_label
  _atom_site_occupancy
  _atom_site_fract_x
  _atom_site_fract_y
  _atom_site_fract_z
  _atom_site_thermal_displace_type
  _atom_site_B_iso_or_equiv
  _atom_site_type_symbol
  Er1      1.0000 0.17338  0.19279  0.03369  Biso   1.000  Er
  Zn1      1.0000 0.29091  0.36783  0.61807  Biso   1.000  Zn
  N1       1.0000 0.13000  0.30330  0.57510  Biso   1.000  N
  N2       1.0000 0.47810  0.20270  0.57240  Biso   1.000  N
  C1       1.0000 0.03260  0.24220  0.65980  Biso   1.000  C
  H1       1.0000 0.04700  0.21300  0.74100  Biso   1.000  H
  C2       1.0000 0.91190  0.22830  0.63170  Biso   1.000  C
  H2       1.0000 0.84900  0.18800  0.68900  Biso   1.000  H
  C3       1.0000 0.89150  0.27730  0.51200  Biso   1.000  C
  H3       1.0000 0.80700  0.26500  0.49100  Biso   1.000  H
  C4       1.0000 0.99380  0.33830  0.42210  Biso   1.000  C
  C5       1.0000 0.11220  0.35130  0.45770  Biso   1.000  C
  C6       1.0000 0.22690  0.42260  0.37270  Biso   1.000  C
  C7       1.0000 0.97340  0.38250  0.28900  Biso   1.000  C
  C8       1.0000 0.56360  0.17050  0.45530  Biso   1.000  C
  H4       1.0000 0.53300  0.21800  0.39000  Biso   1.000  H
  C9       1.0000 0.68940  0.07100  0.43860  Biso   1.000  C
  H5       1.0000 0.74800  0.06100  0.35400  Biso   1.000  H
  C10      1.0000 0.72860  0.00510  0.54660  Biso   1.000  C
  H6       1.0000 0.80600  0.94500  0.53800  Biso   1.000  H
  C11      1.0000 0.64090  0.03670  0.66940  Biso   1.000  C
  C12      1.0000 0.51480  0.13540  0.67730  Biso   1.000  C
  C13      1.0000 0.40180  0.16880  0.80320  Biso   1.000  C
  C14      1.0000 0.68970  0.96090  0.78470  Biso   1.000  C
  C15      1.0000 0.94070  0.02020  0.06270  Biso   1.000  C
  O1       1.0000 0.22330  0.46310  0.26060  Biso   1.000  O
  O2       1.0000 0.31730  0.43850  0.42570  Biso   1.000  O
  O3       1.0000 0.03140  0.29790  0.20910  Biso   1.000  O
  O4       1.0000 0.89510  0.49330  0.26870  Biso   1.000  O
  O5       1.0000 0.28860  0.25840  0.79915  Biso   1.000  O
  O6       1.0000 0.41840  0.10560  0.90581  Biso   1.000  O
  O7       1.0000 0.67140  0.84580  0.81670  Biso   1.000  O
  O8       1.0000 0.75680  0.01040  0.83740  Biso   1.000  O
  O9       1.0000 0.95800  0.10600  0.11930  Biso   1.000  O
  O10      1.0000 0.83800  0.96300  0.09700  Biso   1.000  O
  Er2      1.0000 0.82662  0.80721  0.96631  Biso   1.000  Er
  Zn2      1.0000 0.70909  0.63217  0.38193  Biso   1.000  Zn
  N3       1.0000 0.87000  0.69670  0.42490  Biso   1.000  N
  N4       1.0000 0.52190  0.79730  0.42760  Biso   1.000  N
  C16      1.0000 0.96740  0.75780  0.34020  Biso   1.000  C
  H7       1.0000 0.95300  0.78700  0.25900  Biso   1.000  H
  C17      1.0000 0.08810  0.77170  0.36830  Biso   1.000  C
  H8       1.0000 0.15100  0.81200  0.31100  Biso   1.000  H
  C18      1.0000 0.10850  0.72270  0.48800  Biso   1.000  C
  H9       1.0000 0.19300  0.73500  0.50900  Biso   1.000  H
  C19      1.0000 0.00620  0.66170  0.57790  Biso   1.000  C
  C20      1.0000 0.88780  0.64870  0.54230  Biso   1.000  C
  C21      1.0000 0.77310  0.57740  0.62730  Biso   1.000  C
  C22      1.0000 0.02660  0.61750  0.71100  Biso   1.000  C
  C23      1.0000 0.43640  0.82950  0.54470  Biso   1.000  C
  H10      1.0000 0.46700  0.78200  0.61000  Biso   1.000  H
  C24      1.0000 0.31060  0.92900  0.56140  Biso   1.000  C
  H11      1.0000 0.25200  0.93900  0.64600  Biso   1.000  H
  C25      1.0000 0.27140  0.99490  0.45340  Biso   1.000  C
  H12      1.0000 0.19400  0.05500  0.46200  Biso   1.000  H
  C26      1.0000 0.35910  0.96330  0.33060  Biso   1.000  C
  C27      1.0000 0.48520  0.86460  0.32270  Biso   1.000  C
  C28      1.0000 0.59820  0.83120  0.19680  Biso   1.000  C
  C29      1.0000 0.31030  0.03910  0.21530  Biso   1.000  C
  C30      1.0000 0.05930  0.97980  0.93730  Biso   1.000  C
  O11      1.0000 0.77670  0.53690  0.73940  Biso   1.000  O
  O12      1.0000 0.68270  0.56150  0.57430  Biso   1.000  O
  O13      1.0000 0.96860  0.70210  0.79090  Biso   1.000  O
  O14      1.0000 0.10490  0.50670  0.73130  Biso   1.000  O
  O15      1.0000 0.71140  0.74160  0.20085  Biso   1.000  O
  O16      1.0000 0.58160  0.89440  0.09419  Biso   1.000  O
  O17      1.0000 0.32860  0.15420  0.18330  Biso   1.000  O
  O18      1.0000 0.24320  0.98960  0.16260  Biso   1.000  O
  O19      1.0000 0.04200  0.89400  0.88070  Biso   1.000  O
  O20      1.0000 0.16200  0.03700  0.90300  Biso   1.000  O
