data_image0
_cell_length_a       10.1881
_cell_length_b       14.2791
_cell_length_c       14.7733
_cell_angle_alpha    90
_cell_angle_beta     90
_cell_angle_gamma    90

_symmetry_space_group_name_H-M    "P 1"
_symmetry_int_tables_number       1

loop_
  _symmetry_equiv_pos_as_xyz
  'x, y, z'

loop_
  _atom_site_label
  _atom_site_occupancy
  _atom_site_fract_x
  _atom_site_fract_y
  _atom_site_fract_z
  _atom_site_thermal_displace_type
  _atom_site_B_iso_or_equiv
  _atom_site_type_symbol
  O1       1.0000 0.92120  0.47560  0.79660  Biso   1.000  O
  O2       1.0000 0.98650  0.59900  0.90460  Biso   1.000  O
  O3       1.0000 0.92120  0.97560  0.29660  Biso   1.000  O
  O4       1.0000 0.98650  0.09900  0.40460  Biso   1.000  O
  O5       1.0000 0.42120  0.47560  0.29660  Biso   1.000  O
  O6       1.0000 0.48650  0.59900  0.40460  Biso   1.000  O
  O7       1.0000 0.42120  0.97560  0.79660  Biso   1.000  O
  O8       1.0000 0.48650  0.09900  0.90460  Biso   1.000  O
  O9       1.0000 0.82880  0.27440  0.79660  Biso   1.000  O
  O10      1.0000 0.76350  0.15100  0.90460  Biso   1.000  O
  O11      1.0000 0.82880  0.77440  0.29660  Biso   1.000  O
  O12      1.0000 0.76350  0.65100  0.40460  Biso   1.000  O
  O13      1.0000 0.32880  0.27440  0.29660  Biso   1.000  O
  O14      1.0000 0.26350  0.15100  0.40460  Biso   1.000  O
  O15      1.0000 0.32880  0.77440  0.79660  Biso   1.000  O
  O16      1.0000 0.26350  0.65100  0.90460  Biso   1.000  O
  O17      1.0000 0.82880  0.47560  0.95340  Biso   1.000  O
  O18      1.0000 0.76350  0.59900  0.84540  Biso   1.000  O
  O19      1.0000 0.82880  0.97560  0.45340  Biso   1.000  O
  O20      1.0000 0.76350  0.09900  0.34540  Biso   1.000  O
  O21      1.0000 0.32880  0.47560  0.45340  Biso   1.000  O
  O22      1.0000 0.26350  0.59900  0.34540  Biso   1.000  O
  O23      1.0000 0.32880  0.97560  0.95340  Biso   1.000  O
  O24      1.0000 0.26350  0.09900  0.84540  Biso   1.000  O
  O25      1.0000 0.92120  0.27440  0.95340  Biso   1.000  O
  O26      1.0000 0.98650  0.15100  0.84540  Biso   1.000  O
  O27      1.0000 0.92120  0.77440  0.45340  Biso   1.000  O
  O28      1.0000 0.98650  0.65100  0.34540  Biso   1.000  O
  O29      1.0000 0.42120  0.27440  0.45340  Biso   1.000  O
  O30      1.0000 0.48650  0.15100  0.34540  Biso   1.000  O
  O31      1.0000 0.42120  0.77440  0.95340  Biso   1.000  O
  O32      1.0000 0.48650  0.65100  0.84540  Biso   1.000  O
  O33      1.0000 0.07880  0.52440  0.20340  Biso   1.000  O
  O34      1.0000 0.01350  0.40100  0.09540  Biso   1.000  O
  O35      1.0000 0.07880  0.02440  0.70340  Biso   1.000  O
  O36      1.0000 0.01350  0.90100  0.59540  Biso   1.000  O
  O37      1.0000 0.57880  0.52440  0.70340  Biso   1.000  O
  O38      1.0000 0.51350  0.40100  0.59540  Biso   1.000  O
  O39      1.0000 0.57880  0.02440  0.20340  Biso   1.000  O
  O40      1.0000 0.51350  0.90100  0.09540  Biso   1.000  O
  O41      1.0000 0.17120  0.72560  0.20340  Biso   1.000  O
  O42      1.0000 0.23650  0.84900  0.09540  Biso   1.000  O
  O43      1.0000 0.17120  0.22560  0.70340  Biso   1.000  O
  O44      1.0000 0.23650  0.34900  0.59540  Biso   1.000  O
  O45      1.0000 0.67120  0.72560  0.70340  Biso   1.000  O
  O46      1.0000 0.73650  0.84900  0.59540  Biso   1.000  O
  O47      1.0000 0.67120  0.22560  0.20340  Biso   1.000  O
  O48      1.0000 0.73650  0.34900  0.09540  Biso   1.000  O
  O49      1.0000 0.17120  0.52440  0.04660  Biso   1.000  O
  O50      1.0000 0.23650  0.40100  0.15460  Biso   1.000  O
  O51      1.0000 0.17120  0.02440  0.54660  Biso   1.000  O
  O52      1.0000 0.23650  0.90100  0.65460  Biso   1.000  O
  O53      1.0000 0.67120  0.52440  0.54660  Biso   1.000  O
  O54      1.0000 0.73650  0.40100  0.65460  Biso   1.000  O
  O55      1.0000 0.67120  0.02440  0.04660  Biso   1.000  O
  O56      1.0000 0.73650  0.90100  0.15460  Biso   1.000  O
  O57      1.0000 0.07880  0.72560  0.04660  Biso   1.000  O
  O58      1.0000 0.01350  0.84900  0.15460  Biso   1.000  O
  O59      1.0000 0.07880  0.22560  0.54660  Biso   1.000  O
  O60      1.0000 0.01350  0.34900  0.65460  Biso   1.000  O
  O61      1.0000 0.57880  0.72560  0.54660  Biso   1.000  O
  O62      1.0000 0.51350  0.84900  0.65460  Biso   1.000  O
  O63      1.0000 0.57880  0.22560  0.04660  Biso   1.000  O
  O64      1.0000 0.51350  0.34900  0.15460  Biso   1.000  O
  Al1      1.0000 0.12500  0.12500  0.47771  Biso   1.000  Al
  Al2      1.0000 0.12500  0.62500  0.97771  Biso   1.000  Al
  Al3      1.0000 0.62500  0.62500  0.47771  Biso   1.000  Al
  Al4      1.0000 0.62500  0.12500  0.97771  Biso   1.000  Al
  Al5      1.0000 0.62500  0.12500  0.27229  Biso   1.000  Al
  Al6      1.0000 0.62500  0.62500  0.77229  Biso   1.000  Al
  Al7      1.0000 0.12500  0.62500  0.27229  Biso   1.000  Al
  Al8      1.0000 0.12500  0.12500  0.77229  Biso   1.000  Al
  Al9      1.0000 0.87500  0.87500  0.52229  Biso   1.000  Al
  Al10     1.0000 0.87500  0.37500  0.02229  Biso   1.000  Al
  Al11     1.0000 0.37500  0.37500  0.52229  Biso   1.000  Al
  Al12     1.0000 0.37500  0.87500  0.02229  Biso   1.000  Al
  Al13     1.0000 0.37500  0.87500  0.72771  Biso   1.000  Al
  Al14     1.0000 0.37500  0.37500  0.22771  Biso   1.000  Al
  Al15     1.0000 0.87500  0.37500  0.72771  Biso   1.000  Al
  Al16     1.0000 0.87500  0.87500  0.22771  Biso   1.000  Al
  P1       1.0000 0.87500  0.53643  0.87500  Biso   1.000  P
  P2       1.0000 0.87500  0.03643  0.37500  Biso   1.000  P
  P3       1.0000 0.37500  0.53643  0.37500  Biso   1.000  P
  P4       1.0000 0.37500  0.03643  0.87500  Biso   1.000  P
  P5       1.0000 0.87500  0.21357  0.87500  Biso   1.000  P
  P6       1.0000 0.87500  0.71357  0.37500  Biso   1.000  P
  P7       1.0000 0.37500  0.21357  0.37500  Biso   1.000  P
  P8       1.0000 0.37500  0.71357  0.87500  Biso   1.000  P
  P9       1.0000 0.12500  0.46357  0.12500  Biso   1.000  P
  P10      1.0000 0.12500  0.96357  0.62500  Biso   1.000  P
  P11      1.0000 0.62500  0.46357  0.62500  Biso   1.000  P
  P12      1.0000 0.62500  0.96357  0.12500  Biso   1.000  P
  P13      1.0000 0.12500  0.78643  0.12500  Biso   1.000  P
  P14      1.0000 0.12500  0.28643  0.62500  Biso   1.000  P
  P15      1.0000 0.62500  0.78643  0.62500  Biso   1.000  P
  P16      1.0000 0.62500  0.28643  0.12500  Biso   1.000  P
