data_image0
_cell_length_a       16.363
_cell_length_b       16.363
_cell_length_c       19.196
_cell_angle_alpha    90
_cell_angle_beta     90
_cell_angle_gamma    120

_symmetry_space_group_name_H-M    "P 1"
_symmetry_int_tables_number       1

loop_
  _symmetry_equiv_pos_as_xyz
  'x, y, z'

loop_
  _atom_site_label
  _atom_site_occupancy
  _atom_site_fract_x
  _atom_site_fract_y
  _atom_site_fract_z
  _atom_site_thermal_displace_type
  _atom_site_B_iso_or_equiv
  _atom_site_type_symbol
  Cu1      1.0000 0.77114  0.31792  0.50904  Biso   1.000  Cu
  O1       1.0000 0.86110  0.39840  0.43760  Biso   1.000  O
  O2       1.0000 0.91230  0.40680  0.32910  Biso   1.000  O
  O3       1.0000 0.66650  0.22030  0.56500  Biso   1.000  O
  O4       1.0000 0.59200  0.13360  0.65720  Biso   1.000  O
  N1       1.0000 0.86900  0.31450  0.56770  Biso   1.000  N
  H1       1.0000 0.87810  0.35610  0.60720  Biso   1.000  H
  C1       1.0000 0.93440  0.30690  0.40690  Biso   1.000  C
  C2       1.0000 0.93820  0.25180  0.35270  Biso   1.000  C
  H2       1.0000 0.92140  0.25870  0.30770  Biso   1.000  H
  C3       1.0000 0.96770  0.18550  0.36680  Biso   1.000  C
  H3       1.0000 0.96800  0.14740  0.33090  Biso   1.000  H
  C4       1.0000 0.99540  0.17650  0.43090  Biso   1.000  C
  H4       1.0000 0.01520  0.13300  0.43890  Biso   1.000  H
  C5       1.0000 0.99440  0.23110  0.48440  Biso   1.000  C
  H5       1.0000 0.01530  0.22570  0.52830  Biso   1.000  H
  C6       1.0000 0.96210  0.29560  0.47390  Biso   1.000  C
  C7       1.0000 0.89970  0.37450  0.38970  Biso   1.000  C
  C8       1.0000 0.96290  0.35290  0.53530  Biso   1.000  C
  H6       1.0000 0.00710  0.35470  0.56980  Biso   1.000  H
  H7       1.0000 0.98470  0.41720  0.52030  Biso   1.000  H
  C9       1.0000 0.83490  0.21930  0.59870  Biso   1.000  C
  H8       1.0000 0.88720  0.21750  0.62100  Biso   1.000  H
  H9       1.0000 0.81080  0.17210  0.56210  Biso   1.000  H
  C10      1.0000 0.75720  0.19650  0.65220  Biso   1.000  C
  H10      1.0000 0.74530  0.14010  0.67740  Biso   1.000  H
  H11      1.0000 0.78040  0.24780  0.68560  Biso   1.000  H
  C11      1.0000 0.66490  0.18090  0.62340  Biso   1.000  C
  Cu2      1.0000 0.68208  0.45322  0.50904  Biso   1.000  Cu
  O5       1.0000 0.60160  0.46270  0.43760  Biso   1.000  O
  O6       1.0000 0.59320  0.50550  0.32910  Biso   1.000  O
  O7       1.0000 0.77970  0.44620  0.56500  Biso   1.000  O
  O8       1.0000 0.86640  0.45840  0.65720  Biso   1.000  O
  N2       1.0000 0.68550  0.55450  0.56770  Biso   1.000  N
  H12      1.0000 0.64390  0.52200  0.60720  Biso   1.000  H
  C12      1.0000 0.69310  0.62750  0.40690  Biso   1.000  C
  C13      1.0000 0.74820  0.68640  0.35270  Biso   1.000  C
  H13      1.0000 0.74130  0.66270  0.30770  Biso   1.000  H
  C14      1.0000 0.81450  0.78220  0.36680  Biso   1.000  C
  H14      1.0000 0.85260  0.82060  0.33090  Biso   1.000  H
  C15      1.0000 0.82350  0.81890  0.43090  Biso   1.000  C
  H15      1.0000 0.86700  0.88220  0.43890  Biso   1.000  H
  C16      1.0000 0.76890  0.76330  0.48440  Biso   1.000  C
  H16      1.0000 0.77430  0.78960  0.52830  Biso   1.000  H
  C17      1.0000 0.70440  0.66650  0.47390  Biso   1.000  C
  C18      1.0000 0.62550  0.52520  0.38970  Biso   1.000  C
  C19      1.0000 0.64710  0.61000  0.53530  Biso   1.000  C
  H17      1.0000 0.64530  0.65240  0.56980  Biso   1.000  H
  H18      1.0000 0.58280  0.56750  0.52030  Biso   1.000  H
  C20      1.0000 0.78070  0.61560  0.59870  Biso   1.000  C
  H19      1.0000 0.78250  0.66970  0.62100  Biso   1.000  H
  H20      1.0000 0.82790  0.63870  0.56210  Biso   1.000  H
  C21      1.0000 0.80350  0.56070  0.65220  Biso   1.000  C
  H21      1.0000 0.85990  0.60520  0.67740  Biso   1.000  H
  H22      1.0000 0.75220  0.53260  0.68560  Biso   1.000  H
  C22      1.0000 0.81910  0.48400  0.62340  Biso   1.000  C
  Cu3      1.0000 0.54678  0.22886  0.50904  Biso   1.000  Cu
  O9       1.0000 0.53730  0.13890  0.43760  Biso   1.000  O
  O10      1.0000 0.49450  0.08770  0.32910  Biso   1.000  O
  O11      1.0000 0.55380  0.33350  0.56500  Biso   1.000  O
  O12      1.0000 0.54160  0.40800  0.65720  Biso   1.000  O
  N3       1.0000 0.44550  0.13100  0.56770  Biso   1.000  N
  H23      1.0000 0.47800  0.12190  0.60720  Biso   1.000  H
  C23      1.0000 0.37250  0.06560  0.40690  Biso   1.000  C
  C24      1.0000 0.31360  0.06180  0.35270  Biso   1.000  C
  H24      1.0000 0.33730  0.07860  0.30770  Biso   1.000  H
  C25      1.0000 0.21780  0.03230  0.36680  Biso   1.000  C
  H25      1.0000 0.17940  0.03200  0.33090  Biso   1.000  H
  C26      1.0000 0.18110  0.00460  0.43090  Biso   1.000  C
  H26      1.0000 0.11780  0.98480  0.43890  Biso   1.000  H
  C27      1.0000 0.23670  0.00560  0.48440  Biso   1.000  C
  H27      1.0000 0.21040  0.98470  0.52830  Biso   1.000  H
  C28      1.0000 0.33350  0.03790  0.47390  Biso   1.000  C
  C29      1.0000 0.47480  0.10030  0.38970  Biso   1.000  C
  C30      1.0000 0.39000  0.03710  0.53530  Biso   1.000  C
  H28      1.0000 0.34760  0.99290  0.56980  Biso   1.000  H
  H29      1.0000 0.43250  0.01530  0.52030  Biso   1.000  H
  C31      1.0000 0.38440  0.16510  0.59870  Biso   1.000  C
  H30      1.0000 0.33030  0.11280  0.62100  Biso   1.000  H
  H31      1.0000 0.36130  0.18920  0.56210  Biso   1.000  H
  C32      1.0000 0.43930  0.24280  0.65220  Biso   1.000  C
  H32      1.0000 0.39480  0.25470  0.67740  Biso   1.000  H
  H33      1.0000 0.46740  0.21960  0.68560  Biso   1.000  H
  C33      1.0000 0.51600  0.33510  0.62340  Biso   1.000  C
  Cu4      1.0000 0.22886  0.68208  0.00904  Biso   1.000  Cu
  O13      1.0000 0.13890  0.60160  0.93760  Biso   1.000  O
  O14      1.0000 0.08770  0.59320  0.82910  Biso   1.000  O
  O15      1.0000 0.33350  0.77970  0.06500  Biso   1.000  O
  O16      1.0000 0.40800  0.86640  0.15720  Biso   1.000  O
  N4       1.0000 0.13100  0.68550  0.06770  Biso   1.000  N
  H34      1.0000 0.12190  0.64390  0.10720  Biso   1.000  H
  C34      1.0000 0.06560  0.69310  0.90690  Biso   1.000  C
  C35      1.0000 0.06180  0.74820  0.85270  Biso   1.000  C
  H35      1.0000 0.07860  0.74130  0.80770  Biso   1.000  H
  C36      1.0000 0.03230  0.81450  0.86680  Biso   1.000  C
  H36      1.0000 0.03200  0.85260  0.83090  Biso   1.000  H
  C37      1.0000 0.00460  0.82350  0.93090  Biso   1.000  C
  H37      1.0000 0.98480  0.86700  0.93890  Biso   1.000  H
  C38      1.0000 0.00560  0.76890  0.98440  Biso   1.000  C
  H38      1.0000 0.98470  0.77430  0.02830  Biso   1.000  H
  C39      1.0000 0.03790  0.70440  0.97390  Biso   1.000  C
  C40      1.0000 0.10030  0.62550  0.88970  Biso   1.000  C
  C41      1.0000 0.03710  0.64710  0.03530  Biso   1.000  C
  H39      1.0000 0.99290  0.64530  0.06980  Biso   1.000  H
  H40      1.0000 0.01530  0.58280  0.02030  Biso   1.000  H
  C42      1.0000 0.16510  0.78070  0.09870  Biso   1.000  C
  H41      1.0000 0.11280  0.78250  0.12100  Biso   1.000  H
  H42      1.0000 0.18920  0.82790  0.06210  Biso   1.000  H
  C43      1.0000 0.24280  0.80350  0.15220  Biso   1.000  C
  H43      1.0000 0.25470  0.85990  0.17740  Biso   1.000  H
  H44      1.0000 0.21960  0.75220  0.18560  Biso   1.000  H
  C44      1.0000 0.33510  0.81910  0.12340  Biso   1.000  C
  Cu5      1.0000 0.31792  0.54678  0.00904  Biso   1.000  Cu
  O17      1.0000 0.39840  0.53730  0.93760  Biso   1.000  O
  O18      1.0000 0.40680  0.49450  0.82910  Biso   1.000  O
  O19      1.0000 0.22030  0.55380  0.06500  Biso   1.000  O
  O20      1.0000 0.13360  0.54160  0.15720  Biso   1.000  O
  N5       1.0000 0.31450  0.44550  0.06770  Biso   1.000  N
  H45      1.0000 0.35610  0.47800  0.10720  Biso   1.000  H
  C45      1.0000 0.30690  0.37250  0.90690  Biso   1.000  C
  C46      1.0000 0.25180  0.31360  0.85270  Biso   1.000  C
  H46      1.0000 0.25870  0.33730  0.80770  Biso   1.000  H
  C47      1.0000 0.18550  0.21780  0.86680  Biso   1.000  C
  H47      1.0000 0.14740  0.17940  0.83090  Biso   1.000  H
  C48      1.0000 0.17650  0.18110  0.93090  Biso   1.000  C
  H48      1.0000 0.13300  0.11780  0.93890  Biso   1.000  H
  C49      1.0000 0.23110  0.23670  0.98440  Biso   1.000  C
  H49      1.0000 0.22570  0.21040  0.02830  Biso   1.000  H
  C50      1.0000 0.29560  0.33350  0.97390  Biso   1.000  C
  C51      1.0000 0.37450  0.47480  0.88970  Biso   1.000  C
  C52      1.0000 0.35290  0.39000  0.03530  Biso   1.000  C
  H50      1.0000 0.35470  0.34760  0.06980  Biso   1.000  H
  H51      1.0000 0.41720  0.43250  0.02030  Biso   1.000  H
  C53      1.0000 0.21930  0.38440  0.09870  Biso   1.000  C
  H52      1.0000 0.21750  0.33030  0.12100  Biso   1.000  H
  H53      1.0000 0.17210  0.36130  0.06210  Biso   1.000  H
  C54      1.0000 0.19650  0.43930  0.15220  Biso   1.000  C
  H54      1.0000 0.14010  0.39480  0.17740  Biso   1.000  H
  H55      1.0000 0.24780  0.46740  0.18560  Biso   1.000  H
  C55      1.0000 0.18090  0.51600  0.12340  Biso   1.000  C
  Cu6      1.0000 0.45322  0.77114  0.00904  Biso   1.000  Cu
  O21      1.0000 0.46270  0.86110  0.93760  Biso   1.000  O
  O22      1.0000 0.50550  0.91230  0.82910  Biso   1.000  O
  O23      1.0000 0.44620  0.66650  0.06500  Biso   1.000  O
  O24      1.0000 0.45840  0.59200  0.15720  Biso   1.000  O
  N6       1.0000 0.55450  0.86900  0.06770  Biso   1.000  N
  H56      1.0000 0.52200  0.87810  0.10720  Biso   1.000  H
  C56      1.0000 0.62750  0.93440  0.90690  Biso   1.000  C
  C57      1.0000 0.68640  0.93820  0.85270  Biso   1.000  C
  H57      1.0000 0.66270  0.92140  0.80770  Biso   1.000  H
  C58      1.0000 0.78220  0.96770  0.86680  Biso   1.000  C
  H58      1.0000 0.82060  0.96800  0.83090  Biso   1.000  H
  C59      1.0000 0.81890  0.99540  0.93090  Biso   1.000  C
  H59      1.0000 0.88220  0.01520  0.93890  Biso   1.000  H
  C60      1.0000 0.76330  0.99440  0.98440  Biso   1.000  C
  H60      1.0000 0.78960  0.01530  0.02830  Biso   1.000  H
  C61      1.0000 0.66650  0.96210  0.97390  Biso   1.000  C
  C62      1.0000 0.52520  0.89970  0.88970  Biso   1.000  C
  C63      1.0000 0.61000  0.96290  0.03530  Biso   1.000  C
  H61      1.0000 0.65240  0.00710  0.06980  Biso   1.000  H
  H62      1.0000 0.56750  0.98470  0.02030  Biso   1.000  H
  C64      1.0000 0.61560  0.83490  0.09870  Biso   1.000  C
  H63      1.0000 0.66970  0.88720  0.12100  Biso   1.000  H
  H64      1.0000 0.63870  0.81080  0.06210  Biso   1.000  H
  C65      1.0000 0.56070  0.75720  0.15220  Biso   1.000  C
  H65      1.0000 0.60520  0.74530  0.17740  Biso   1.000  H
  H66      1.0000 0.53260  0.78040  0.18560  Biso   1.000  H
  C66      1.0000 0.48400  0.66490  0.12340  Biso   1.000  C
  Cu7      1.0000 0.22886  0.68208  0.49096  Biso   1.000  Cu
  O25      1.0000 0.13890  0.60160  0.56240  Biso   1.000  O
  O26      1.0000 0.08770  0.59320  0.67090  Biso   1.000  O
  O27      1.0000 0.33350  0.77970  0.43500  Biso   1.000  O
  O28      1.0000 0.40800  0.86640  0.34280  Biso   1.000  O
  N7       1.0000 0.13100  0.68550  0.43230  Biso   1.000  N
  H67      1.0000 0.12190  0.64390  0.39280  Biso   1.000  H
  C67      1.0000 0.06560  0.69310  0.59310  Biso   1.000  C
  C68      1.0000 0.06180  0.74820  0.64730  Biso   1.000  C
  H68      1.0000 0.07860  0.74130  0.69230  Biso   1.000  H
  C69      1.0000 0.03230  0.81450  0.63320  Biso   1.000  C
  H69      1.0000 0.03200  0.85260  0.66910  Biso   1.000  H
  C70      1.0000 0.00460  0.82350  0.56910  Biso   1.000  C
  H70      1.0000 0.98480  0.86700  0.56110  Biso   1.000  H
  C71      1.0000 0.00560  0.76890  0.51560  Biso   1.000  C
  H71      1.0000 0.98470  0.77430  0.47170  Biso   1.000  H
  C72      1.0000 0.03790  0.70440  0.52610  Biso   1.000  C
  C73      1.0000 0.10030  0.62550  0.61030  Biso   1.000  C
  C74      1.0000 0.03710  0.64710  0.46470  Biso   1.000  C
  H72      1.0000 0.99290  0.64530  0.43020  Biso   1.000  H
  H73      1.0000 0.01530  0.58280  0.47970  Biso   1.000  H
  C75      1.0000 0.16510  0.78070  0.40130  Biso   1.000  C
  H74      1.0000 0.11280  0.78250  0.37900  Biso   1.000  H
  H75      1.0000 0.18920  0.82790  0.43790  Biso   1.000  H
  C76      1.0000 0.24280  0.80350  0.34780  Biso   1.000  C
  H76      1.0000 0.25470  0.85990  0.32260  Biso   1.000  H
  H77      1.0000 0.21960  0.75220  0.31440  Biso   1.000  H
  C77      1.0000 0.33510  0.81910  0.37660  Biso   1.000  C
  Cu8      1.0000 0.31792  0.54678  0.49096  Biso   1.000  Cu
  O29      1.0000 0.39840  0.53730  0.56240  Biso   1.000  O
  O30      1.0000 0.40680  0.49450  0.67090  Biso   1.000  O
  O31      1.0000 0.22030  0.55380  0.43500  Biso   1.000  O
  O32      1.0000 0.13360  0.54160  0.34280  Biso   1.000  O
  N8       1.0000 0.31450  0.44550  0.43230  Biso   1.000  N
  H78      1.0000 0.35610  0.47800  0.39280  Biso   1.000  H
  C78      1.0000 0.30690  0.37250  0.59310  Biso   1.000  C
  C79      1.0000 0.25180  0.31360  0.64730  Biso   1.000  C
  H79      1.0000 0.25870  0.33730  0.69230  Biso   1.000  H
  C80      1.0000 0.18550  0.21780  0.63320  Biso   1.000  C
  H80      1.0000 0.14740  0.17940  0.66910  Biso   1.000  H
  C81      1.0000 0.17650  0.18110  0.56910  Biso   1.000  C
  H81      1.0000 0.13300  0.11780  0.56110  Biso   1.000  H
  C82      1.0000 0.23110  0.23670  0.51560  Biso   1.000  C
  H82      1.0000 0.22570  0.21040  0.47170  Biso   1.000  H
  C83      1.0000 0.29560  0.33350  0.52610  Biso   1.000  C
  C84      1.0000 0.37450  0.47480  0.61030  Biso   1.000  C
  C85      1.0000 0.35290  0.39000  0.46470  Biso   1.000  C
  H83      1.0000 0.35470  0.34760  0.43020  Biso   1.000  H
  H84      1.0000 0.41720  0.43250  0.47970  Biso   1.000  H
  C86      1.0000 0.21930  0.38440  0.40130  Biso   1.000  C
  H85      1.0000 0.21750  0.33030  0.37900  Biso   1.000  H
  H86      1.0000 0.17210  0.36130  0.43790  Biso   1.000  H
  C87      1.0000 0.19650  0.43930  0.34780  Biso   1.000  C
  H87      1.0000 0.14010  0.39480  0.32260  Biso   1.000  H
  H88      1.0000 0.24780  0.46740  0.31440  Biso   1.000  H
  C88      1.0000 0.18090  0.51600  0.37660  Biso   1.000  C
  Cu9      1.0000 0.45322  0.77114  0.49096  Biso   1.000  Cu
  O33      1.0000 0.46270  0.86110  0.56240  Biso   1.000  O
  O34      1.0000 0.50550  0.91230  0.67090  Biso   1.000  O
  O35      1.0000 0.44620  0.66650  0.43500  Biso   1.000  O
  O36      1.0000 0.45840  0.59200  0.34280  Biso   1.000  O
  N9       1.0000 0.55450  0.86900  0.43230  Biso   1.000  N
  H89      1.0000 0.52200  0.87810  0.39280  Biso   1.000  H
  C89      1.0000 0.62750  0.93440  0.59310  Biso   1.000  C
  C90      1.0000 0.68640  0.93820  0.64730  Biso   1.000  C
  H90      1.0000 0.66270  0.92140  0.69230  Biso   1.000  H
  C91      1.0000 0.78220  0.96770  0.63320  Biso   1.000  C
  H91      1.0000 0.82060  0.96800  0.66910  Biso   1.000  H
  C92      1.0000 0.81890  0.99540  0.56910  Biso   1.000  C
  H92      1.0000 0.88220  0.01520  0.56110  Biso   1.000  H
  C93      1.0000 0.76330  0.99440  0.51560  Biso   1.000  C
  H93      1.0000 0.78960  0.01530  0.47170  Biso   1.000  H
  C94      1.0000 0.66650  0.96210  0.52610  Biso   1.000  C
  C95      1.0000 0.52520  0.89970  0.61030  Biso   1.000  C
  C96      1.0000 0.61000  0.96290  0.46470  Biso   1.000  C
  H94      1.0000 0.65240  0.00710  0.43020  Biso   1.000  H
  H95      1.0000 0.56750  0.98470  0.47970  Biso   1.000  H
  C97      1.0000 0.61560  0.83490  0.40130  Biso   1.000  C
  H96      1.0000 0.66970  0.88720  0.37900  Biso   1.000  H
  H97      1.0000 0.63870  0.81080  0.43790  Biso   1.000  H
  C98      1.0000 0.56070  0.75720  0.34780  Biso   1.000  C
  H98      1.0000 0.60520  0.74530  0.32260  Biso   1.000  H
  H99      1.0000 0.53260  0.78040  0.31440  Biso   1.000  H
  C99      1.0000 0.48400  0.66490  0.37660  Biso   1.000  C
  Cu10     1.0000 0.77114  0.31792  0.99096  Biso   1.000  Cu
  O37      1.0000 0.86110  0.39840  0.06240  Biso   1.000  O
  O38      1.0000 0.91230  0.40680  0.17090  Biso   1.000  O
  O39      1.0000 0.66650  0.22030  0.93500  Biso   1.000  O
  O40      1.0000 0.59200  0.13360  0.84280  Biso   1.000  O
  N10      1.0000 0.86900  0.31450  0.93230  Biso   1.000  N
  H100     1.0000 0.87810  0.35610  0.89280  Biso   1.000  H
  C100     1.0000 0.93440  0.30690  0.09310  Biso   1.000  C
  C101     1.0000 0.93820  0.25180  0.14730  Biso   1.000  C
  H101     1.0000 0.92140  0.25870  0.19230  Biso   1.000  H
  C102     1.0000 0.96770  0.18550  0.13320  Biso   1.000  C
  H102     1.0000 0.96800  0.14740  0.16910  Biso   1.000  H
  C103     1.0000 0.99540  0.17650  0.06910  Biso   1.000  C
  H103     1.0000 0.01520  0.13300  0.06110  Biso   1.000  H
  C104     1.0000 0.99440  0.23110  0.01560  Biso   1.000  C
  H104     1.0000 0.01530  0.22570  0.97170  Biso   1.000  H
  C105     1.0000 0.96210  0.29560  0.02610  Biso   1.000  C
  C106     1.0000 0.89970  0.37450  0.11030  Biso   1.000  C
  C107     1.0000 0.96290  0.35290  0.96470  Biso   1.000  C
  H105     1.0000 0.00710  0.35470  0.93020  Biso   1.000  H
  H106     1.0000 0.98470  0.41720  0.97970  Biso   1.000  H
  C108     1.0000 0.83490  0.21930  0.90130  Biso   1.000  C
  H107     1.0000 0.88720  0.21750  0.87900  Biso   1.000  H
  H108     1.0000 0.81080  0.17210  0.93790  Biso   1.000  H
  C109     1.0000 0.75720  0.19650  0.84780  Biso   1.000  C
  H109     1.0000 0.74530  0.14010  0.82260  Biso   1.000  H
  H110     1.0000 0.78040  0.24780  0.81440  Biso   1.000  H
  C110     1.0000 0.66490  0.18090  0.87660  Biso   1.000  C
  Cu11     1.0000 0.68208  0.45322  0.99096  Biso   1.000  Cu
  O41      1.0000 0.60160  0.46270  0.06240  Biso   1.000  O
  O42      1.0000 0.59320  0.50550  0.17090  Biso   1.000  O
  O43      1.0000 0.77970  0.44620  0.93500  Biso   1.000  O
  O44      1.0000 0.86640  0.45840  0.84280  Biso   1.000  O
  N11      1.0000 0.68550  0.55450  0.93230  Biso   1.000  N
  H111     1.0000 0.64390  0.52200  0.89280  Biso   1.000  H
  C111     1.0000 0.69310  0.62750  0.09310  Biso   1.000  C
  C112     1.0000 0.74820  0.68640  0.14730  Biso   1.000  C
  H112     1.0000 0.74130  0.66270  0.19230  Biso   1.000  H
  C113     1.0000 0.81450  0.78220  0.13320  Biso   1.000  C
  H113     1.0000 0.85260  0.82060  0.16910  Biso   1.000  H
  C114     1.0000 0.82350  0.81890  0.06910  Biso   1.000  C
  H114     1.0000 0.86700  0.88220  0.06110  Biso   1.000  H
  C115     1.0000 0.76890  0.76330  0.01560  Biso   1.000  C
  H115     1.0000 0.77430  0.78960  0.97170  Biso   1.000  H
  C116     1.0000 0.70440  0.66650  0.02610  Biso   1.000  C
  C117     1.0000 0.62550  0.52520  0.11030  Biso   1.000  C
  C118     1.0000 0.64710  0.61000  0.96470  Biso   1.000  C
  H116     1.0000 0.64530  0.65240  0.93020  Biso   1.000  H
  H117     1.0000 0.58280  0.56750  0.97970  Biso   1.000  H
  C119     1.0000 0.78070  0.61560  0.90130  Biso   1.000  C
  H118     1.0000 0.78250  0.66970  0.87900  Biso   1.000  H
  H119     1.0000 0.82790  0.63870  0.93790  Biso   1.000  H
  C120     1.0000 0.80350  0.56070  0.84780  Biso   1.000  C
  H120     1.0000 0.85990  0.60520  0.82260  Biso   1.000  H
  H121     1.0000 0.75220  0.53260  0.81440  Biso   1.000  H
  C121     1.0000 0.81910  0.48400  0.87660  Biso   1.000  C
  Cu12     1.0000 0.54678  0.22886  0.99096  Biso   1.000  Cu
  O45      1.0000 0.53730  0.13890  0.06240  Biso   1.000  O
  O46      1.0000 0.49450  0.08770  0.17090  Biso   1.000  O
  O47      1.0000 0.55380  0.33350  0.93500  Biso   1.000  O
  O48      1.0000 0.54160  0.40800  0.84280  Biso   1.000  O
  N12      1.0000 0.44550  0.13100  0.93230  Biso   1.000  N
  H122     1.0000 0.47800  0.12190  0.89280  Biso   1.000  H
  C122     1.0000 0.37250  0.06560  0.09310  Biso   1.000  C
  C123     1.0000 0.31360  0.06180  0.14730  Biso   1.000  C
  H123     1.0000 0.33730  0.07860  0.19230  Biso   1.000  H
  C124     1.0000 0.21780  0.03230  0.13320  Biso   1.000  C
  H124     1.0000 0.17940  0.03200  0.16910  Biso   1.000  H
  C125     1.0000 0.18110  0.00460  0.06910  Biso   1.000  C
  H125     1.0000 0.11780  0.98480  0.06110  Biso   1.000  H
  C126     1.0000 0.23670  0.00560  0.01560  Biso   1.000  C
  H126     1.0000 0.21040  0.98470  0.97170  Biso   1.000  H
  C127     1.0000 0.33350  0.03790  0.02610  Biso   1.000  C
  C128     1.0000 0.47480  0.10030  0.11030  Biso   1.000  C
  C129     1.0000 0.39000  0.03710  0.96470  Biso   1.000  C
  H127     1.0000 0.34760  0.99290  0.93020  Biso   1.000  H
  H128     1.0000 0.43250  0.01530  0.97970  Biso   1.000  H
  C130     1.0000 0.38440  0.16510  0.90130  Biso   1.000  C
  H129     1.0000 0.33030  0.11280  0.87900  Biso   1.000  H
  H130     1.0000 0.36130  0.18920  0.93790  Biso   1.000  H
  C131     1.0000 0.43930  0.24280  0.84780  Biso   1.000  C
  H131     1.0000 0.39480  0.25470  0.82260  Biso   1.000  H
  H132     1.0000 0.46740  0.21960  0.81440  Biso   1.000  H
  C132     1.0000 0.51600  0.33510  0.87660  Biso   1.000  C
  Na1      1.0000 0.53100  0.03010  0.75000  Biso   1.000  Na
  Na2      1.0000 0.96990  0.50090  0.75000  Biso   1.000  Na
  Na3      1.0000 0.49910  0.46900  0.75000  Biso   1.000  Na
  Na4      1.0000 0.46900  0.96990  0.25000  Biso   1.000  Na
  Na5      1.0000 0.03010  0.49910  0.25000  Biso   1.000  Na
  Na6      1.0000 0.50090  0.53100  0.25000  Biso   1.000  Na
  O49      1.0000 0.66667  0.33333  0.46700  Biso   1.000  O
  H133     1.0000 0.66667  0.33333  0.41590  Biso   1.000  H
  O50      1.0000 0.33333  0.66667  0.96700  Biso   1.000  O
  H134     1.0000 0.33333  0.66667  0.91590  Biso   1.000  H
  O51      1.0000 0.33333  0.66667  0.53300  Biso   1.000  O
  H135     1.0000 0.33333  0.66667  0.58410  Biso   1.000  H
  O52      1.0000 0.66667  0.33333  0.03300  Biso   1.000  O
  H136     1.0000 0.66667  0.33333  0.08410  Biso   1.000  H
