data_image0
_cell_length_a       33.4
_cell_length_b       13.8787
_cell_length_c       13.579
_cell_angle_alpha    90
_cell_angle_beta     104.966
_cell_angle_gamma    90

_symmetry_space_group_name_H-M    "P 1"
_symmetry_int_tables_number       1

loop_
  _symmetry_equiv_pos_as_xyz
  'x, y, z'

loop_
  _atom_site_label
  _atom_site_occupancy
  _atom_site_fract_x
  _atom_site_fract_y
  _atom_site_fract_z
  _atom_site_thermal_displace_type
  _atom_site_B_iso_or_equiv
  _atom_site_type_symbol
  La1      1.0000 0.81208  0.21260  0.56137  Biso   1.000  La
  O1       1.0000 0.76805  0.17953  0.68232  Biso   1.000  O
  O2       1.0000 0.70667  0.25192  0.62586  Biso   1.000  O
  O3       1.0000 0.73352  0.85648  0.96732  Biso   1.000  O
  O4       1.0000 0.78787  0.94598  0.96750  Biso   1.000  O
  O5       1.0000 0.36644  0.17089  0.02088  Biso   1.000  O
  O6       1.0000 0.38019  0.32605  0.01709  Biso   1.000  O
  C1       1.0000 0.42611  0.21684  0.96648  Biso   1.000  C
  C2       1.0000 0.45567  0.28786  0.96861  Biso   1.000  C
  C3       1.0000 0.49127  0.26642  0.93794  Biso   1.000  C
  C4       1.0000 0.49732  0.17397  0.90513  Biso   1.000  C
  C5       1.0000 0.46776  0.10295  0.90300  Biso   1.000  C
  C6       1.0000 0.43216  0.12439  0.93367  Biso   1.000  C
  C7       1.0000 0.53665  0.15092  0.87572  Biso   1.000  C
  C8       1.0000 0.56045  0.22227  0.84513  Biso   1.000  C
  C9       1.0000 0.59837  0.20177  0.82653  Biso   1.000  C
  C10      1.0000 0.61407  0.10765  0.83673  Biso   1.000  C
  C11      1.0000 0.58999  0.03437  0.86093  Biso   1.000  C
  C12      1.0000 0.55188  0.05554  0.88176  Biso   1.000  C
  C13      1.0000 0.65639  0.08990  0.82510  Biso   1.000  C
  C14      1.0000 0.67299  0.14593  0.76086  Biso   1.000  C
  C15      1.0000 0.71407  0.13567  0.75604  Biso   1.000  C
  C16      1.0000 0.73919  0.06726  0.81805  Biso   1.000  C
  C17      1.0000 0.72259  0.00772  0.87922  Biso   1.000  C
  C18      1.0000 0.68127  0.01675  0.88314  Biso   1.000  C
  C19      1.0000 0.73097  0.19400  0.68160  Biso   1.000  C
  C20      1.0000 0.74994  0.93240  0.94290  Biso   1.000  C
  C21      1.0000 0.38851  0.23830  0.00450  Biso   1.000  C
  La2      1.0000 0.31208  0.71260  0.56137  Biso   1.000  La
  O7       1.0000 0.26805  0.67953  0.68232  Biso   1.000  O
  O8       1.0000 0.20667  0.75192  0.62586  Biso   1.000  O
  O9       1.0000 0.23352  0.35648  0.96732  Biso   1.000  O
  O10      1.0000 0.28787  0.44598  0.96750  Biso   1.000  O
  O11      1.0000 0.86644  0.67089  0.02088  Biso   1.000  O
  O12      1.0000 0.88019  0.82605  0.01709  Biso   1.000  O
  C22      1.0000 0.92611  0.71684  0.96648  Biso   1.000  C
  C23      1.0000 0.95567  0.78786  0.96861  Biso   1.000  C
  C24      1.0000 0.99127  0.76642  0.93794  Biso   1.000  C
  C25      1.0000 0.99732  0.67397  0.90513  Biso   1.000  C
  C26      1.0000 0.96776  0.60295  0.90300  Biso   1.000  C
  C27      1.0000 0.93216  0.62439  0.93367  Biso   1.000  C
  C28      1.0000 0.03665  0.65092  0.87572  Biso   1.000  C
  C29      1.0000 0.06045  0.72227  0.84513  Biso   1.000  C
  C30      1.0000 0.09837  0.70177  0.82653  Biso   1.000  C
  C31      1.0000 0.11407  0.60765  0.83673  Biso   1.000  C
  C32      1.0000 0.08999  0.53437  0.86093  Biso   1.000  C
  C33      1.0000 0.05188  0.55554  0.88176  Biso   1.000  C
  C34      1.0000 0.15639  0.58990  0.82510  Biso   1.000  C
  C35      1.0000 0.17299  0.64593  0.76086  Biso   1.000  C
  C36      1.0000 0.21407  0.63567  0.75604  Biso   1.000  C
  C37      1.0000 0.23919  0.56726  0.81805  Biso   1.000  C
  C38      1.0000 0.22259  0.50772  0.87922  Biso   1.000  C
  C39      1.0000 0.18127  0.51675  0.88314  Biso   1.000  C
  C40      1.0000 0.23097  0.69400  0.68160  Biso   1.000  C
  C41      1.0000 0.24994  0.43240  0.94290  Biso   1.000  C
  C42      1.0000 0.88851  0.73830  0.00450  Biso   1.000  C
  La3      1.0000 0.18792  0.21260  0.93863  Biso   1.000  La
  O13      1.0000 0.23195  0.17953  0.81768  Biso   1.000  O
  O14      1.0000 0.29333  0.25192  0.87414  Biso   1.000  O
  O15      1.0000 0.26648  0.85648  0.53268  Biso   1.000  O
  O16      1.0000 0.21213  0.94598  0.53250  Biso   1.000  O
  O17      1.0000 0.63356  0.17089  0.47912  Biso   1.000  O
  O18      1.0000 0.61981  0.32605  0.48291  Biso   1.000  O
  C43      1.0000 0.57389  0.21684  0.53352  Biso   1.000  C
  C44      1.0000 0.54433  0.28786  0.53139  Biso   1.000  C
  C45      1.0000 0.50873  0.26642  0.56206  Biso   1.000  C
  C46      1.0000 0.50268  0.17397  0.59487  Biso   1.000  C
  C47      1.0000 0.53224  0.10295  0.59700  Biso   1.000  C
  C48      1.0000 0.56784  0.12439  0.56633  Biso   1.000  C
  C49      1.0000 0.46335  0.15092  0.62428  Biso   1.000  C
  C50      1.0000 0.43955  0.22227  0.65487  Biso   1.000  C
  C51      1.0000 0.40163  0.20177  0.67347  Biso   1.000  C
  C52      1.0000 0.38593  0.10765  0.66327  Biso   1.000  C
  C53      1.0000 0.41001  0.03437  0.63907  Biso   1.000  C
  C54      1.0000 0.44812  0.05554  0.61824  Biso   1.000  C
  C55      1.0000 0.34361  0.08990  0.67490  Biso   1.000  C
  C56      1.0000 0.32701  0.14593  0.73914  Biso   1.000  C
  C57      1.0000 0.28593  0.13567  0.74396  Biso   1.000  C
  C58      1.0000 0.26081  0.06726  0.68195  Biso   1.000  C
  C59      1.0000 0.27741  0.00772  0.62078  Biso   1.000  C
  C60      1.0000 0.31873  0.01675  0.61686  Biso   1.000  C
  C61      1.0000 0.26903  0.19400  0.81840  Biso   1.000  C
  C62      1.0000 0.25006  0.93240  0.55710  Biso   1.000  C
  C63      1.0000 0.61149  0.23830  0.49550  Biso   1.000  C
  La4      1.0000 0.68792  0.71260  0.93863  Biso   1.000  La
  O19      1.0000 0.73195  0.67953  0.81768  Biso   1.000  O
  O20      1.0000 0.79333  0.75192  0.87414  Biso   1.000  O
  O21      1.0000 0.76648  0.35648  0.53268  Biso   1.000  O
  O22      1.0000 0.71213  0.44598  0.53250  Biso   1.000  O
  O23      1.0000 0.13356  0.67089  0.47912  Biso   1.000  O
  O24      1.0000 0.11981  0.82605  0.48291  Biso   1.000  O
  C64      1.0000 0.07389  0.71684  0.53352  Biso   1.000  C
  C65      1.0000 0.04433  0.78786  0.53139  Biso   1.000  C
  C66      1.0000 0.00873  0.76642  0.56206  Biso   1.000  C
  C67      1.0000 0.00268  0.67397  0.59487  Biso   1.000  C
  C68      1.0000 0.03224  0.60295  0.59700  Biso   1.000  C
  C69      1.0000 0.06784  0.62439  0.56633  Biso   1.000  C
  C70      1.0000 0.96335  0.65092  0.62428  Biso   1.000  C
  C71      1.0000 0.93955  0.72227  0.65487  Biso   1.000  C
  C72      1.0000 0.90163  0.70177  0.67347  Biso   1.000  C
  C73      1.0000 0.88593  0.60765  0.66327  Biso   1.000  C
  C74      1.0000 0.91001  0.53437  0.63907  Biso   1.000  C
  C75      1.0000 0.94812  0.55554  0.61824  Biso   1.000  C
  C76      1.0000 0.84361  0.58990  0.67490  Biso   1.000  C
  C77      1.0000 0.82701  0.64593  0.73914  Biso   1.000  C
  C78      1.0000 0.78593  0.63567  0.74396  Biso   1.000  C
  C79      1.0000 0.76081  0.56726  0.68195  Biso   1.000  C
  C80      1.0000 0.77741  0.50772  0.62078  Biso   1.000  C
  C81      1.0000 0.81873  0.51675  0.61686  Biso   1.000  C
  C82      1.0000 0.76903  0.69400  0.81840  Biso   1.000  C
  C83      1.0000 0.75006  0.43240  0.55710  Biso   1.000  C
  C84      1.0000 0.11149  0.73830  0.49550  Biso   1.000  C
  La5      1.0000 0.18792  0.78740  0.43863  Biso   1.000  La
  O25      1.0000 0.23195  0.82047  0.31768  Biso   1.000  O
  O26      1.0000 0.29333  0.74808  0.37414  Biso   1.000  O
  O27      1.0000 0.26648  0.14352  0.03268  Biso   1.000  O
  O28      1.0000 0.21213  0.05402  0.03250  Biso   1.000  O
  O29      1.0000 0.63356  0.82911  0.97912  Biso   1.000  O
  O30      1.0000 0.61981  0.67395  0.98291  Biso   1.000  O
  C85      1.0000 0.57389  0.78316  0.03352  Biso   1.000  C
  C86      1.0000 0.54433  0.71214  0.03139  Biso   1.000  C
  C87      1.0000 0.50873  0.73358  0.06206  Biso   1.000  C
  C88      1.0000 0.50268  0.82603  0.09487  Biso   1.000  C
  C89      1.0000 0.53224  0.89705  0.09700  Biso   1.000  C
  C90      1.0000 0.56784  0.87561  0.06633  Biso   1.000  C
  C91      1.0000 0.46335  0.84908  0.12428  Biso   1.000  C
  C92      1.0000 0.43955  0.77773  0.15487  Biso   1.000  C
  C93      1.0000 0.40163  0.79823  0.17347  Biso   1.000  C
  C94      1.0000 0.38593  0.89235  0.16327  Biso   1.000  C
  C95      1.0000 0.41001  0.96563  0.13907  Biso   1.000  C
  C96      1.0000 0.44812  0.94446  0.11824  Biso   1.000  C
  C97      1.0000 0.34361  0.91010  0.17490  Biso   1.000  C
  C98      1.0000 0.32701  0.85407  0.23914  Biso   1.000  C
  C99      1.0000 0.28593  0.86433  0.24396  Biso   1.000  C
  C100     1.0000 0.26081  0.93274  0.18195  Biso   1.000  C
  C101     1.0000 0.27741  0.99228  0.12078  Biso   1.000  C
  C102     1.0000 0.31873  0.98325  0.11686  Biso   1.000  C
  C103     1.0000 0.26903  0.80600  0.31840  Biso   1.000  C
  C104     1.0000 0.25006  0.06760  0.05710  Biso   1.000  C
  C105     1.0000 0.61149  0.76170  0.99550  Biso   1.000  C
  La6      1.0000 0.68792  0.28740  0.43863  Biso   1.000  La
  O31      1.0000 0.73195  0.32047  0.31768  Biso   1.000  O
  O32      1.0000 0.79333  0.24808  0.37414  Biso   1.000  O
  O33      1.0000 0.76648  0.64352  0.03268  Biso   1.000  O
  O34      1.0000 0.71213  0.55402  0.03250  Biso   1.000  O
  O35      1.0000 0.13356  0.32911  0.97912  Biso   1.000  O
  O36      1.0000 0.11981  0.17395  0.98291  Biso   1.000  O
  C106     1.0000 0.07389  0.28316  0.03352  Biso   1.000  C
  C107     1.0000 0.04433  0.21214  0.03139  Biso   1.000  C
  C108     1.0000 0.00873  0.23358  0.06206  Biso   1.000  C
  C109     1.0000 0.00268  0.32603  0.09487  Biso   1.000  C
  C110     1.0000 0.03224  0.39705  0.09700  Biso   1.000  C
  C111     1.0000 0.06784  0.37561  0.06633  Biso   1.000  C
  C112     1.0000 0.96335  0.34908  0.12428  Biso   1.000  C
  C113     1.0000 0.93955  0.27773  0.15487  Biso   1.000  C
  C114     1.0000 0.90163  0.29823  0.17347  Biso   1.000  C
  C115     1.0000 0.88593  0.39235  0.16327  Biso   1.000  C
  C116     1.0000 0.91001  0.46563  0.13907  Biso   1.000  C
  C117     1.0000 0.94812  0.44446  0.11824  Biso   1.000  C
  C118     1.0000 0.84361  0.41010  0.17490  Biso   1.000  C
  C119     1.0000 0.82701  0.35407  0.23914  Biso   1.000  C
  C120     1.0000 0.78593  0.36433  0.24396  Biso   1.000  C
  C121     1.0000 0.76081  0.43274  0.18195  Biso   1.000  C
  C122     1.0000 0.77741  0.49228  0.12078  Biso   1.000  C
  C123     1.0000 0.81873  0.48325  0.11686  Biso   1.000  C
  C124     1.0000 0.76903  0.30600  0.31840  Biso   1.000  C
  C125     1.0000 0.75006  0.56760  0.05710  Biso   1.000  C
  C126     1.0000 0.11149  0.26170  0.99550  Biso   1.000  C
  La7      1.0000 0.81208  0.78740  0.06137  Biso   1.000  La
  O37      1.0000 0.76805  0.82047  0.18232  Biso   1.000  O
  O38      1.0000 0.70667  0.74808  0.12586  Biso   1.000  O
  O39      1.0000 0.73352  0.14352  0.46732  Biso   1.000  O
  O40      1.0000 0.78787  0.05402  0.46750  Biso   1.000  O
  O41      1.0000 0.36644  0.82911  0.52088  Biso   1.000  O
  O42      1.0000 0.38019  0.67395  0.51709  Biso   1.000  O
  C127     1.0000 0.42611  0.78316  0.46648  Biso   1.000  C
  C128     1.0000 0.45567  0.71214  0.46861  Biso   1.000  C
  C129     1.0000 0.49127  0.73358  0.43794  Biso   1.000  C
  C130     1.0000 0.49732  0.82603  0.40513  Biso   1.000  C
  C131     1.0000 0.46776  0.89705  0.40300  Biso   1.000  C
  C132     1.0000 0.43216  0.87561  0.43367  Biso   1.000  C
  C133     1.0000 0.53665  0.84908  0.37572  Biso   1.000  C
  C134     1.0000 0.56045  0.77773  0.34513  Biso   1.000  C
  C135     1.0000 0.59837  0.79823  0.32653  Biso   1.000  C
  C136     1.0000 0.61407  0.89235  0.33673  Biso   1.000  C
  C137     1.0000 0.58999  0.96563  0.36093  Biso   1.000  C
  C138     1.0000 0.55188  0.94446  0.38176  Biso   1.000  C
  C139     1.0000 0.65639  0.91010  0.32510  Biso   1.000  C
  C140     1.0000 0.67299  0.85407  0.26086  Biso   1.000  C
  C141     1.0000 0.71407  0.86433  0.25604  Biso   1.000  C
  C142     1.0000 0.73919  0.93274  0.31805  Biso   1.000  C
  C143     1.0000 0.72259  0.99228  0.37922  Biso   1.000  C
  C144     1.0000 0.68127  0.98325  0.38314  Biso   1.000  C
  C145     1.0000 0.73097  0.80600  0.18160  Biso   1.000  C
  C146     1.0000 0.74994  0.06760  0.44290  Biso   1.000  C
  C147     1.0000 0.38851  0.76170  0.50450  Biso   1.000  C
  La8      1.0000 0.31208  0.28740  0.06137  Biso   1.000  La
  O43      1.0000 0.26805  0.32047  0.18232  Biso   1.000  O
  O44      1.0000 0.20667  0.24808  0.12586  Biso   1.000  O
  O45      1.0000 0.23352  0.64352  0.46732  Biso   1.000  O
  O46      1.0000 0.28787  0.55402  0.46750  Biso   1.000  O
  O47      1.0000 0.86644  0.32911  0.52088  Biso   1.000  O
  O48      1.0000 0.88019  0.17395  0.51709  Biso   1.000  O
  C148     1.0000 0.92611  0.28316  0.46648  Biso   1.000  C
  C149     1.0000 0.95567  0.21214  0.46861  Biso   1.000  C
  C150     1.0000 0.99127  0.23358  0.43794  Biso   1.000  C
  C151     1.0000 0.99732  0.32603  0.40513  Biso   1.000  C
  C152     1.0000 0.96776  0.39705  0.40300  Biso   1.000  C
  C153     1.0000 0.93216  0.37561  0.43367  Biso   1.000  C
  C154     1.0000 0.03665  0.34908  0.37572  Biso   1.000  C
  C155     1.0000 0.06045  0.27773  0.34513  Biso   1.000  C
  C156     1.0000 0.09837  0.29823  0.32653  Biso   1.000  C
  C157     1.0000 0.11407  0.39235  0.33673  Biso   1.000  C
  C158     1.0000 0.08999  0.46563  0.36093  Biso   1.000  C
  C159     1.0000 0.05188  0.44446  0.38176  Biso   1.000  C
  C160     1.0000 0.15639  0.41010  0.32510  Biso   1.000  C
  C161     1.0000 0.17299  0.35407  0.26086  Biso   1.000  C
  C162     1.0000 0.21407  0.36433  0.25604  Biso   1.000  C
  C163     1.0000 0.23919  0.43274  0.31805  Biso   1.000  C
  C164     1.0000 0.22259  0.49228  0.37922  Biso   1.000  C
  C165     1.0000 0.18127  0.48325  0.38314  Biso   1.000  C
  C166     1.0000 0.23097  0.30600  0.18160  Biso   1.000  C
  C167     1.0000 0.24994  0.56760  0.44290  Biso   1.000  C
  C168     1.0000 0.88851  0.26170  0.50450  Biso   1.000  C
