data_YUMFES_clean
_audit_creation_date              2014-07-02
_audit_creation_method            'Materials Studio'
_symmetry_space_group_name_H-M    'P1'
_symmetry_Int_Tables_number       1
_symmetry_cell_setting            triclinic
loop_
_symmetry_equiv_pos_as_xyz
  x,y,z
_cell_length_a                    14.4562
_cell_length_b                    14.9113
_cell_length_c                    14.9113
_cell_angle_alpha                 108.0970
_cell_angle_beta                  94.8855
_cell_angle_gamma                 85.1145
loop_
_atom_site_label
_atom_site_type_symbol
_atom_site_fract_x
_atom_site_fract_y
_atom_site_fract_z
_atom_site_U_iso_or_equiv
_atom_site_adp_type
_atom_site_occupancy
Co1    Co    0.78418   0.86295   0.26133   0.01267  Uiso   1.00
Co2    Co    0.71582   0.26133   0.86295   0.01267  Uiso   1.00
Co3    Co    0.21582   0.13705   0.73867   0.01267  Uiso   1.00
Co4    Co    0.28418   0.73867   0.13705   0.01267  Uiso   1.00
Co5    Co    0.25000   0.60808   0.60808   0.01267  Uiso   1.00
Co6    Co    0.75000   0.39192   0.39192   0.01267  Uiso   1.00
H1     H     0.82300   0.03630   0.03350   0.01267  Uiso   1.00
H2     H     0.04710   0.89480   0.77340   0.01267  Uiso   1.00
H3     H     0.14840   0.79870   0.66730   0.01267  Uiso   1.00
H4     H     0.14310   0.59470   0.78210   0.01267  Uiso   1.00
H5     H     0.03880   0.68430   0.88990   0.01267  Uiso   1.00
H6     H     0.82370   0.16400   0.51920   0.01267  Uiso   1.00
H7     H     0.11730   0.04680   0.33100   0.01267  Uiso   1.00
H8     H     0.23950   0.95290   0.25270   0.01267  Uiso   1.00
H9     H     0.11500   0.72170   0.23070   0.01267  Uiso   1.00
H10    H     0.98930   0.80850   0.30730   0.01267  Uiso   1.00
H11    H     0.44090   0.30660   0.49980   0.01267  Uiso   1.00
H12    H     0.30800   0.44200   0.23700   0.01267  Uiso   1.00
H13    H     0.28040   0.53590   0.13870   0.01267  Uiso   1.00
H14    H     0.35060   0.76220   0.34540   0.01267  Uiso   1.00
H15    H     0.38040   0.67450   0.44950   0.01267  Uiso   1.00
H16    H     0.67700   0.03350   0.03630   0.01267  Uiso   1.00
H17    H     0.45290   0.77340   0.89480   0.01267  Uiso   1.00
H18    H     0.35160   0.66730   0.79870   0.01267  Uiso   1.00
H19    H     0.35690   0.78210   0.59470   0.01267  Uiso   1.00
H20    H     0.46120   0.88990   0.68430   0.01267  Uiso   1.00
H21    H     0.67630   0.51920   0.16400   0.01267  Uiso   1.00
H22    H     0.38270   0.33100   0.04680   0.01267  Uiso   1.00
H23    H     0.26050   0.25270   0.95290   0.01267  Uiso   1.00
H24    H     0.38500   0.23070   0.72170   0.01267  Uiso   1.00
H25    H     0.51070   0.30730   0.80850   0.01267  Uiso   1.00
H26    H     0.05910   0.49980   0.30660   0.01267  Uiso   1.00
H27    H     0.19200   0.23700   0.44200   0.01267  Uiso   1.00
H28    H     0.21960   0.13870   0.53590   0.01267  Uiso   1.00
H29    H     0.14940   0.34540   0.76220   0.01267  Uiso   1.00
H30    H     0.11960   0.44950   0.67450   0.01267  Uiso   1.00
H31    H     0.17700   0.96370   0.96650   0.01267  Uiso   1.00
H32    H     0.95290   0.10520   0.22660   0.01267  Uiso   1.00
H33    H     0.85160   0.20130   0.33270   0.01267  Uiso   1.00
H34    H     0.85690   0.40530   0.21790   0.01267  Uiso   1.00
H35    H     0.96120   0.31570   0.11010   0.01267  Uiso   1.00
H36    H     0.17630   0.83600   0.48080   0.01267  Uiso   1.00
H37    H     0.88270   0.95320   0.66900   0.01267  Uiso   1.00
H38    H     0.76050   0.04710   0.74730   0.01267  Uiso   1.00
H39    H     0.88500   0.27830   0.76930   0.01267  Uiso   1.00
H40    H     0.01070   0.19150   0.69270   0.01267  Uiso   1.00
H41    H     0.55910   0.69340   0.50020   0.01267  Uiso   1.00
H42    H     0.69200   0.55800   0.76300   0.01267  Uiso   1.00
H43    H     0.71960   0.46410   0.86130   0.01267  Uiso   1.00
H44    H     0.64940   0.23780   0.65460   0.01267  Uiso   1.00
H45    H     0.61960   0.32550   0.55050   0.01267  Uiso   1.00
H46    H     0.32300   0.96650   0.96370   0.01267  Uiso   1.00
H47    H     0.54710   0.22660   0.10520   0.01267  Uiso   1.00
H48    H     0.64840   0.33270   0.20130   0.01267  Uiso   1.00
H49    H     0.64310   0.21790   0.40530   0.01267  Uiso   1.00
H50    H     0.53880   0.11010   0.31570   0.01267  Uiso   1.00
H51    H     0.32370   0.48080   0.83600   0.01267  Uiso   1.00
H52    H     0.61730   0.66900   0.95320   0.01267  Uiso   1.00
H53    H     0.73950   0.74730   0.04710   0.01267  Uiso   1.00
H54    H     0.61500   0.76930   0.27830   0.01267  Uiso   1.00
H55    H     0.48930   0.69270   0.19150   0.01267  Uiso   1.00
H56    H     0.94090   0.50020   0.69340   0.01267  Uiso   1.00
H57    H     0.80800   0.76300   0.55800   0.01267  Uiso   1.00
H58    H     0.78040   0.86130   0.46410   0.01267  Uiso   1.00
H59    H     0.85060   0.65460   0.23780   0.01267  Uiso   1.00
H60    H     0.88040   0.55050   0.32550   0.01267  Uiso   1.00
C1     C     0.84471   0.89596   0.12296   0.01267  Uiso   1.00
C2     C     0.88260   0.90696   0.03724   0.01267  Uiso   1.00
C3     C     0.86214   0.98243   0.00421   0.01267  Uiso   1.00
C4     C     0.96585   0.85881   0.91207   0.01267  Uiso   1.00
C5     C     0.03055   0.80013   0.84343   0.01267  Uiso   1.00
C6     C     0.06511   0.83287   0.77605   0.01267  Uiso   1.00
C7     C     0.12571   0.77502   0.71296   0.01267  Uiso   1.00
C8     C     0.12226   0.65613   0.77955   0.01267  Uiso   1.00
C9     C     0.06045   0.70942   0.84484   0.01267  Uiso   1.00
C10    C     0.71111   0.02034   0.40914   0.01267  Uiso   1.00
C11    C     0.81329   0.03560   0.41734   0.01267  Uiso   1.00
C12    C     0.85462   0.11256   0.47476   0.01267  Uiso   1.00
C13    C     0.95747   0.99480   0.37186   0.01267  Uiso   1.00
C14    C     0.03717   0.93788   0.32432   0.01267  Uiso   1.00
C15    C     0.11456   0.98008   0.30928   0.01267  Uiso   1.00
C16    C     0.18713   0.92342   0.26236   0.01267  Uiso   1.00
C17    C     0.11438   0.78874   0.24950   0.01267  Uiso   1.00
C18    C     0.03927   0.83996   0.29546   0.01267  Uiso   1.00
C19    C     0.36001   0.45325   0.64583   0.01267  Uiso   1.00
C20    C     0.37934   0.44100   0.54524   0.01267  Uiso   1.00
C21    C     0.41795   0.36184   0.48420   0.01267  Uiso   1.00
C22    C     0.36778   0.48885   0.41765   0.01267  Uiso   1.00
C23    C     0.34793   0.54828   0.35458   0.01267  Uiso   1.00
C24    C     0.31746   0.50766   0.26070   0.01267  Uiso   1.00
C25    C     0.30126   0.56424   0.20266   0.01267  Uiso   1.00
C26    C     0.34219   0.69617   0.32311   0.01267  Uiso   1.00
C27    C     0.36000   0.64445   0.38563   0.01267  Uiso   1.00
C28    C     0.65529   0.12296   0.89596   0.01267  Uiso   1.00
C29    C     0.61740   0.03724   0.90696   0.01267  Uiso   1.00
C30    C     0.63786   0.00421   0.98243   0.01267  Uiso   1.00
C31    C     0.53415   0.91207   0.85881   0.01267  Uiso   1.00
C32    C     0.46945   0.84343   0.80013   0.01267  Uiso   1.00
C33    C     0.43489   0.77605   0.83287   0.01267  Uiso   1.00
C34    C     0.37429   0.71296   0.77502   0.01267  Uiso   1.00
C35    C     0.37774   0.77955   0.65613   0.01267  Uiso   1.00
C36    C     0.43955   0.84484   0.70942   0.01267  Uiso   1.00
C37    C     0.78889   0.40914   0.02034   0.01267  Uiso   1.00
C38    C     0.68671   0.41734   0.03560   0.01267  Uiso   1.00
C39    C     0.64538   0.47476   0.11256   0.01267  Uiso   1.00
C40    C     0.54253   0.37186   0.99480   0.01267  Uiso   1.00
C41    C     0.46283   0.32432   0.93788   0.01267  Uiso   1.00
C42    C     0.38544   0.30928   0.98008   0.01267  Uiso   1.00
C43    C     0.31287   0.26236   0.92342   0.01267  Uiso   1.00
C44    C     0.38562   0.24950   0.78874   0.01267  Uiso   1.00
C45    C     0.46073   0.29546   0.83996   0.01267  Uiso   1.00
C46    C     0.13999   0.64583   0.45325   0.01267  Uiso   1.00
C47    C     0.12066   0.54524   0.44100   0.01267  Uiso   1.00
C48    C     0.08205   0.48420   0.36184   0.01267  Uiso   1.00
C49    C     0.13222   0.41765   0.48885   0.01267  Uiso   1.00
C50    C     0.15207   0.35458   0.54828   0.01267  Uiso   1.00
C51    C     0.18254   0.26070   0.50766   0.01267  Uiso   1.00
C52    C     0.19874   0.20266   0.56424   0.01267  Uiso   1.00
C53    C     0.15781   0.32311   0.69617   0.01267  Uiso   1.00
C54    C     0.14000   0.38563   0.64445   0.01267  Uiso   1.00
C55    C     0.15529   0.10404   0.87704   0.01267  Uiso   1.00
C56    C     0.11740   0.09304   0.96276   0.01267  Uiso   1.00
C57    C     0.13786   0.01757   0.99579   0.01267  Uiso   1.00
C58    C     0.03415   0.14119   0.08793   0.01267  Uiso   1.00
C59    C     0.96945   0.19987   0.15657   0.01267  Uiso   1.00
C60    C     0.93489   0.16713   0.22395   0.01267  Uiso   1.00
C61    C     0.87429   0.22498   0.28704   0.01267  Uiso   1.00
C62    C     0.87774   0.34387   0.22045   0.01267  Uiso   1.00
C63    C     0.93955   0.29058   0.15516   0.01267  Uiso   1.00
C64    C     0.28889   0.97966   0.59086   0.01267  Uiso   1.00
C65    C     0.18671   0.96440   0.58266   0.01267  Uiso   1.00
C66    C     0.14538   0.88744   0.52524   0.01267  Uiso   1.00
C67    C     0.04253   0.00520   0.62814   0.01267  Uiso   1.00
C68    C     0.96283   0.06212   0.67568   0.01267  Uiso   1.00
C69    C     0.88544   0.01992   0.69072   0.01267  Uiso   1.00
C70    C     0.81287   0.07658   0.73764   0.01267  Uiso   1.00
C71    C     0.88562   0.21126   0.75050   0.01267  Uiso   1.00
C72    C     0.96073   0.16004   0.70454   0.01267  Uiso   1.00
C73    C     0.63999   0.54675   0.35417   0.01267  Uiso   1.00
C74    C     0.62066   0.55900   0.45476   0.01267  Uiso   1.00
C75    C     0.58205   0.63816   0.51580   0.01267  Uiso   1.00
C76    C     0.63222   0.51115   0.58235   0.01267  Uiso   1.00
C77    C     0.65207   0.45172   0.64542   0.01267  Uiso   1.00
C78    C     0.68254   0.49234   0.73930   0.01267  Uiso   1.00
C79    C     0.69874   0.43576   0.79734   0.01267  Uiso   1.00
C80    C     0.65781   0.30383   0.67689   0.01267  Uiso   1.00
C81    C     0.64000   0.35555   0.61437   0.01267  Uiso   1.00
C82    C     0.34471   0.87704   0.10404   0.01267  Uiso   1.00
C83    C     0.38260   0.96276   0.09304   0.01267  Uiso   1.00
C84    C     0.36214   0.99579   0.01757   0.01267  Uiso   1.00
C85    C     0.46585   0.08793   0.14119   0.01267  Uiso   1.00
C86    C     0.53055   0.15657   0.19987   0.01267  Uiso   1.00
C87    C     0.56511   0.22395   0.16713   0.01267  Uiso   1.00
C88    C     0.62571   0.28704   0.22498   0.01267  Uiso   1.00
C89    C     0.62226   0.22045   0.34387   0.01267  Uiso   1.00
C90    C     0.56045   0.15516   0.29058   0.01267  Uiso   1.00
C91    C     0.21111   0.59086   0.97966   0.01267  Uiso   1.00
C92    C     0.31329   0.58266   0.96440   0.01267  Uiso   1.00
C93    C     0.35462   0.52524   0.88744   0.01267  Uiso   1.00
C94    C     0.45747   0.62814   0.00520   0.01267  Uiso   1.00
C95    C     0.53717   0.67568   0.06212   0.01267  Uiso   1.00
C96    C     0.61456   0.69072   0.01992   0.01267  Uiso   1.00
C97    C     0.68713   0.73764   0.07658   0.01267  Uiso   1.00
C98    C     0.61438   0.75050   0.21126   0.01267  Uiso   1.00
C99    C     0.53927   0.70454   0.16004   0.01267  Uiso   1.00
C100   C     0.86001   0.35417   0.54675   0.01267  Uiso   1.00
C101   C     0.87934   0.45476   0.55900   0.01267  Uiso   1.00
C102   C     0.91795   0.51580   0.63816   0.01267  Uiso   1.00
C103   C     0.86778   0.58235   0.51115   0.01267  Uiso   1.00
C104   C     0.84793   0.64542   0.45172   0.01267  Uiso   1.00
C105   C     0.81746   0.73930   0.49234   0.01267  Uiso   1.00
C106   C     0.80126   0.79734   0.43576   0.01267  Uiso   1.00
C107   C     0.84219   0.67689   0.30383   0.01267  Uiso   1.00
C108   C     0.86000   0.61437   0.35555   0.01267  Uiso   1.00
S1     S     0.91624   0.96668   0.90346   0.01267  Uiso   1.00
S2     S     0.97024   0.10409   0.45591   0.01267  Uiso   1.00
S3     S     0.41918   0.37607   0.37525   0.01267  Uiso   1.00
S4     S     0.58376   0.90346   0.96668   0.01267  Uiso   1.00
S5     S     0.52976   0.45591   0.10409   0.01267  Uiso   1.00
S6     S     0.08082   0.37525   0.37607   0.01267  Uiso   1.00
S7     S     0.08376   0.03332   0.09654   0.01267  Uiso   1.00
S8     S     0.02976   0.89591   0.54409   0.01267  Uiso   1.00
S9     S     0.58082   0.62393   0.62475   0.01267  Uiso   1.00
S10    S     0.41624   0.09654   0.03332   0.01267  Uiso   1.00
S11    S     0.47024   0.54409   0.89591   0.01267  Uiso   1.00
S12    S     0.91918   0.62475   0.62393   0.01267  Uiso   1.00
N1     N     0.94226   0.83703   0.98483   0.01267  Uiso   1.00
N2     N     0.15414   0.68680   0.71290   0.01267  Uiso   1.00
N3     N     0.87157   0.96821   0.35881   0.01267  Uiso   1.00
N4     N     0.18716   0.82879   0.22985   0.01267  Uiso   1.00
N5     N     0.35069   0.51318   0.50754   0.01267  Uiso   1.00
N6     N     0.31340   0.65750   0.23198   0.01267  Uiso   1.00
N7     N     0.55774   0.98483   0.83703   0.01267  Uiso   1.00
N8     N     0.34586   0.71290   0.68680   0.01267  Uiso   1.00
N9     N     0.62843   0.35881   0.96821   0.01267  Uiso   1.00
N10    N     0.31284   0.22985   0.82879   0.01267  Uiso   1.00
N11    N     0.14931   0.50754   0.51318   0.01267  Uiso   1.00
N12    N     0.18660   0.23198   0.65750   0.01267  Uiso   1.00
N13    N     0.05774   0.16297   0.01517   0.01267  Uiso   1.00
N14    N     0.84586   0.31320   0.28710   0.01267  Uiso   1.00
N15    N     0.12843   0.03179   0.64119   0.01267  Uiso   1.00
N16    N     0.81284   0.17121   0.77015   0.01267  Uiso   1.00
N17    N     0.64931   0.48682   0.49246   0.01267  Uiso   1.00
N18    N     0.68660   0.34250   0.76802   0.01267  Uiso   1.00
N19    N     0.44226   0.01517   0.16297   0.01267  Uiso   1.00
N20    N     0.65414   0.28710   0.31320   0.01267  Uiso   1.00
N21    N     0.37157   0.64119   0.03179   0.01267  Uiso   1.00
N22    N     0.68716   0.77015   0.17121   0.01267  Uiso   1.00
N23    N     0.85069   0.49246   0.48682   0.01267  Uiso   1.00
N24    N     0.81340   0.76802   0.34250   0.01267  Uiso   1.00
O1     O     0.87717   0.82779   0.15257   0.01267  Uiso   1.00
O2     O     0.78092   0.95231   0.16273   0.01267  Uiso   1.00
O3     O     0.68592   0.94540   0.34448   0.01267  Uiso   1.00
O4     O     0.66030   0.07948   0.46248   0.01267  Uiso   1.00
O5     O     0.30187   0.52219   0.68259   0.01267  Uiso   1.00
O6     O     0.39880   0.39784   0.68526   0.01267  Uiso   1.00
O7     O     0.62283   0.15257   0.82779   0.01267  Uiso   1.00
O8     O     0.71908   0.16273   0.95231   0.01267  Uiso   1.00
O9     O     0.81408   0.34448   0.94540   0.01267  Uiso   1.00
O10    O     0.83970   0.46248   0.07948   0.01267  Uiso   1.00
O11    O     0.19813   0.68259   0.52219   0.01267  Uiso   1.00
O12    O     0.10120   0.68526   0.39784   0.01267  Uiso   1.00
O13    O     0.12283   0.17221   0.84743   0.01267  Uiso   1.00
O14    O     0.21908   0.04769   0.83727   0.01267  Uiso   1.00
O15    O     0.31408   0.05460   0.65552   0.01267  Uiso   1.00
O16    O     0.33970   0.92052   0.53752   0.01267  Uiso   1.00
O17    O     0.69813   0.47781   0.31741   0.01267  Uiso   1.00
O18    O     0.60120   0.60216   0.31474   0.01267  Uiso   1.00
O19    O     0.37717   0.84743   0.17221   0.01267  Uiso   1.00
O20    O     0.28092   0.83727   0.04769   0.01267  Uiso   1.00
O21    O     0.18592   0.65552   0.05460   0.01267  Uiso   1.00
O22    O     0.16030   0.53752   0.92052   0.01267  Uiso   1.00
O23    O     0.80187   0.31741   0.47781   0.01267  Uiso   1.00
O24    O     0.89880   0.31474   0.60216   0.01267  Uiso   1.00
