data_image0
_cell_length_a       14.3741
_cell_length_b       13.9069
_cell_length_c       21.7187
_cell_angle_alpha    90
_cell_angle_beta     106.945
_cell_angle_gamma    90

_symmetry_space_group_name_H-M    "P 1"
_symmetry_int_tables_number       1

loop_
  _symmetry_equiv_pos_as_xyz
  'x, y, z'

loop_
  _atom_site_label
  _atom_site_occupancy
  _atom_site_fract_x
  _atom_site_fract_y
  _atom_site_fract_z
  _atom_site_thermal_displace_type
  _atom_site_B_iso_or_equiv
  _atom_site_type_symbol
  Ba1      1.0000 0.97241  0.42862  0.18086  Biso   1.000  Ba
  Mo1      1.0000 0.67145  0.28872  0.99207  Biso   1.000  Mo
  Mo2      1.0000 0.65815  0.40452  0.89647  Biso   1.000  Mo
  Mo3      1.0000 0.34690  0.34293  0.08343  Biso   1.000  Mo
  Mo4      1.0000 0.33061  0.27336  0.97030  Biso   1.000  Mo
  Mo5      1.0000 0.68640  0.56992  0.16104  Biso   1.000  Mo
  Mo6      1.0000 0.69305  0.38497  0.14557  Biso   1.000  Mo
  P1       1.0000 0.81129  0.55198  0.85407  Biso   1.000  P
  P2       1.0000 0.18767  0.22452  0.82495  Biso   1.000  P
  P3       1.0000 0.85113  0.21786  0.12144  Biso   1.000  P
  P4       1.0000 0.78159  0.50785  0.03974  Biso   1.000  P
  O1       1.0000 0.76300  0.32320  0.94615  Biso   1.000  O
  O2       1.0000 0.57870  0.39090  0.95495  Biso   1.000  O
  O3       1.0000 0.61640  0.29130  0.07201  Biso   1.000  O
  H1       1.0000 0.55980  0.31560  0.05840  Biso   1.000  H
  O4       1.0000 0.78260  0.21190  0.05210  Biso   1.000  O
  O5       1.0000 0.74260  0.41110  0.05829  Biso   1.000  O
  O6       1.0000 0.75810  0.45640  0.85312  Biso   1.000  O
  O7       1.0000 0.58250  0.53510  0.86736  Biso   1.000  O
  H2       1.0000 0.53060  0.52990  0.87830  Biso   1.000  H
  O8       1.0000 0.73480  0.52130  0.96585  Biso   1.000  O
  O9       1.0000 0.74670  0.63630  0.86082  Biso   1.000  O
  O10      1.0000 0.42460  0.36290  0.02450  Biso   1.000  O
  O11      1.0000 0.24070  0.27870  0.02136  Biso   1.000  O
  O12      1.0000 0.39160  0.31640  0.89596  Biso   1.000  O
  H3       1.0000 0.44720  0.33840  0.91640  Biso   1.000  H
  O13      1.0000 0.21350  0.21900  0.89830  Biso   1.000  O
  O14      1.0000 0.74000  0.58870  0.07348  Biso   1.000  O
  O15      1.0000 0.20690  0.32880  0.80496  Biso   1.000  O
  O16      1.0000 0.79260  0.47860  0.18640  Biso   1.000  O
  O17      1.0000 0.59570  0.48050  0.10486  Biso   1.000  O
  O18      1.0000 0.80990  0.28990  0.16093  Biso   1.000  O
  O19      1.0000 0.83050  0.55880  0.78751  Biso   1.000  O
  O20      1.0000 0.90930  0.55440  0.90414  Biso   1.000  O
  O21      1.0000 0.08290  0.20160  0.79300  Biso   1.000  O
  H4       1.0000 0.22170  0.12200  0.77220  Biso   1.000  H
  O22      1.0000 0.25480  0.15510  0.80390  Biso   1.000  O
  O23      1.0000 0.95150  0.25380  0.12170  Biso   1.000  O
  O24      1.0000 0.85760  0.11990  0.15270  Biso   1.000  O
  H5       1.0000 0.91640  0.10110  0.16350  Biso   1.000  H
  O25      1.0000 0.88920  0.50760  0.05967  Biso   1.000  O
  Ba2      1.0000 0.02759  0.92862  0.31914  Biso   1.000  Ba
  Mo7      1.0000 0.32855  0.78872  0.50793  Biso   1.000  Mo
  Mo8      1.0000 0.34185  0.90452  0.60353  Biso   1.000  Mo
  Mo9      1.0000 0.65310  0.84293  0.41657  Biso   1.000  Mo
  Mo10     1.0000 0.66939  0.77336  0.52970  Biso   1.000  Mo
  Mo11     1.0000 0.31360  0.06992  0.33896  Biso   1.000  Mo
  Mo12     1.0000 0.30695  0.88497  0.35443  Biso   1.000  Mo
  P5       1.0000 0.18871  0.05198  0.64593  Biso   1.000  P
  P6       1.0000 0.81233  0.72452  0.67505  Biso   1.000  P
  P7       1.0000 0.14887  0.71786  0.37856  Biso   1.000  P
  P8       1.0000 0.21841  0.00785  0.46026  Biso   1.000  P
  O26      1.0000 0.23700  0.82320  0.55385  Biso   1.000  O
  O27      1.0000 0.42130  0.89090  0.54505  Biso   1.000  O
  O28      1.0000 0.38360  0.79130  0.42799  Biso   1.000  O
  H6       1.0000 0.44020  0.81560  0.44160  Biso   1.000  H
  O29      1.0000 0.21740  0.71190  0.44790  Biso   1.000  O
  O30      1.0000 0.25740  0.91110  0.44171  Biso   1.000  O
  O31      1.0000 0.24190  0.95640  0.64688  Biso   1.000  O
  O32      1.0000 0.41750  0.03510  0.63264  Biso   1.000  O
  H7       1.0000 0.46940  0.02990  0.62170  Biso   1.000  H
  O33      1.0000 0.26520  0.02130  0.53415  Biso   1.000  O
  O34      1.0000 0.25330  0.13630  0.63918  Biso   1.000  O
  O35      1.0000 0.57540  0.86290  0.47550  Biso   1.000  O
  O36      1.0000 0.75930  0.77870  0.47864  Biso   1.000  O
  O37      1.0000 0.60840  0.81640  0.60404  Biso   1.000  O
  H8       1.0000 0.55280  0.83840  0.58360  Biso   1.000  H
  O38      1.0000 0.78650  0.71900  0.60170  Biso   1.000  O
  O39      1.0000 0.26000  0.08870  0.42652  Biso   1.000  O
  O40      1.0000 0.79310  0.82880  0.69504  Biso   1.000  O
  O41      1.0000 0.20740  0.97860  0.31360  Biso   1.000  O
  O42      1.0000 0.40430  0.98050  0.39514  Biso   1.000  O
  O43      1.0000 0.19010  0.78990  0.33907  Biso   1.000  O
  O44      1.0000 0.16950  0.05880  0.71249  Biso   1.000  O
  O45      1.0000 0.09070  0.05440  0.59586  Biso   1.000  O
  O46      1.0000 0.91710  0.70160  0.70700  Biso   1.000  O
  H9       1.0000 0.77830  0.62200  0.72780  Biso   1.000  H
  O47      1.0000 0.74520  0.65510  0.69610  Biso   1.000  O
  O48      1.0000 0.04850  0.75380  0.37830  Biso   1.000  O
  O49      1.0000 0.14240  0.61990  0.34730  Biso   1.000  O
  H10      1.0000 0.08360  0.60110  0.33650  Biso   1.000  H
  O50      1.0000 0.11080  0.00760  0.44033  Biso   1.000  O
  Ba3      1.0000 0.02759  0.57138  0.81914  Biso   1.000  Ba
  Mo13     1.0000 0.32855  0.71128  0.00793  Biso   1.000  Mo
  Mo14     1.0000 0.34185  0.59548  0.10353  Biso   1.000  Mo
  Mo15     1.0000 0.65310  0.65707  0.91657  Biso   1.000  Mo
  Mo16     1.0000 0.66939  0.72664  0.02970  Biso   1.000  Mo
  Mo17     1.0000 0.31360  0.43008  0.83896  Biso   1.000  Mo
  Mo18     1.0000 0.30695  0.61503  0.85443  Biso   1.000  Mo
  P9       1.0000 0.18871  0.44802  0.14593  Biso   1.000  P
  P10      1.0000 0.81233  0.77548  0.17505  Biso   1.000  P
  P11      1.0000 0.14887  0.78214  0.87856  Biso   1.000  P
  P12      1.0000 0.21841  0.49215  0.96026  Biso   1.000  P
  O51      1.0000 0.23700  0.67680  0.05385  Biso   1.000  O
  O52      1.0000 0.42130  0.60910  0.04505  Biso   1.000  O
  O53      1.0000 0.38360  0.70870  0.92799  Biso   1.000  O
  H11      1.0000 0.44020  0.68440  0.94160  Biso   1.000  H
  O54      1.0000 0.21740  0.78810  0.94790  Biso   1.000  O
  O55      1.0000 0.25740  0.58890  0.94171  Biso   1.000  O
  O56      1.0000 0.24190  0.54360  0.14688  Biso   1.000  O
  O57      1.0000 0.41750  0.46490  0.13264  Biso   1.000  O
  H12      1.0000 0.46940  0.47010  0.12170  Biso   1.000  H
  O58      1.0000 0.26520  0.47870  0.03415  Biso   1.000  O
  O59      1.0000 0.25330  0.36370  0.13918  Biso   1.000  O
  O60      1.0000 0.57540  0.63710  0.97550  Biso   1.000  O
  O61      1.0000 0.75930  0.72130  0.97864  Biso   1.000  O
  O62      1.0000 0.60840  0.68360  0.10404  Biso   1.000  O
  H13      1.0000 0.55280  0.66160  0.08360  Biso   1.000  H
  O63      1.0000 0.78650  0.78100  0.10170  Biso   1.000  O
  O64      1.0000 0.26000  0.41130  0.92652  Biso   1.000  O
  O65      1.0000 0.79310  0.67120  0.19504  Biso   1.000  O
  O66      1.0000 0.20740  0.52140  0.81360  Biso   1.000  O
  O67      1.0000 0.40430  0.51950  0.89514  Biso   1.000  O
  O68      1.0000 0.19010  0.71010  0.83907  Biso   1.000  O
  O69      1.0000 0.16950  0.44120  0.21249  Biso   1.000  O
  O70      1.0000 0.09070  0.44560  0.09586  Biso   1.000  O
  O71      1.0000 0.91710  0.79840  0.20700  Biso   1.000  O
  H14      1.0000 0.77830  0.87800  0.22780  Biso   1.000  H
  O72      1.0000 0.74520  0.84490  0.19610  Biso   1.000  O
  O73      1.0000 0.04850  0.74620  0.87830  Biso   1.000  O
  O74      1.0000 0.14240  0.88010  0.84730  Biso   1.000  O
  H15      1.0000 0.08360  0.89890  0.83650  Biso   1.000  H
  O75      1.0000 0.11080  0.49240  0.94033  Biso   1.000  O
  Ba4      1.0000 0.97241  0.07138  0.68086  Biso   1.000  Ba
  Mo19     1.0000 0.67145  0.21128  0.49207  Biso   1.000  Mo
  Mo20     1.0000 0.65815  0.09548  0.39647  Biso   1.000  Mo
  Mo21     1.0000 0.34690  0.15707  0.58343  Biso   1.000  Mo
  Mo22     1.0000 0.33061  0.22664  0.47030  Biso   1.000  Mo
  Mo23     1.0000 0.68640  0.93008  0.66104  Biso   1.000  Mo
  Mo24     1.0000 0.69305  0.11503  0.64557  Biso   1.000  Mo
  P13      1.0000 0.81129  0.94802  0.35407  Biso   1.000  P
  P14      1.0000 0.18767  0.27548  0.32495  Biso   1.000  P
  P15      1.0000 0.85113  0.28214  0.62144  Biso   1.000  P
  P16      1.0000 0.78159  0.99215  0.53974  Biso   1.000  P
  O76      1.0000 0.76300  0.17680  0.44615  Biso   1.000  O
  O77      1.0000 0.57870  0.10910  0.45495  Biso   1.000  O
  O78      1.0000 0.61640  0.20870  0.57201  Biso   1.000  O
  H16      1.0000 0.55980  0.18440  0.55840  Biso   1.000  H
  O79      1.0000 0.78260  0.28810  0.55210  Biso   1.000  O
  O80      1.0000 0.74260  0.08890  0.55829  Biso   1.000  O
  O81      1.0000 0.75810  0.04360  0.35312  Biso   1.000  O
  O82      1.0000 0.58250  0.96490  0.36736  Biso   1.000  O
  H17      1.0000 0.53060  0.97010  0.37830  Biso   1.000  H
  O83      1.0000 0.73480  0.97870  0.46585  Biso   1.000  O
  O84      1.0000 0.74670  0.86370  0.36082  Biso   1.000  O
  O85      1.0000 0.42460  0.13710  0.52450  Biso   1.000  O
  O86      1.0000 0.24070  0.22130  0.52136  Biso   1.000  O
  O87      1.0000 0.39160  0.18360  0.39596  Biso   1.000  O
  H18      1.0000 0.44720  0.16160  0.41640  Biso   1.000  H
  O88      1.0000 0.21350  0.28100  0.39830  Biso   1.000  O
  O89      1.0000 0.74000  0.91130  0.57348  Biso   1.000  O
  O90      1.0000 0.20690  0.17120  0.30496  Biso   1.000  O
  O91      1.0000 0.79260  0.02140  0.68640  Biso   1.000  O
  O92      1.0000 0.59570  0.01950  0.60486  Biso   1.000  O
  O93      1.0000 0.80990  0.21010  0.66093  Biso   1.000  O
  O94      1.0000 0.83050  0.94120  0.28751  Biso   1.000  O
  O95      1.0000 0.90930  0.94560  0.40414  Biso   1.000  O
  O96      1.0000 0.08290  0.29840  0.29300  Biso   1.000  O
  H19      1.0000 0.22170  0.37800  0.27220  Biso   1.000  H
  O97      1.0000 0.25480  0.34490  0.30390  Biso   1.000  O
  O98      1.0000 0.95150  0.24620  0.62170  Biso   1.000  O
  O99      1.0000 0.85760  0.38010  0.65270  Biso   1.000  O
  H20      1.0000 0.91640  0.39890  0.66350  Biso   1.000  H
  O100     1.0000 0.88920  0.99240  0.55967  Biso   1.000  O
  Ca1      1.0000 0.50000  0.50000  0.00000  Biso   1.000  Ca
  Ca2      1.0000 0.50000  0.00000  0.50000  Biso   1.000  Ca
