data_image0
_cell_length_a       16.86
_cell_length_b       24.513
_cell_length_c       11.92
_cell_angle_alpha    90
_cell_angle_beta     109.392
_cell_angle_gamma    90

_symmetry_space_group_name_H-M    "P 1"
_symmetry_int_tables_number       1

loop_
  _symmetry_equiv_pos_as_xyz
  'x, y, z'

loop_
  _atom_site_label
  _atom_site_occupancy
  _atom_site_fract_x
  _atom_site_fract_y
  _atom_site_fract_z
  _atom_site_thermal_displace_type
  _atom_site_B_iso_or_equiv
  _atom_site_type_symbol
  C1       1.0000 0.17830  0.17431  0.79350  Biso   1.000  C
  C2       1.0000 0.24910  0.19500  0.89750  Biso   1.000  C
  C3       1.0000 0.23360  0.22381  0.98690  Biso   1.000  C
  H1       1.0000 0.17850  0.23010  0.98380  Biso   1.000  H
  C4       1.0000 0.30030  0.24369  0.08240  Biso   1.000  C
  H2       1.0000 0.28940  0.26390  0.14170  Biso   1.000  H
  C5       1.0000 0.38260  0.23359  0.08930  Biso   1.000  C
  C6       1.0000 0.39690  0.20393  0.99930  Biso   1.000  C
  H3       1.0000 0.45180  0.19590  0.00380  Biso   1.000  H
  C7       1.0000 0.33100  0.18607  0.90300  Biso   1.000  C
  H4       1.0000 0.34190  0.16780  0.84120  Biso   1.000  H
  C8       1.0000 0.45210  0.25459  0.19130  Biso   1.000  C
  H5       1.0000 0.43700  0.27460  0.24730  Biso   1.000  H
  C9       1.0000 0.53320  0.24821  0.21220  Biso   1.000  C
  H6       1.0000 0.54880  0.22720  0.15800  Biso   1.000  H
  C10      1.0000 0.60190  0.27113  0.31310  Biso   1.000  C
  C11      1.0000 0.68530  0.25877  0.32690  Biso   1.000  C
  H7       1.0000 0.69730  0.23560  0.27280  Biso   1.000  H
  C12      1.0000 0.75030  0.28054  0.41990  Biso   1.000  C
  H8       1.0000 0.80560  0.27250  0.42700  Biso   1.000  H
  C13      1.0000 0.58680  0.30557  0.39560  Biso   1.000  C
  H9       1.0000 0.53170  0.31540  0.38670  Biso   1.000  H
  C14      1.0000 0.80360  0.33827  0.60340  Biso   1.000  C
  C15      1.0000 0.73380  0.31414  0.50240  Biso   1.000  C
  C16      1.0000 0.65140  0.32551  0.49070  Biso   1.000  C
  H10      1.0000 0.63940  0.34680  0.54760  Biso   1.000  H
  C17      1.0000 0.05030  0.99430  0.81150  Biso   1.000  C
  H11      1.0000 0.03950  0.97920  0.87660  Biso   1.000  H
  C18      1.0000 0.08020  0.00303  0.65610  Biso   1.000  C
  H12      1.0000 0.09470  0.99510  0.58910  Biso   1.000  H
  C19      1.0000 0.95250  0.25738  0.33150  Biso   1.000  C
  H13      1.0000 0.92640  0.26450  0.25100  Biso   1.000  H
  C20      1.0000 0.01290  0.26758  0.51400  Biso   1.000  C
  H14      1.0000 0.03780  0.28350  0.58830  Biso   1.000  H
  Cd1      1.0000 0.05252  0.13687  0.60016  Biso   1.000  Cd
  Cd2      1.0000 0.00662  0.12004  0.86633  Biso   1.000  Cd
  Cd3      1.0000 0.93377  0.12551  0.29091  Biso   1.000  Cd
  N1       1.0000 0.06555  0.05234  0.68570  Biso   1.000  N
  N2       1.0000 0.04555  0.04700  0.78800  Biso   1.000  N
  N3       1.0000 0.07203  0.96493  0.73250  Biso   1.000  N
  N4       1.0000 0.96496  0.20822  0.37610  Biso   1.000  N
  N5       1.0000 0.00525  0.21495  0.49710  Biso   1.000  N
  N6       1.0000 0.98098  0.29650  0.41310  Biso   1.000  N
  O1       1.0000 0.78988  0.35169  0.69550  Biso   1.000  O
  O2       1.0000 0.87495  0.34399  0.59230  Biso   1.000  O
  O3       1.0000 0.10550  0.17158  0.80070  Biso   1.000  O
  O4       1.0000 0.19279  0.16085  0.70090  Biso   1.000  O
  C21      1.0000 0.82170  0.67431  0.70650  Biso   1.000  C
  C22      1.0000 0.75090  0.69500  0.60250  Biso   1.000  C
  C23      1.0000 0.76640  0.72381  0.51310  Biso   1.000  C
  H15      1.0000 0.82150  0.73010  0.51620  Biso   1.000  H
  C24      1.0000 0.69970  0.74369  0.41760  Biso   1.000  C
  H16      1.0000 0.71060  0.76390  0.35830  Biso   1.000  H
  C25      1.0000 0.61740  0.73359  0.41070  Biso   1.000  C
  C26      1.0000 0.60310  0.70393  0.50070  Biso   1.000  C
  H17      1.0000 0.54820  0.69590  0.49620  Biso   1.000  H
  C27      1.0000 0.66900  0.68607  0.59700  Biso   1.000  C
  H18      1.0000 0.65810  0.66780  0.65880  Biso   1.000  H
  C28      1.0000 0.54790  0.75459  0.30870  Biso   1.000  C
  H19      1.0000 0.56300  0.77460  0.25270  Biso   1.000  H
  C29      1.0000 0.46680  0.74821  0.28780  Biso   1.000  C
  H20      1.0000 0.45120  0.72720  0.34200  Biso   1.000  H
  C30      1.0000 0.39810  0.77113  0.18690  Biso   1.000  C
  C31      1.0000 0.31470  0.75877  0.17310  Biso   1.000  C
  H21      1.0000 0.30270  0.73560  0.22720  Biso   1.000  H
  C32      1.0000 0.24970  0.78054  0.08010  Biso   1.000  C
  H22      1.0000 0.19440  0.77250  0.07300  Biso   1.000  H
  C33      1.0000 0.41320  0.80557  0.10440  Biso   1.000  C
  H23      1.0000 0.46830  0.81540  0.11330  Biso   1.000  H
  C34      1.0000 0.19640  0.83827  0.89660  Biso   1.000  C
  C35      1.0000 0.26620  0.81414  0.99760  Biso   1.000  C
  C36      1.0000 0.34860  0.82551  0.00930  Biso   1.000  C
  H24      1.0000 0.36060  0.84680  0.95240  Biso   1.000  H
  C37      1.0000 0.94970  0.49430  0.68850  Biso   1.000  C
  H25      1.0000 0.96050  0.47920  0.62340  Biso   1.000  H
  C38      1.0000 0.91980  0.50303  0.84390  Biso   1.000  C
  H26      1.0000 0.90530  0.49510  0.91090  Biso   1.000  H
  C39      1.0000 0.04750  0.75738  0.16850  Biso   1.000  C
  H27      1.0000 0.07360  0.76450  0.24900  Biso   1.000  H
  C40      1.0000 0.98710  0.76758  0.98600  Biso   1.000  C
  H28      1.0000 0.96220  0.78350  0.91170  Biso   1.000  H
  Cd4      1.0000 0.94748  0.63687  0.89984  Biso   1.000  Cd
  Cd5      1.0000 0.99338  0.62004  0.63367  Biso   1.000  Cd
  Cd6      1.0000 0.06623  0.62551  0.20909  Biso   1.000  Cd
  N7       1.0000 0.93445  0.55234  0.81430  Biso   1.000  N
  N8       1.0000 0.95445  0.54700  0.71200  Biso   1.000  N
  N9       1.0000 0.92797  0.46493  0.76750  Biso   1.000  N
  N10      1.0000 0.03504  0.70822  0.12390  Biso   1.000  N
  N11      1.0000 0.99475  0.71495  0.00290  Biso   1.000  N
  N12      1.0000 0.01902  0.79650  0.08690  Biso   1.000  N
  O5       1.0000 0.21012  0.85169  0.80450  Biso   1.000  O
  O6       1.0000 0.12505  0.84399  0.90770  Biso   1.000  O
  O7       1.0000 0.89450  0.67158  0.69930  Biso   1.000  O
  O8       1.0000 0.80721  0.66085  0.79910  Biso   1.000  O
  C41      1.0000 0.82170  0.82569  0.20650  Biso   1.000  C
  C42      1.0000 0.75090  0.80500  0.10250  Biso   1.000  C
  C43      1.0000 0.76640  0.77619  0.01310  Biso   1.000  C
  H29      1.0000 0.82150  0.76990  0.01620  Biso   1.000  H
  C44      1.0000 0.69970  0.75631  0.91760  Biso   1.000  C
  H30      1.0000 0.71060  0.73610  0.85830  Biso   1.000  H
  C45      1.0000 0.61740  0.76641  0.91070  Biso   1.000  C
  C46      1.0000 0.60310  0.79607  0.00070  Biso   1.000  C
  H31      1.0000 0.54820  0.80410  0.99620  Biso   1.000  H
  C47      1.0000 0.66900  0.81393  0.09700  Biso   1.000  C
  H32      1.0000 0.65810  0.83220  0.15880  Biso   1.000  H
  C48      1.0000 0.54790  0.74541  0.80870  Biso   1.000  C
  H33      1.0000 0.56300  0.72540  0.75270  Biso   1.000  H
  C49      1.0000 0.46680  0.75179  0.78780  Biso   1.000  C
  H34      1.0000 0.45120  0.77280  0.84200  Biso   1.000  H
  C50      1.0000 0.39810  0.72887  0.68690  Biso   1.000  C
  C51      1.0000 0.31470  0.74123  0.67310  Biso   1.000  C
  H35      1.0000 0.30270  0.76440  0.72720  Biso   1.000  H
  C52      1.0000 0.24970  0.71946  0.58010  Biso   1.000  C
  H36      1.0000 0.19440  0.72750  0.57300  Biso   1.000  H
  C53      1.0000 0.41320  0.69443  0.60440  Biso   1.000  C
  H37      1.0000 0.46830  0.68460  0.61330  Biso   1.000  H
  C54      1.0000 0.19640  0.66173  0.39660  Biso   1.000  C
  C55      1.0000 0.26620  0.68586  0.49760  Biso   1.000  C
  C56      1.0000 0.34860  0.67449  0.50930  Biso   1.000  C
  H38      1.0000 0.36060  0.65320  0.45240  Biso   1.000  H
  C57      1.0000 0.94970  0.00570  0.18850  Biso   1.000  C
  H39      1.0000 0.96050  0.02080  0.12340  Biso   1.000  H
  C58      1.0000 0.91980  0.99697  0.34390  Biso   1.000  C
  H40      1.0000 0.90530  0.00490  0.41090  Biso   1.000  H
  C59      1.0000 0.04750  0.74262  0.66850  Biso   1.000  C
  H41      1.0000 0.07360  0.73550  0.74900  Biso   1.000  H
  C60      1.0000 0.98710  0.73242  0.48600  Biso   1.000  C
  H42      1.0000 0.96220  0.71650  0.41170  Biso   1.000  H
  Cd7      1.0000 0.94748  0.86313  0.39984  Biso   1.000  Cd
  Cd8      1.0000 0.99338  0.87996  0.13367  Biso   1.000  Cd
  Cd9      1.0000 0.06623  0.87449  0.70909  Biso   1.000  Cd
  N13      1.0000 0.93445  0.94766  0.31430  Biso   1.000  N
  N14      1.0000 0.95445  0.95300  0.21200  Biso   1.000  N
  N15      1.0000 0.92797  0.03507  0.26750  Biso   1.000  N
  N16      1.0000 0.03504  0.79178  0.62390  Biso   1.000  N
  N17      1.0000 0.99475  0.78505  0.50290  Biso   1.000  N
  N18      1.0000 0.01902  0.70350  0.58690  Biso   1.000  N
  O9       1.0000 0.21012  0.64831  0.30450  Biso   1.000  O
  O10      1.0000 0.12505  0.65601  0.40770  Biso   1.000  O
  O11      1.0000 0.89450  0.82842  0.19930  Biso   1.000  O
  O12      1.0000 0.80721  0.83915  0.29910  Biso   1.000  O
  C61      1.0000 0.17830  0.32569  0.29350  Biso   1.000  C
  C62      1.0000 0.24910  0.30500  0.39750  Biso   1.000  C
  C63      1.0000 0.23360  0.27619  0.48690  Biso   1.000  C
  H43      1.0000 0.17850  0.26990  0.48380  Biso   1.000  H
  C64      1.0000 0.30030  0.25631  0.58240  Biso   1.000  C
  H44      1.0000 0.28940  0.23610  0.64170  Biso   1.000  H
  C65      1.0000 0.38260  0.26641  0.58930  Biso   1.000  C
  C66      1.0000 0.39690  0.29607  0.49930  Biso   1.000  C
  H45      1.0000 0.45180  0.30410  0.50380  Biso   1.000  H
  C67      1.0000 0.33100  0.31393  0.40300  Biso   1.000  C
  H46      1.0000 0.34190  0.33220  0.34120  Biso   1.000  H
  C68      1.0000 0.45210  0.24541  0.69130  Biso   1.000  C
  H47      1.0000 0.43700  0.22540  0.74730  Biso   1.000  H
  C69      1.0000 0.53320  0.25179  0.71220  Biso   1.000  C
  H48      1.0000 0.54880  0.27280  0.65800  Biso   1.000  H
  C70      1.0000 0.60190  0.22887  0.81310  Biso   1.000  C
  C71      1.0000 0.68530  0.24123  0.82690  Biso   1.000  C
  H49      1.0000 0.69730  0.26440  0.77280  Biso   1.000  H
  C72      1.0000 0.75030  0.21946  0.91990  Biso   1.000  C
  H50      1.0000 0.80560  0.22750  0.92700  Biso   1.000  H
  C73      1.0000 0.58680  0.19443  0.89560  Biso   1.000  C
  H51      1.0000 0.53170  0.18460  0.88670  Biso   1.000  H
  C74      1.0000 0.80360  0.16173  0.10340  Biso   1.000  C
  C75      1.0000 0.73380  0.18586  0.00240  Biso   1.000  C
  C76      1.0000 0.65140  0.17449  0.99070  Biso   1.000  C
  H52      1.0000 0.63940  0.15320  0.04760  Biso   1.000  H
  C77      1.0000 0.05030  0.50570  0.31150  Biso   1.000  C
  H53      1.0000 0.03950  0.52080  0.37660  Biso   1.000  H
  C78      1.0000 0.08020  0.49697  0.15610  Biso   1.000  C
  H54      1.0000 0.09470  0.50490  0.08910  Biso   1.000  H
  C79      1.0000 0.95250  0.24262  0.83150  Biso   1.000  C
  H55      1.0000 0.92640  0.23550  0.75100  Biso   1.000  H
  C80      1.0000 0.01290  0.23242  0.01400  Biso   1.000  C
  H56      1.0000 0.03780  0.21650  0.08830  Biso   1.000  H
  Cd10     1.0000 0.05252  0.36313  0.10016  Biso   1.000  Cd
  Cd11     1.0000 0.00662  0.37996  0.36633  Biso   1.000  Cd
  Cd12     1.0000 0.93377  0.37449  0.79091  Biso   1.000  Cd
  N19      1.0000 0.06555  0.44766  0.18570  Biso   1.000  N
  N20      1.0000 0.04555  0.45300  0.28800  Biso   1.000  N
  N21      1.0000 0.07203  0.53507  0.23250  Biso   1.000  N
  N22      1.0000 0.96496  0.29178  0.87610  Biso   1.000  N
  N23      1.0000 0.00525  0.28505  0.99710  Biso   1.000  N
  N24      1.0000 0.98098  0.20350  0.91310  Biso   1.000  N
  O13      1.0000 0.78988  0.14831  0.19550  Biso   1.000  O
  O14      1.0000 0.87495  0.15601  0.09230  Biso   1.000  O
  O15      1.0000 0.10550  0.32842  0.30070  Biso   1.000  O
  O16      1.0000 0.19279  0.33915  0.20090  Biso   1.000  O
