data_image0
_cell_length_a       11.9286
_cell_length_b       11.9286
_cell_length_c       10.469
_cell_angle_alpha    90
_cell_angle_beta     90
_cell_angle_gamma    120

_symmetry_space_group_name_H-M    "P 1"
_symmetry_int_tables_number       1

loop_
  _symmetry_equiv_pos_as_xyz
  'x, y, z'

loop_
  _atom_site_label
  _atom_site_occupancy
  _atom_site_fract_x
  _atom_site_fract_y
  _atom_site_fract_z
  _atom_site_thermal_displace_type
  _atom_site_B_iso_or_equiv
  _atom_site_type_symbol
  N1       1.0000 0.10644  0.51732  0.22491  Biso   1.000  N
  N2       1.0000 0.15051  0.53182  0.34931  Biso   1.000  N
  C1       1.0000 0.26030  0.53010  0.34510  Biso   1.000  C
  N3       1.0000 0.29002  0.51490  0.22215  Biso   1.000  N
  C2       1.0000 0.19200  0.50870  0.15190  Biso   1.000  C
  H1       1.0000 0.18570  0.49950  0.06360  Biso   1.000  H
  N4       1.0000 0.32790  0.53200  0.44990  Biso   1.000  N
  H2       1.0000 0.29980  0.53440  0.52490  Biso   1.000  H
  H3       1.0000 0.39900  0.53070  0.44140  Biso   1.000  H
  O1       1.0000 0.40170  0.36773  0.29860  Biso   1.000  O
  H4       1.0000 0.45390  0.34220  0.29380  Biso   1.000  H
  Cu1      1.0000 0.43765  0.49782  0.15982  Biso   1.000  Cu
  N5       1.0000 0.48268  0.58912  0.89158  Biso   1.000  N
  N6       1.0000 0.46818  0.61869  0.01598  Biso   1.000  N
  C3       1.0000 0.46990  0.73020  0.01177  Biso   1.000  C
  N7       1.0000 0.48510  0.77512  0.88882  Biso   1.000  N
  C4       1.0000 0.49130  0.68330  0.81857  Biso   1.000  C
  H5       1.0000 0.50050  0.68620  0.73027  Biso   1.000  H
  N8       1.0000 0.46800  0.79590  0.11657  Biso   1.000  N
  H6       1.0000 0.46560  0.76540  0.19157  Biso   1.000  H
  H7       1.0000 0.46930  0.86830  0.10807  Biso   1.000  H
  O2       1.0000 0.63227  0.03397  0.96527  Biso   1.000  O
  H8       1.0000 0.65780  0.11170  0.96047  Biso   1.000  H
  Cu2      1.0000 0.50218  0.93983  0.82649  Biso   1.000  Cu
  N9       1.0000 0.41088  0.89356  0.55824  Biso   1.000  N
  N10      1.0000 0.38131  0.84949  0.68264  Biso   1.000  N
  C5       1.0000 0.26980  0.73970  0.67843  Biso   1.000  C
  N11      1.0000 0.22488  0.70998  0.55548  Biso   1.000  N
  C6       1.0000 0.31670  0.80800  0.48523  Biso   1.000  C
  H9       1.0000 0.31380  0.81430  0.39693  Biso   1.000  H
  N12      1.0000 0.20410  0.67210  0.78323  Biso   1.000  N
  H10      1.0000 0.23460  0.70020  0.85823  Biso   1.000  H
  H11      1.0000 0.13170  0.60100  0.77473  Biso   1.000  H
  O3       1.0000 0.96603  0.59830  0.63193  Biso   1.000  O
  H12      1.0000 0.88830  0.54610  0.62713  Biso   1.000  H
  Cu3      1.0000 0.06017  0.56235  0.49315  Biso   1.000  Cu
  N13      1.0000 0.51732  0.10644  0.77509  Biso   1.000  N
  N14      1.0000 0.53182  0.15051  0.65069  Biso   1.000  N
  C7       1.0000 0.53010  0.26030  0.65490  Biso   1.000  C
  N15      1.0000 0.51490  0.29002  0.77785  Biso   1.000  N
  C8       1.0000 0.50870  0.19200  0.84810  Biso   1.000  C
  H13      1.0000 0.49950  0.18570  0.93640  Biso   1.000  H
  N16      1.0000 0.53200  0.32790  0.55010  Biso   1.000  N
  H14      1.0000 0.53440  0.29980  0.47510  Biso   1.000  H
  H15      1.0000 0.53070  0.39900  0.55860  Biso   1.000  H
  O4       1.0000 0.36773  0.40170  0.70140  Biso   1.000  O
  H16      1.0000 0.34220  0.45390  0.70620  Biso   1.000  H
  Cu4      1.0000 0.49782  0.43765  0.84018  Biso   1.000  Cu
  N17      1.0000 0.58912  0.48268  0.10842  Biso   1.000  N
  N18      1.0000 0.61869  0.46818  0.98402  Biso   1.000  N
  C9       1.0000 0.73020  0.46990  0.98823  Biso   1.000  C
  N19      1.0000 0.77512  0.48510  0.11118  Biso   1.000  N
  C10      1.0000 0.68330  0.49130  0.18143  Biso   1.000  C
  H17      1.0000 0.68620  0.50050  0.26973  Biso   1.000  H
  N20      1.0000 0.79590  0.46800  0.88343  Biso   1.000  N
  H18      1.0000 0.76540  0.46560  0.80843  Biso   1.000  H
  H19      1.0000 0.86830  0.46930  0.89193  Biso   1.000  H
  O5       1.0000 0.03397  0.63227  0.03473  Biso   1.000  O
  H20      1.0000 0.11170  0.65780  0.03953  Biso   1.000  H
  Cu5      1.0000 0.93983  0.50218  0.17351  Biso   1.000  Cu
  N21      1.0000 0.89356  0.41088  0.44176  Biso   1.000  N
  N22      1.0000 0.84949  0.38131  0.31736  Biso   1.000  N
  C11      1.0000 0.73970  0.26980  0.32157  Biso   1.000  C
  N23      1.0000 0.70998  0.22488  0.44452  Biso   1.000  N
  C12      1.0000 0.80800  0.31670  0.51477  Biso   1.000  C
  H21      1.0000 0.81430  0.31380  0.60307  Biso   1.000  H
  N24      1.0000 0.67210  0.20410  0.21677  Biso   1.000  N
  H22      1.0000 0.70020  0.23460  0.14177  Biso   1.000  H
  H23      1.0000 0.60100  0.13170  0.22527  Biso   1.000  H
  O6       1.0000 0.59830  0.96603  0.36807  Biso   1.000  O
  H24      1.0000 0.54610  0.88830  0.37287  Biso   1.000  H
  Cu6      1.0000 0.56235  0.06017  0.50685  Biso   1.000  Cu
