data_image0
_cell_length_a       6.7418
_cell_length_b       12.143
_cell_length_c       13.04
_cell_angle_alpha    90
_cell_angle_beta     90
_cell_angle_gamma    90

_symmetry_space_group_name_H-M    "P 1"
_symmetry_int_tables_number       1

loop_
  _symmetry_equiv_pos_as_xyz
  'x, y, z'

loop_
  _atom_site_label
  _atom_site_occupancy
  _atom_site_fract_x
  _atom_site_fract_y
  _atom_site_fract_z
  _atom_site_thermal_displace_type
  _atom_site_B_iso_or_equiv
  _atom_site_type_symbol
  N1       1.0000 0.47910  0.72300  0.63000  Biso   1.000  N
  N2       1.0000 0.68170  0.72140  0.63080  Biso   1.000  N
  C1       1.0000 0.41940  0.68790  0.71920  Biso   1.000  C
  C2       1.0000 0.73740  0.68530  0.72020  Biso   1.000  C
  N3       1.0000 0.57820  0.66360  0.77820  Biso   1.000  N
  Cu1      1.0000 0.33265  0.76142  0.50120  Biso   1.000  Cu
  C3       1.0000 0.55790  0.68140  0.96490  Biso   1.000  C
  H1       1.0000 0.54340  0.75730  0.95910  Biso   1.000  H
  C4       1.0000 0.55910  0.62990  0.05950  Biso   1.000  C
  H2       1.0000 0.53970  0.67030  0.11930  Biso   1.000  H
  C5       1.0000 0.58930  0.51840  0.06350  Biso   1.000  C
  H3       1.0000 0.59370  0.48520  0.12770  Biso   1.000  H
  C6       1.0000 0.60590  0.50440  0.89010  Biso   1.000  C
  H4       1.0000 0.61980  0.46180  0.83120  Biso   1.000  H
  C7       1.0000 0.57890  0.61560  0.87960  Biso   1.000  C
  H5       1.0000 0.86750  0.67610  0.74110  Biso   1.000  H
  H6       1.0000 0.28720  0.68080  0.73940  Biso   1.000  H
  N4       1.0000 0.61300  0.45450  0.98110  Biso   1.000  N
  O1       1.0000 0.58120  0.74790  0.42620  Biso   1.000  O
  H7       1.0000 0.57100  0.69000  0.39100  Biso   1.000  H
  N5       1.0000 0.97910  0.77700  0.37000  Biso   1.000  N
  N6       1.0000 0.18170  0.77860  0.36920  Biso   1.000  N
  C8       1.0000 0.91940  0.81210  0.28080  Biso   1.000  C
  C9       1.0000 0.23740  0.81470  0.27980  Biso   1.000  C
  N7       1.0000 0.07820  0.83640  0.22180  Biso   1.000  N
  Cu2      1.0000 0.83265  0.73858  0.49880  Biso   1.000  Cu
  C10      1.0000 0.05790  0.81860  0.03510  Biso   1.000  C
  H8       1.0000 0.04340  0.74270  0.04090  Biso   1.000  H
  C11      1.0000 0.05910  0.87010  0.94050  Biso   1.000  C
  H9       1.0000 0.03970  0.82970  0.88070  Biso   1.000  H
  C12      1.0000 0.08930  0.98160  0.93650  Biso   1.000  C
  H10      1.0000 0.09370  0.01480  0.87230  Biso   1.000  H
  C13      1.0000 0.10590  0.99560  0.10990  Biso   1.000  C
  H11      1.0000 0.11980  0.03820  0.16880  Biso   1.000  H
  C14      1.0000 0.07890  0.88440  0.12040  Biso   1.000  C
  H12      1.0000 0.36750  0.82390  0.25890  Biso   1.000  H
  H13      1.0000 0.78720  0.81920  0.26060  Biso   1.000  H
  N8       1.0000 0.11300  0.04550  0.01890  Biso   1.000  N
  O2       1.0000 0.08120  0.75210  0.57380  Biso   1.000  O
  H14      1.0000 0.07100  0.81000  0.60900  Biso   1.000  H
  N9       1.0000 0.02090  0.27700  0.13000  Biso   1.000  N
  N10      1.0000 0.81830  0.27860  0.13080  Biso   1.000  N
  C15      1.0000 0.08060  0.31210  0.21920  Biso   1.000  C
  C16      1.0000 0.76260  0.31470  0.22020  Biso   1.000  C
  N11      1.0000 0.92180  0.33640  0.27820  Biso   1.000  N
  Cu3      1.0000 0.16735  0.23858  0.00120  Biso   1.000  Cu
  C17      1.0000 0.94210  0.31860  0.46490  Biso   1.000  C
  H15      1.0000 0.95660  0.24270  0.45910  Biso   1.000  H
  C18      1.0000 0.94090  0.37010  0.55950  Biso   1.000  C
  H16      1.0000 0.96030  0.32970  0.61930  Biso   1.000  H
  C19      1.0000 0.91070  0.48160  0.56350  Biso   1.000  C
  H17      1.0000 0.90630  0.51480  0.62770  Biso   1.000  H
  C20      1.0000 0.89410  0.49560  0.39010  Biso   1.000  C
  H18      1.0000 0.88020  0.53820  0.33120  Biso   1.000  H
  C21      1.0000 0.92110  0.38440  0.37960  Biso   1.000  C
  H19      1.0000 0.63250  0.32390  0.24110  Biso   1.000  H
  H20      1.0000 0.21280  0.31920  0.23940  Biso   1.000  H
  N12      1.0000 0.88700  0.54550  0.48110  Biso   1.000  N
  O3       1.0000 0.91880  0.25210  0.92620  Biso   1.000  O
  H21      1.0000 0.92900  0.31000  0.89100  Biso   1.000  H
  N13      1.0000 0.52090  0.22300  0.87000  Biso   1.000  N
  N14      1.0000 0.31830  0.22140  0.86920  Biso   1.000  N
  C22      1.0000 0.58060  0.18790  0.78080  Biso   1.000  C
  C23      1.0000 0.26260  0.18530  0.77980  Biso   1.000  C
  N15      1.0000 0.42180  0.16360  0.72180  Biso   1.000  N
  Cu4      1.0000 0.66735  0.26142  0.99880  Biso   1.000  Cu
  C24      1.0000 0.44210  0.18140  0.53510  Biso   1.000  C
  H22      1.0000 0.45660  0.25730  0.54090  Biso   1.000  H
  C25      1.0000 0.44090  0.12990  0.44050  Biso   1.000  C
  H23      1.0000 0.46030  0.17030  0.38070  Biso   1.000  H
  C26      1.0000 0.41070  0.01840  0.43650  Biso   1.000  C
  H24      1.0000 0.40630  0.98520  0.37230  Biso   1.000  H
  C27      1.0000 0.39410  0.00440  0.60990  Biso   1.000  C
  H25      1.0000 0.38020  0.96180  0.66880  Biso   1.000  H
  C28      1.0000 0.42110  0.11560  0.62040  Biso   1.000  C
  H26      1.0000 0.13250  0.17610  0.75890  Biso   1.000  H
  H27      1.0000 0.71280  0.18080  0.76060  Biso   1.000  H
  N16      1.0000 0.38700  0.95450  0.51890  Biso   1.000  N
  O4       1.0000 0.41880  0.24790  0.07380  Biso   1.000  O
  H28      1.0000 0.42900  0.19000  0.10900  Biso   1.000  H
