data_image0
_cell_length_a       5.1812
_cell_length_b       10.742
_cell_length_c       15.1224
_cell_angle_alpha    82.466
_cell_angle_beta     84.928
_cell_angle_gamma    82.691

_symmetry_space_group_name_H-M    "P 1"
_symmetry_int_tables_number       1

loop_
  _symmetry_equiv_pos_as_xyz
  'x, y, z'

loop_
  _atom_site_label
  _atom_site_occupancy
  _atom_site_fract_x
  _atom_site_fract_y
  _atom_site_fract_z
  _atom_site_thermal_displace_type
  _atom_site_B_iso_or_equiv
  _atom_site_type_symbol
  C1       1.0000 0.98420  0.62970  0.48541  Biso   1.000  C
  H1       1.0000 0.97180  0.71930  0.47550  Biso   1.000  H
  C2       1.0000 0.08570  0.56730  0.56424  Biso   1.000  C
  C3       1.0000 0.09970  0.43480  0.57933  Biso   1.000  C
  C4       1.0000 0.18970  0.35980  0.66371  Biso   1.000  C
  C5       1.0000 0.41600  0.27360  0.66223  Biso   1.000  C
  H2       1.0000 0.50850  0.25890  0.60680  Biso   1.000  H
  C6       1.0000 0.50600  0.20930  0.74146  Biso   1.000  C
  H3       1.0000 0.66360  0.15350  0.74020  Biso   1.000  H
  C7       1.0000 0.13370  0.30830  0.82434  Biso   1.000  C
  H4       1.0000 0.03370  0.31780  0.87930  Biso   1.000  H
  C8       1.0000 0.04960  0.37580  0.74507  Biso   1.000  C
  H5       1.0000 0.89460  0.43350  0.74650  Biso   1.000  H
  C9       1.0000 0.36600  0.22640  0.82281  Biso   1.000  C
  C10      1.0000 0.46740  0.16010  0.90891  Biso   1.000  C
  C11      1.0000 0.17340  0.64310  0.63030  Biso   1.000  C
  C12      1.0000 0.40160  0.60350  0.67280  Biso   1.000  C
  H6       1.0000 0.51340  0.53210  0.65580  Biso   1.000  H
  C13      1.0000 0.46760  0.66770  0.74000  Biso   1.000  C
  H7       1.0000 0.62300  0.63950  0.76940  Biso   1.000  H
  C14      1.0000 0.30540  0.77380  0.76433  Biso   1.000  C
  C15      1.0000 0.08280  0.81750  0.71869  Biso   1.000  C
  H8       1.0000 0.97450  0.89100  0.73380  Biso   1.000  H
  C16      1.0000 0.01980  0.75340  0.65131  Biso   1.000  C
  H9       1.0000 0.87100  0.78470  0.61910  Biso   1.000  H
  C17      1.0000 0.35910  0.83540  0.84231  Biso   1.000  C
  O1       1.0000 0.30050  0.14812  0.97672  Biso   1.000  O
  O2       1.0000 0.70370  0.12330  0.91043  Biso   1.000  O
  O3       1.0000 0.19840  0.91430  0.87453  Biso   1.000  O
  O4       1.0000 0.58720  0.79740  0.87251  Biso   1.000  O
  H10      1.0000 0.60540  0.83560  0.91620  Biso   1.000  H
  C18      1.0000 0.01580  0.37030  0.51459  Biso   1.000  C
  H11      1.0000 0.02820  0.28070  0.52450  Biso   1.000  H
  C19      1.0000 0.91430  0.43270  0.43576  Biso   1.000  C
  C20      1.0000 0.90030  0.56520  0.42067  Biso   1.000  C
  C21      1.0000 0.81030  0.64020  0.33629  Biso   1.000  C
  C22      1.0000 0.58400  0.72640  0.33777  Biso   1.000  C
  H12      1.0000 0.49150  0.74110  0.39320  Biso   1.000  H
  C23      1.0000 0.49400  0.79070  0.25854  Biso   1.000  C
  H13      1.0000 0.33640  0.84650  0.25980  Biso   1.000  H
  C24      1.0000 0.86630  0.69170  0.17566  Biso   1.000  C
  H14      1.0000 0.96630  0.68220  0.12070  Biso   1.000  H
  C25      1.0000 0.95040  0.62420  0.25493  Biso   1.000  C
  H15      1.0000 0.10540  0.56650  0.25350  Biso   1.000  H
  C26      1.0000 0.63400  0.77360  0.17719  Biso   1.000  C
  C27      1.0000 0.53260  0.83990  0.09109  Biso   1.000  C
  C28      1.0000 0.82660  0.35690  0.36970  Biso   1.000  C
  C29      1.0000 0.59840  0.39650  0.32720  Biso   1.000  C
  H16      1.0000 0.48660  0.46790  0.34420  Biso   1.000  H
  C30      1.0000 0.53240  0.33230  0.26000  Biso   1.000  C
  H17      1.0000 0.37700  0.36050  0.23060  Biso   1.000  H
  C31      1.0000 0.69460  0.22620  0.23567  Biso   1.000  C
  C32      1.0000 0.91720  0.18250  0.28131  Biso   1.000  C
  H18      1.0000 0.02550  0.10900  0.26620  Biso   1.000  H
  C33      1.0000 0.98020  0.24660  0.34869  Biso   1.000  C
  H19      1.0000 0.12900  0.21530  0.38090  Biso   1.000  H
  C34      1.0000 0.64090  0.16460  0.15769  Biso   1.000  C
  O5       1.0000 0.69950  0.85188  0.02328  Biso   1.000  O
  O6       1.0000 0.29630  0.87670  0.08957  Biso   1.000  O
  O7       1.0000 0.80160  0.08570  0.12547  Biso   1.000  O
  O8       1.0000 0.41280  0.20260  0.12749  Biso   1.000  O
  H20      1.0000 0.39460  0.16440  0.08380  Biso   1.000  H
  Ca1      1.0000 0.00000  0.00000  0.00000  Biso   1.000  Ca
