data_image0
_cell_length_a       5.1161
_cell_length_b       10.8239
_cell_length_c       15.2598
_cell_angle_alpha    82.99
_cell_angle_beta     85.885
_cell_angle_gamma    83.05

_symmetry_space_group_name_H-M    "P 1"
_symmetry_int_tables_number       1

loop_
  _symmetry_equiv_pos_as_xyz
  'x, y, z'

loop_
  _atom_site_label
  _atom_site_occupancy
  _atom_site_fract_x
  _atom_site_fract_y
  _atom_site_fract_z
  _atom_site_thermal_displace_type
  _atom_site_B_iso_or_equiv
  _atom_site_type_symbol
  C1       1.0000 0.98340  0.62876  0.48889  Biso   1.000  C
  H1       1.0000 0.97080  0.71770  0.48130  Biso   1.000  H
  C2       1.0000 0.08230  0.56412  0.56694  Biso   1.000  C
  C3       1.0000 0.09730  0.43225  0.57818  Biso   1.000  C
  C4       1.0000 0.18580  0.35482  0.66115  Biso   1.000  C
  C5       1.0000 0.41090  0.26833  0.65918  Biso   1.000  C
  H2       1.0000 0.50250  0.25400  0.60430  Biso   1.000  H
  C6       1.0000 0.50170  0.20282  0.73773  Biso   1.000  C
  H3       1.0000 0.65860  0.14620  0.73640  Biso   1.000  H
  C7       1.0000 0.36350  0.22007  0.81785  Biso   1.000  C
  C8       1.0000 0.13200  0.30211  0.81946  Biso   1.000  C
  H4       1.0000 0.03250  0.31130  0.87370  Biso   1.000  H
  C9       1.0000 0.04630  0.37062  0.74161  Biso   1.000  C
  H5       1.0000 0.89150  0.42860  0.74330  Biso   1.000  H
  C10      1.0000 0.46740  0.15452  0.90324  Biso   1.000  C
  C11      1.0000 0.16840  0.63697  0.63547  Biso   1.000  C
  C12      1.0000 0.39790  0.59565  0.67927  Biso   1.000  C
  H6       1.0000 0.51000  0.52510  0.66210  Biso   1.000  H
  C13      1.0000 0.46350  0.65680  0.74765  Biso   1.000  C
  H7       1.0000 0.61960  0.62770  0.77760  Biso   1.000  H
  C14      1.0000 0.30080  0.76137  0.77277  Biso   1.000  C
  C15      1.0000 0.07790  0.80704  0.72628  Biso   1.000  C
  H8       1.0000 0.97050  0.88010  0.74160  Biso   1.000  H
  C16      1.0000 0.01300  0.74548  0.65744  Biso   1.000  C
  H9       1.0000 0.86250  0.77730  0.62520  Biso   1.000  H
  C17      1.0000 0.35480  0.82222  0.85110  Biso   1.000  C
  O1       1.0000 0.30340  0.14723  0.97079  Biso   1.000  O
  O2       1.0000 0.70470  0.11340  0.90431  Biso   1.000  O
  O3       1.0000 0.19780  0.90318  0.88093  Biso   1.000  O
  O4       1.0000 0.58100  0.77941  0.88467  Biso   1.000  O
  H10      1.0000 0.60040  0.81700  0.92840  Biso   1.000  H
  C18      1.0000 0.01660  0.37124  0.51111  Biso   1.000  C
  H11      1.0000 0.02920  0.28230  0.51870  Biso   1.000  H
  C19      1.0000 0.91770  0.43588  0.43306  Biso   1.000  C
  C20      1.0000 0.90270  0.56775  0.42182  Biso   1.000  C
  C21      1.0000 0.81420  0.64518  0.33885  Biso   1.000  C
  C22      1.0000 0.58910  0.73167  0.34082  Biso   1.000  C
  H12      1.0000 0.49750  0.74600  0.39570  Biso   1.000  H
  C23      1.0000 0.49830  0.79718  0.26227  Biso   1.000  C
  H13      1.0000 0.34140  0.85380  0.26360  Biso   1.000  H
  C24      1.0000 0.63650  0.77993  0.18215  Biso   1.000  C
  C25      1.0000 0.86800  0.69789  0.18054  Biso   1.000  C
  H14      1.0000 0.96750  0.68870  0.12630  Biso   1.000  H
  C26      1.0000 0.95370  0.62938  0.25839  Biso   1.000  C
  H15      1.0000 0.10850  0.57140  0.25670  Biso   1.000  H
  C27      1.0000 0.53260  0.84548  0.09676  Biso   1.000  C
  C28      1.0000 0.83160  0.36303  0.36453  Biso   1.000  C
  C29      1.0000 0.60210  0.40435  0.32073  Biso   1.000  C
  H16      1.0000 0.49000  0.47490  0.33790  Biso   1.000  H
  C30      1.0000 0.53650  0.34320  0.25235  Biso   1.000  C
  H17      1.0000 0.38040  0.37230  0.22240  Biso   1.000  H
  C31      1.0000 0.69920  0.23863  0.22723  Biso   1.000  C
  C32      1.0000 0.92210  0.19296  0.27372  Biso   1.000  C
  H18      1.0000 0.02950  0.11990  0.25840  Biso   1.000  H
  C33      1.0000 0.98700  0.25452  0.34256  Biso   1.000  C
  H19      1.0000 0.13750  0.22270  0.37480  Biso   1.000  H
  C34      1.0000 0.64520  0.17778  0.14890  Biso   1.000  C
  O5       1.0000 0.69660  0.85277  0.02921  Biso   1.000  O
  O6       1.0000 0.29530  0.88660  0.09569  Biso   1.000  O
  O7       1.0000 0.80220  0.09682  0.11907  Biso   1.000  O
  O8       1.0000 0.41900  0.22059  0.11533  Biso   1.000  O
  H20      1.0000 0.39960  0.18300  0.07160  Biso   1.000  H
  Ca1      1.0000 0.00000  0.00000  0.00000  Biso   1.000  Ca
