data_YUNKIC_charged
_audit_creation_date              2014-07-02
_audit_creation_method            'Materials Studio'
_symmetry_space_group_name_H-M    'P1'
_symmetry_Int_Tables_number       1
_symmetry_cell_setting            triclinic
loop_
_symmetry_equiv_pos_as_xyz
  x,y,z
_cell_length_a                    18.0280
_cell_length_b                    18.9240
_cell_length_c                    18.4840
_cell_angle_alpha                 109.9750
_cell_angle_beta                  90.0000
_cell_angle_gamma                 90.0000
loop_
_atom_site_label
_atom_site_type_symbol
_atom_site_fract_x
_atom_site_fract_y
_atom_site_fract_z
_atom_site_U_iso_or_equiv
_atom_site_adp_type
_atom_site_occupancy
Cu1    Cu    0.42530   0.57758   0.23771   0.01267  Uiso   1.00
Cu2    Cu    0.54520   0.68797   0.36673   0.01267  Uiso   1.00
Cu3    Cu    0.40547   0.22844   0.43766   0.01267  Uiso   1.00
Cu4    Cu    0.39115   0.08941   0.27575   0.01267  Uiso   1.00
Cu5    Cu    0.92530   0.42242   0.26229   0.01267  Uiso   1.00
Cu6    Cu    0.04520   0.31203   0.13327   0.01267  Uiso   1.00
Cu7    Cu    0.90547   0.77156   0.06234   0.01267  Uiso   1.00
Cu8    Cu    0.89115   0.91059   0.22425   0.01267  Uiso   1.00
Cu9    Cu    0.57470   0.42242   0.76229   0.01267  Uiso   1.00
Cu10   Cu    0.45480   0.31203   0.63327   0.01267  Uiso   1.00
Cu11   Cu    0.59453   0.77156   0.56234   0.01267  Uiso   1.00
Cu12   Cu    0.60885   0.91059   0.72425   0.01267  Uiso   1.00
Cu13   Cu    0.07470   0.57758   0.73771   0.01267  Uiso   1.00
Cu14   Cu    0.95480   0.68797   0.86673   0.01267  Uiso   1.00
Cu15   Cu    0.09453   0.22844   0.93766   0.01267  Uiso   1.00
Cu16   Cu    0.10885   0.08941   0.77575   0.01267  Uiso   1.00
H1     H     0.50310   0.55750   0.34010   0.01267  Uiso   1.00
H2     H     0.46850   0.10210   0.39200   0.01267  Uiso   1.00
H3     H     0.50410   0.99020   0.21350   0.01267  Uiso   1.00
H4     H     0.52680   0.06130   0.20420   0.01267  Uiso   1.00
H5     H     0.50120   0.47310   0.10440   0.01267  Uiso   1.00
H6     H     0.53270   0.34850   0.05030   0.01267  Uiso   1.00
H7     H     0.51130   0.26850   0.11800   0.01267  Uiso   1.00
H8     H     0.41140   0.43780   0.28110   0.01267  Uiso   1.00
H9     H     0.44320   0.36140   0.36330   0.01267  Uiso   1.00
H10    H     0.42280   0.19480   0.16510   0.01267  Uiso   1.00
H11    H     0.63960   0.81060   0.31520   0.01267  Uiso   1.00
H12    H     0.69740   0.89350   0.53210   0.01267  Uiso   1.00
H13    H     0.71360   0.01200   0.49600   0.01267  Uiso   1.00
H14    H     0.80450   0.08820   0.47130   0.01267  Uiso   1.00
H15    H     0.87750   0.04230   0.36550   0.01267  Uiso   1.00
H16    H     0.77700   0.84760   0.30400   0.01267  Uiso   1.00
H17    H     0.15840   0.44870   0.16370   0.01267  Uiso   1.00
H18    H     0.20870   0.36460   0.94300   0.01267  Uiso   1.00
H19    H     0.24190   0.50300   0.96790   0.01267  Uiso   1.00
H20    H     0.33130   0.59540   0.99210   0.01267  Uiso   1.00
H21    H     0.39820   0.63020   0.10270   0.01267  Uiso   1.00
H22    H     0.29440   0.48280   0.16960   0.01267  Uiso   1.00
H23    H     0.24800   0.04770   0.31610   0.01267  Uiso   1.00
H24    H     0.18200   0.95290   0.33570   0.01267  Uiso   1.00
H25    H     0.24380   0.84210   0.33070   0.01267  Uiso   1.00
H26    H     0.43050   0.93330   0.28310   0.01267  Uiso   1.00
H27    H     0.47800   0.84670   0.36290   0.01267  Uiso   1.00
H28    H     0.31980   0.72270   0.23630   0.01267  Uiso   1.00
H29    H     0.00310   0.44250   0.15990   0.01267  Uiso   1.00
H30    H     0.96850   0.89790   0.10800   0.01267  Uiso   1.00
H31    H     0.00410   0.00980   0.28650   0.01267  Uiso   1.00
H32    H     0.02680   0.93870   0.29580   0.01267  Uiso   1.00
H33    H     0.00120   0.52690   0.39560   0.01267  Uiso   1.00
H34    H     0.03270   0.65150   0.44970   0.01267  Uiso   1.00
H35    H     0.01130   0.73150   0.38200   0.01267  Uiso   1.00
H36    H     0.91140   0.56220   0.21890   0.01267  Uiso   1.00
H37    H     0.94320   0.63860   0.13670   0.01267  Uiso   1.00
H38    H     0.92280   0.80520   0.33490   0.01267  Uiso   1.00
H39    H     0.13960   0.18940   0.18480   0.01267  Uiso   1.00
H40    H     0.19740   0.10650   0.96790   0.01267  Uiso   1.00
H41    H     0.21360   0.98800   0.00400   0.01267  Uiso   1.00
H42    H     0.30450   0.91180   0.02870   0.01267  Uiso   1.00
H43    H     0.37750   0.95770   0.13450   0.01267  Uiso   1.00
H44    H     0.27700   0.15240   0.19600   0.01267  Uiso   1.00
H45    H     0.65840   0.55130   0.33630   0.01267  Uiso   1.00
H46    H     0.70870   0.63540   0.55700   0.01267  Uiso   1.00
H47    H     0.74190   0.49700   0.53210   0.01267  Uiso   1.00
H48    H     0.83130   0.40460   0.50790   0.01267  Uiso   1.00
H49    H     0.89820   0.36980   0.39730   0.01267  Uiso   1.00
H50    H     0.79440   0.51720   0.33040   0.01267  Uiso   1.00
H51    H     0.74800   0.95230   0.18390   0.01267  Uiso   1.00
H52    H     0.68200   0.04710   0.16430   0.01267  Uiso   1.00
H53    H     0.74380   0.15790   0.16930   0.01267  Uiso   1.00
H54    H     0.93050   0.06670   0.21690   0.01267  Uiso   1.00
H55    H     0.97800   0.15330   0.13710   0.01267  Uiso   1.00
H56    H     0.81980   0.27730   0.26370   0.01267  Uiso   1.00
H57    H     0.49690   0.44250   0.65990   0.01267  Uiso   1.00
H58    H     0.53150   0.89790   0.60800   0.01267  Uiso   1.00
H59    H     0.49590   0.00980   0.78650   0.01267  Uiso   1.00
H60    H     0.47320   0.93870   0.79580   0.01267  Uiso   1.00
H61    H     0.49880   0.52690   0.89560   0.01267  Uiso   1.00
H62    H     0.46730   0.65150   0.94970   0.01267  Uiso   1.00
H63    H     0.48870   0.73150   0.88200   0.01267  Uiso   1.00
H64    H     0.58860   0.56220   0.71890   0.01267  Uiso   1.00
H65    H     0.55680   0.63860   0.63670   0.01267  Uiso   1.00
H66    H     0.57720   0.80520   0.83490   0.01267  Uiso   1.00
H67    H     0.36040   0.18940   0.68480   0.01267  Uiso   1.00
H68    H     0.30260   0.10650   0.46790   0.01267  Uiso   1.00
H69    H     0.28640   0.98800   0.50400   0.01267  Uiso   1.00
H70    H     0.19550   0.91180   0.52870   0.01267  Uiso   1.00
H71    H     0.12250   0.95770   0.63450   0.01267  Uiso   1.00
H72    H     0.22300   0.15240   0.69600   0.01267  Uiso   1.00
H73    H     0.84160   0.55130   0.83630   0.01267  Uiso   1.00
H74    H     0.79130   0.63540   0.05700   0.01267  Uiso   1.00
H75    H     0.75810   0.49700   0.03210   0.01267  Uiso   1.00
H76    H     0.66870   0.40460   0.00790   0.01267  Uiso   1.00
H77    H     0.60180   0.36980   0.89730   0.01267  Uiso   1.00
H78    H     0.70560   0.51720   0.83040   0.01267  Uiso   1.00
H79    H     0.75200   0.95230   0.68390   0.01267  Uiso   1.00
H80    H     0.81800   0.04710   0.66430   0.01267  Uiso   1.00
H81    H     0.75620   0.15790   0.66930   0.01267  Uiso   1.00
H82    H     0.56950   0.06670   0.71690   0.01267  Uiso   1.00
H83    H     0.52200   0.15330   0.63710   0.01267  Uiso   1.00
H84    H     0.68020   0.27730   0.76370   0.01267  Uiso   1.00
H85    H     0.99690   0.55750   0.84010   0.01267  Uiso   1.00
H86    H     0.03150   0.10210   0.89200   0.01267  Uiso   1.00
H87    H     0.99590   0.99020   0.71350   0.01267  Uiso   1.00
H88    H     0.97320   0.06130   0.70420   0.01267  Uiso   1.00
H89    H     0.99880   0.47310   0.60440   0.01267  Uiso   1.00
H90    H     0.96730   0.34850   0.55030   0.01267  Uiso   1.00
H91    H     0.98870   0.26850   0.61800   0.01267  Uiso   1.00
H92    H     0.08860   0.43780   0.78110   0.01267  Uiso   1.00
H93    H     0.05680   0.36140   0.86330   0.01267  Uiso   1.00
H94    H     0.07720   0.19480   0.66510   0.01267  Uiso   1.00
H95    H     0.86040   0.81060   0.81520   0.01267  Uiso   1.00
H96    H     0.80260   0.89350   0.03210   0.01267  Uiso   1.00
H97    H     0.78640   0.01200   0.99600   0.01267  Uiso   1.00
H98    H     0.69550   0.08820   0.97130   0.01267  Uiso   1.00
H99    H     0.62250   0.04230   0.86550   0.01267  Uiso   1.00
H100   H     0.72300   0.84760   0.80400   0.01267  Uiso   1.00
H101   H     0.34160   0.44870   0.66370   0.01267  Uiso   1.00
H102   H     0.29130   0.36460   0.44300   0.01267  Uiso   1.00
H103   H     0.25810   0.50300   0.46790   0.01267  Uiso   1.00
H104   H     0.16870   0.59540   0.49210   0.01267  Uiso   1.00
H105   H     0.10180   0.63020   0.60270   0.01267  Uiso   1.00
H106   H     0.20560   0.48280   0.66960   0.01267  Uiso   1.00
H107   H     0.25200   0.04770   0.81610   0.01267  Uiso   1.00
H108   H     0.31800   0.95290   0.83570   0.01267  Uiso   1.00
H109   H     0.25620   0.84210   0.83070   0.01267  Uiso   1.00
H110   H     0.06950   0.93330   0.78310   0.01267  Uiso   1.00
H111   H     0.02200   0.84670   0.86290   0.01267  Uiso   1.00
H112   H     0.18020   0.72270   0.73630   0.01267  Uiso   1.00
C1     C     0.48950   0.44040   0.13060   0.01267  Uiso   1.00
C2     C     0.50990   0.36590   0.09830   0.01267  Uiso   1.00
C3     C     0.49620   0.31850   0.13740   0.01267  Uiso   1.00
C4     C     0.45940   0.34590   0.20650   0.01267  Uiso   1.00
C5     C     0.43770   0.42030   0.23500   0.01267  Uiso   1.00
C6     C     0.43580   0.31390   0.32680   0.01267  Uiso   1.00
C7     C     0.42440   0.22220   0.21750   0.01267  Uiso   1.00
C8     C     0.64300   0.81900   0.36770   0.01267  Uiso   1.00
C9     C     0.67450   0.86460   0.48640   0.01267  Uiso   1.00
C10    C     0.73780   0.92190   0.40200   0.01267  Uiso   1.00
C11    C     0.74420   0.99420   0.45310   0.01267  Uiso   1.00
C12    C     0.79780   0.03910   0.43800   0.01267  Uiso   1.00
C13    C     0.84090   0.01150   0.37420   0.01267  Uiso   1.00
C14    C     0.78220   0.89660   0.33780   0.01267  Uiso   1.00
C15    C     0.15930   0.41820   0.11220   0.01267  Uiso   1.00
C16    C     0.18690   0.37160   0.99050   0.01267  Uiso   1.00
C17    C     0.25890   0.48460   0.06740   0.01267  Uiso   1.00
C18    C     0.26960   0.51720   0.01300   0.01267  Uiso   1.00
C19    C     0.32260   0.57170   0.02780   0.01267  Uiso   1.00
C20    C     0.36320   0.59210   0.09410   0.01267  Uiso   1.00
C21    C     0.30200   0.50610   0.13330   0.01267  Uiso   1.00
C22    C     0.27270   0.00360   0.31300   0.01267  Uiso   1.00
C23    C     0.23250   0.94720   0.32540   0.01267  Uiso   1.00
C24    C     0.26900   0.88150   0.32230   0.01267  Uiso   1.00
C25    C     0.34310   0.87710   0.30650   0.01267  Uiso   1.00
C26    C     0.37990   0.93700   0.29380   0.01267  Uiso   1.00
C27    C     0.44950   0.80580   0.33420   0.01267  Uiso   1.00
C28    C     0.36300   0.73740   0.26500   0.01267  Uiso   1.00
C29    C     0.98950   0.55960   0.36940   0.01267  Uiso   1.00
C30    C     0.00990   0.63410   0.40170   0.01267  Uiso   1.00
C31    C     0.99620   0.68150   0.36260   0.01267  Uiso   1.00
C32    C     0.95940   0.65410   0.29350   0.01267  Uiso   1.00
C33    C     0.93770   0.57970   0.26500   0.01267  Uiso   1.00
C34    C     0.93580   0.68610   0.17320   0.01267  Uiso   1.00
C35    C     0.92440   0.77780   0.28250   0.01267  Uiso   1.00
C36    C     0.14300   0.18100   0.13230   0.01267  Uiso   1.00
C37    C     0.17450   0.13540   0.01360   0.01267  Uiso   1.00
C38    C     0.23780   0.07810   0.09800   0.01267  Uiso   1.00
C39    C     0.24420   0.00580   0.04690   0.01267  Uiso   1.00
C40    C     0.29780   0.96090   0.06200   0.01267  Uiso   1.00
C41    C     0.34090   0.98850   0.12580   0.01267  Uiso   1.00
C42    C     0.28220   0.10340   0.16220   0.01267  Uiso   1.00
C43    C     0.65930   0.58180   0.38780   0.01267  Uiso   1.00
C44    C     0.68690   0.62840   0.50950   0.01267  Uiso   1.00
C45    C     0.75890   0.51540   0.43260   0.01267  Uiso   1.00
C46    C     0.76960   0.48280   0.48700   0.01267  Uiso   1.00
C47    C     0.82260   0.42830   0.47220   0.01267  Uiso   1.00
C48    C     0.86320   0.40790   0.40590   0.01267  Uiso   1.00
C49    C     0.80200   0.49390   0.36670   0.01267  Uiso   1.00
C50    C     0.77270   0.99640   0.18700   0.01267  Uiso   1.00
C51    C     0.73250   0.05280   0.17460   0.01267  Uiso   1.00
C52    C     0.76900   0.11850   0.17770   0.01267  Uiso   1.00
C53    C     0.84310   0.12290   0.19350   0.01267  Uiso   1.00
C54    C     0.87990   0.06300   0.20620   0.01267  Uiso   1.00
C55    C     0.94950   0.19420   0.16580   0.01267  Uiso   1.00
C56    C     0.86300   0.26260   0.23500   0.01267  Uiso   1.00
C57    C     0.51050   0.55960   0.86940   0.01267  Uiso   1.00
C58    C     0.49010   0.63410   0.90170   0.01267  Uiso   1.00
C59    C     0.50380   0.68150   0.86260   0.01267  Uiso   1.00
C60    C     0.54060   0.65410   0.79350   0.01267  Uiso   1.00
C61    C     0.56230   0.57970   0.76500   0.01267  Uiso   1.00
C62    C     0.56420   0.68610   0.67320   0.01267  Uiso   1.00
C63    C     0.57560   0.77780   0.78250   0.01267  Uiso   1.00
C64    C     0.35700   0.18100   0.63230   0.01267  Uiso   1.00
C65    C     0.32550   0.13540   0.51360   0.01267  Uiso   1.00
C66    C     0.26220   0.07810   0.59800   0.01267  Uiso   1.00
C67    C     0.25580   0.00580   0.54690   0.01267  Uiso   1.00
C68    C     0.20220   0.96090   0.56200   0.01267  Uiso   1.00
C69    C     0.15910   0.98850   0.62580   0.01267  Uiso   1.00
C70    C     0.21780   0.10340   0.66220   0.01267  Uiso   1.00
C71    C     0.84070   0.58180   0.88780   0.01267  Uiso   1.00
C72    C     0.81310   0.62840   0.00950   0.01267  Uiso   1.00
C73    C     0.74110   0.51540   0.93260   0.01267  Uiso   1.00
C74    C     0.73040   0.48280   0.98700   0.01267  Uiso   1.00
C75    C     0.67740   0.42830   0.97220   0.01267  Uiso   1.00
C76    C     0.63680   0.40790   0.90590   0.01267  Uiso   1.00
C77    C     0.69800   0.49390   0.86670   0.01267  Uiso   1.00
C78    C     0.72730   0.99640   0.68700   0.01267  Uiso   1.00
C79    C     0.76750   0.05280   0.67460   0.01267  Uiso   1.00
C80    C     0.73100   0.11850   0.67770   0.01267  Uiso   1.00
C81    C     0.65690   0.12290   0.69350   0.01267  Uiso   1.00
C82    C     0.62010   0.06300   0.70620   0.01267  Uiso   1.00
C83    C     0.55050   0.19420   0.66580   0.01267  Uiso   1.00
C84    C     0.63700   0.26260   0.73500   0.01267  Uiso   1.00
C85    C     0.01050   0.44040   0.63060   0.01267  Uiso   1.00
C86    C     0.99010   0.36590   0.59830   0.01267  Uiso   1.00
C87    C     0.00380   0.31850   0.63740   0.01267  Uiso   1.00
C88    C     0.04060   0.34590   0.70650   0.01267  Uiso   1.00
C89    C     0.06230   0.42030   0.73500   0.01267  Uiso   1.00
C90    C     0.06420   0.31390   0.82680   0.01267  Uiso   1.00
C91    C     0.07560   0.22220   0.71750   0.01267  Uiso   1.00
C92    C     0.85700   0.81900   0.86770   0.01267  Uiso   1.00
C93    C     0.82550   0.86460   0.98640   0.01267  Uiso   1.00
C94    C     0.76220   0.92190   0.90200   0.01267  Uiso   1.00
C95    C     0.75580   0.99420   0.95310   0.01267  Uiso   1.00
C96    C     0.70220   0.03910   0.93800   0.01267  Uiso   1.00
C97    C     0.65910   0.01150   0.87420   0.01267  Uiso   1.00
C98    C     0.71780   0.89660   0.83780   0.01267  Uiso   1.00
C99    C     0.34070   0.41820   0.61220   0.01267  Uiso   1.00
C100   C     0.31310   0.37160   0.49050   0.01267  Uiso   1.00
C101   C     0.24110   0.48460   0.56740   0.01267  Uiso   1.00
C102   C     0.23040   0.51720   0.51300   0.01267  Uiso   1.00
C103   C     0.17740   0.57170   0.52780   0.01267  Uiso   1.00
C104   C     0.13680   0.59210   0.59410   0.01267  Uiso   1.00
C105   C     0.19800   0.50610   0.63330   0.01267  Uiso   1.00
C106   C     0.22730   0.00360   0.81300   0.01267  Uiso   1.00
C107   C     0.26750   0.94720   0.82540   0.01267  Uiso   1.00
C108   C     0.23100   0.88150   0.82230   0.01267  Uiso   1.00
C109   C     0.15690   0.87710   0.80650   0.01267  Uiso   1.00
C110   C     0.12010   0.93700   0.79380   0.01267  Uiso   1.00
C111   C     0.05050   0.80580   0.83420   0.01267  Uiso   1.00
C112   C     0.13700   0.73740   0.76500   0.01267  Uiso   1.00
N1     N     0.45390   0.46760   0.19750   0.01267  Uiso   1.00
N2     N     0.44020   0.29630   0.24860   0.01267  Uiso   1.00
N3     N     0.41950   0.25360   0.34130   0.01267  Uiso   1.00
N4     N     0.41170   0.19540   0.27240   0.01267  Uiso   1.00
N5     N     0.60640   0.78190   0.40360   0.01267  Uiso   1.00
N6     N     0.62620   0.81160   0.47990   0.01267  Uiso   1.00
N7     N     0.68630   0.87110   0.41690   0.01267  Uiso   1.00
N8     N     0.83320   0.94220   0.32340   0.01267  Uiso   1.00
N9     N     0.11710   0.35900   0.08050   0.01267  Uiso   1.00
N10    N     0.13480   0.32900   0.00310   0.01267  Uiso   1.00
N11    N     0.20440   0.42760   0.05720   0.01267  Uiso   1.00
N12    N     0.35440   0.55940   0.14670   0.01267  Uiso   1.00
N13    N     0.34390   0.99910   0.29700   0.01267  Uiso   1.00
N14    N     0.38390   0.81050   0.30190   0.01267  Uiso   1.00
N15    N     0.46750   0.73510   0.31930   0.01267  Uiso   1.00
N16    N     0.41110   0.69180   0.27560   0.01267  Uiso   1.00
N17    N     0.95390   0.53240   0.30250   0.01267  Uiso   1.00
N18    N     0.94020   0.70370   0.25140   0.01267  Uiso   1.00
N19    N     0.91950   0.74640   0.15870   0.01267  Uiso   1.00
N20    N     0.91170   0.80460   0.22760   0.01267  Uiso   1.00
N21    N     0.10640   0.21810   0.09640   0.01267  Uiso   1.00
N22    N     0.12620   0.18840   0.02010   0.01267  Uiso   1.00
N23    N     0.18630   0.12890   0.08310   0.01267  Uiso   1.00
N24    N     0.33320   0.05780   0.17660   0.01267  Uiso   1.00
N25    N     0.61710   0.64100   0.41950   0.01267  Uiso   1.00
N26    N     0.63480   0.67100   0.49690   0.01267  Uiso   1.00
N27    N     0.70440   0.57240   0.44280   0.01267  Uiso   1.00
N28    N     0.85440   0.44060   0.35330   0.01267  Uiso   1.00
N29    N     0.84390   0.00090   0.20300   0.01267  Uiso   1.00
N30    N     0.88390   0.18950   0.19810   0.01267  Uiso   1.00
N31    N     0.96750   0.26490   0.18070   0.01267  Uiso   1.00
N32    N     0.91110   0.30820   0.22440   0.01267  Uiso   1.00
N33    N     0.54610   0.53240   0.80250   0.01267  Uiso   1.00
N34    N     0.55980   0.70370   0.75140   0.01267  Uiso   1.00
N35    N     0.58050   0.74640   0.65870   0.01267  Uiso   1.00
N36    N     0.58830   0.80460   0.72760   0.01267  Uiso   1.00
N37    N     0.39360   0.21810   0.59640   0.01267  Uiso   1.00
N38    N     0.37380   0.18840   0.52010   0.01267  Uiso   1.00
N39    N     0.31370   0.12890   0.58310   0.01267  Uiso   1.00
N40    N     0.16680   0.05780   0.67660   0.01267  Uiso   1.00
N41    N     0.88290   0.64100   0.91950   0.01267  Uiso   1.00
N42    N     0.86520   0.67100   0.99690   0.01267  Uiso   1.00
N43    N     0.79560   0.57240   0.94280   0.01267  Uiso   1.00
N44    N     0.64560   0.44060   0.85330   0.01267  Uiso   1.00
N45    N     0.65610   0.00090   0.70300   0.01267  Uiso   1.00
N46    N     0.61610   0.18950   0.69810   0.01267  Uiso   1.00
N47    N     0.53250   0.26490   0.68070   0.01267  Uiso   1.00
N48    N     0.58890   0.30820   0.72440   0.01267  Uiso   1.00
N49    N     0.04610   0.46760   0.69750   0.01267  Uiso   1.00
N50    N     0.05980   0.29630   0.74860   0.01267  Uiso   1.00
N51    N     0.08050   0.25360   0.84130   0.01267  Uiso   1.00
N52    N     0.08830   0.19540   0.77240   0.01267  Uiso   1.00
N53    N     0.89360   0.78190   0.90360   0.01267  Uiso   1.00
N54    N     0.87380   0.81160   0.97990   0.01267  Uiso   1.00
N55    N     0.81370   0.87110   0.91690   0.01267  Uiso   1.00
N56    N     0.66680   0.94220   0.82340   0.01267  Uiso   1.00
N57    N     0.38290   0.35900   0.58050   0.01267  Uiso   1.00
N58    N     0.36520   0.32900   0.50310   0.01267  Uiso   1.00
N59    N     0.29560   0.42760   0.55720   0.01267  Uiso   1.00
N60    N     0.14560   0.55940   0.64670   0.01267  Uiso   1.00
N61    N     0.15610   0.99910   0.79700   0.01267  Uiso   1.00
N62    N     0.11610   0.81050   0.80190   0.01267  Uiso   1.00
N63    N     0.03250   0.73510   0.81930   0.01267  Uiso   1.00
N64    N     0.08890   0.69180   0.77560   0.01267  Uiso   1.00
O1     O     0.49410   0.59620   0.32090   0.01267  Uiso   1.00
O2     O     0.43440   0.12960   0.37470   0.01267  Uiso   1.00
O3     O     0.49540   0.03600   0.21950   0.01267  Uiso   1.00
O4     O     0.99410   0.40380   0.17910   0.01267  Uiso   1.00
O5     O     0.93440   0.87040   0.12530   0.01267  Uiso   1.00
O6     O     0.99540   0.96400   0.28050   0.01267  Uiso   1.00
O7     O     0.50590   0.40380   0.67910   0.01267  Uiso   1.00
O8     O     0.56560   0.87040   0.62530   0.01267  Uiso   1.00
O9     O     0.50460   0.96400   0.78050   0.01267  Uiso   1.00
O10    O     0.00590   0.59620   0.82090   0.01267  Uiso   1.00
O11    O     0.06560   0.12960   0.87470   0.01267  Uiso   1.00
O12    O     0.00460   0.03600   0.71950   0.01267  Uiso   1.00
Si1    Si    0.55470   0.20190   0.90760   0.01267  Uiso   1.00
F1     F     0.52270   0.25160   0.86010   0.01267  Uiso   1.00
F2     F     0.63370   0.18140   0.86580   0.01267  Uiso   1.00
F3     F     0.51630   0.12460   0.85750   0.01267  Uiso   1.00
F4     F     0.57940   0.16180   0.97090   0.01267  Uiso   1.00
F5     F     0.47490   0.22160   0.95830   0.01267  Uiso   1.00
F6     F     0.60200   0.27140   0.96870   0.01267  Uiso   1.00
Si2    Si    0.72552   0.63068   0.21347   0.01267  Uiso   1.00
F7     F     0.76570   0.62730   0.29300   0.01267  Uiso   1.00
F8     F     0.80330   0.59720   0.16400   0.01267  Uiso   1.00
F9     F     0.69470   0.54280   0.19610   0.01267  Uiso   1.00
F10    F     0.68680   0.63010   0.13260   0.01267  Uiso   1.00
F11    F     0.75580   0.71790   0.23140   0.01267  Uiso   1.00
F12    F     0.64570   0.66170   0.26090   0.01267  Uiso   1.00
Si3    Si    0.05470   0.79810   0.59240   0.01267  Uiso   1.00
F13    F     0.02270   0.74840   0.63990   0.01267  Uiso   1.00
F14    F     0.13370   0.81860   0.63420   0.01267  Uiso   1.00
F15    F     0.01630   0.87540   0.64250   0.01267  Uiso   1.00
F16    F     0.07940   0.83820   0.52910   0.01267  Uiso   1.00
F17    F     0.97490   0.77840   0.54170   0.01267  Uiso   1.00
F18    F     0.10200   0.72860   0.53130   0.01267  Uiso   1.00
Si4    Si    0.22552   0.36932   0.28653   0.01267  Uiso   1.00
F19    F     0.26570   0.37270   0.20700   0.01267  Uiso   1.00
F20    F     0.30330   0.40280   0.33600   0.01267  Uiso   1.00
F21    F     0.19470   0.45720   0.30390   0.01267  Uiso   1.00
F22    F     0.18680   0.36990   0.36740   0.01267  Uiso   1.00
F23    F     0.25580   0.28210   0.26860   0.01267  Uiso   1.00
F24    F     0.14570   0.33830   0.23910   0.01267  Uiso   1.00
Si5    Si    0.44530   0.79810   0.09240   0.01267  Uiso   1.00
F25    F     0.47730   0.74840   0.13990   0.01267  Uiso   1.00
F26    F     0.36630   0.81860   0.13420   0.01267  Uiso   1.00
F27    F     0.48370   0.87540   0.14250   0.01267  Uiso   1.00
F28    F     0.42060   0.83820   0.02910   0.01267  Uiso   1.00
F29    F     0.52510   0.77840   0.04170   0.01267  Uiso   1.00
F30    F     0.39800   0.72860   0.03130   0.01267  Uiso   1.00
Si6    Si    0.27448   0.36932   0.78653   0.01267  Uiso   1.00
F31    F     0.23430   0.37270   0.70700   0.01267  Uiso   1.00
F32    F     0.19670   0.40280   0.83600   0.01267  Uiso   1.00
F33    F     0.30530   0.45720   0.80390   0.01267  Uiso   1.00
F34    F     0.31320   0.36990   0.86740   0.01267  Uiso   1.00
F35    F     0.24420   0.28210   0.76860   0.01267  Uiso   1.00
F36    F     0.35430   0.33830   0.73910   0.01267  Uiso   1.00
Si7    Si    0.94530   0.20190   0.40760   0.01267  Uiso   1.00
F37    F     0.97730   0.25160   0.36010   0.01267  Uiso   1.00
F38    F     0.86630   0.18140   0.36580   0.01267  Uiso   1.00
F39    F     0.98370   0.12460   0.35750   0.01267  Uiso   1.00
F40    F     0.92060   0.16180   0.47090   0.01267  Uiso   1.00
F41    F     0.02510   0.22160   0.45830   0.01267  Uiso   1.00
F42    F     0.89800   0.27140   0.46870   0.01267  Uiso   1.00
Si8    Si    0.77448   0.63068   0.71347   0.01267  Uiso   1.00
F43    F     0.73430   0.62730   0.79300   0.01267  Uiso   1.00
F44    F     0.69670   0.59720   0.66400   0.01267  Uiso   1.00
F45    F     0.80530   0.54280   0.69610   0.01267  Uiso   1.00
F46    F     0.81320   0.63010   0.63260   0.01267  Uiso   1.00
F47    F     0.74420   0.71790   0.73140   0.01267  Uiso   1.00
F48    F     0.85430   0.66170   0.76090   0.01267  Uiso   1.00
Si9    Si    0.50000   0.00000   0.50000   0.01267  Uiso   1.00
F49    F     0.48230   0.91940   0.51370   0.01267  Uiso   1.00
F50    F     0.58150   0.00620   0.54200   0.01267  Uiso   1.00
F51    F     0.46140   0.04830   0.58510   0.01267  Uiso   1.00
F52    F     0.51770   0.08060   0.48630   0.01267  Uiso   1.00
F53    F     0.41850   0.99380   0.45800   0.01267  Uiso   1.00
F54    F     0.53860   0.95170   0.41490   0.01267  Uiso   1.00
Si10   Si    0.00000   0.00000   0.00000   0.01267  Uiso   1.00
F55    F     0.98230   0.08060   0.98630   0.01267  Uiso   1.00
F56    F     0.08150   0.99380   0.95800   0.01267  Uiso   1.00
F57    F     0.96140   0.95170   0.91490   0.01267  Uiso   1.00
F58    F     0.01770   0.91940   0.01370   0.01267  Uiso   1.00
F59    F     0.91850   0.00620   0.04200   0.01267  Uiso   1.00
F60    F     0.03860   0.04830   0.08510   0.01267  Uiso   1.00
Si11   Si    0.00000   0.50000  -0.00000   0.01267  Uiso   1.00
F61    F     0.98900   0.49070   0.90600   0.01267  Uiso   1.00
F62    F     0.09040   0.49430   0.98750   0.01267  Uiso   1.00
F63    F     0.99440   0.40640   0.97760   0.01267  Uiso   1.00
F64    F     0.01100   0.50930   0.09400   0.01267  Uiso   1.00
F65    F     0.90960   0.50570   0.01250   0.01267  Uiso   1.00
F66    F     0.00560   0.59360   0.02240   0.01267  Uiso   1.00
Si12   Si    0.50000   0.50000   0.50000   0.01267  Uiso   1.00
F67    F     0.48900   0.50930   0.59400   0.01267  Uiso   1.00
F68    F     0.59040   0.50570   0.51250   0.01267  Uiso   1.00
F69    F     0.49440   0.59360   0.52240   0.01267  Uiso   1.00
F70    F     0.51100   0.49070   0.40600   0.01267  Uiso   1.00
F71    F     0.40960   0.49430   0.48750   0.01267  Uiso   1.00
F72    F     0.50560   0.40640   0.47760   0.01267  Uiso   1.00
