data_image0
_cell_length_a       24.26
_cell_length_b       24.415
_cell_length_c       24.531
_cell_angle_alpha    83.566
_cell_angle_beta     62.292
_cell_angle_gamma    61.717

_symmetry_space_group_name_H-M    "P 1"
_symmetry_int_tables_number       1

loop_
  _symmetry_equiv_pos_as_xyz
  'x, y, z'

loop_
  _atom_site_label
  _atom_site_occupancy
  _atom_site_fract_x
  _atom_site_fract_y
  _atom_site_fract_z
  _atom_site_thermal_displace_type
  _atom_site_B_iso_or_equiv
  _atom_site_type_symbol
  Yb1      1.0000 0.15864  0.27999  0.13753  Biso   1.000  Yb
  O1       1.0000 0.06360  0.27610  0.22470  Biso   1.000  O
  O2       1.0000 0.21930  0.26290  0.02510  Biso   1.000  O
  O3       1.0000 0.21350  0.20430  0.19120  Biso   1.000  O
  O4       1.0000 0.13100  0.38050  0.11060  Biso   1.000  O
  O5       1.0000 0.26740  0.27630  0.10550  Biso   1.000  O
  O6       1.0000 0.06480  0.30900  0.11380  Biso   1.000  O
  O7       1.0000 0.13310  0.34270  0.22160  Biso   1.000  O
  O8       1.0000 0.17730  0.18260  0.10720  Biso   1.000  O
  N1       1.0000 0.04290  0.27840  0.28550  Biso   1.000  N
  N2       1.0000 0.23500  0.21530  0.98990  Biso   1.000  N
  N3       1.0000 0.26020  0.20350  0.20630  Biso   1.000  N
  N4       1.0000 0.09450  0.41260  0.08010  Biso   1.000  N
  N5       1.0000 0.31200  0.28570  0.05250  Biso   1.000  N
  N6       1.0000 0.02030  0.28630  0.13570  Biso   1.000  N
  N7       1.0000 0.14530  0.39060  0.21790  Biso   1.000  N
  N8       1.0000 0.19130  0.13110  0.13430  Biso   1.000  N
  C1       1.0000 0.07560  0.22740  0.30890  Biso   1.000  C
  C2       1.0000 0.98700  0.33130  0.32370  Biso   1.000  C
  C3       1.0000 0.18690  0.21940  0.97470  Biso   1.000  C
  C4       1.0000 0.29690  0.16460  0.97080  Biso   1.000  C
  C5       1.0000 0.23630  0.23750  0.26020  Biso   1.000  C
  C6       1.0000 0.32950  0.16730  0.16920  Biso   1.000  C
  C7       1.0000 0.12690  0.40240  0.01800  Biso   1.000  C
  C8       1.0000 0.02710  0.45450  0.11100  Biso   1.000  C
  C9       1.0000 0.37590  0.23610  0.01500  Biso   1.000  C
  C10      1.0000 0.29420  0.34580  0.03800  Biso   1.000  C
  C11      1.0000 0.03740  0.23210  0.10950  Biso   1.000  C
  C12      1.0000 0.95610  0.31900  0.18700  Biso   1.000  C
  C13      1.0000 0.09230  0.44940  0.23250  Biso   1.000  C
  C14      1.0000 0.21160  0.37970  0.20210  Biso   1.000  C
  C15      1.0000 0.13790  0.12480  0.18200  Biso   1.000  C
  C16      1.0000 0.25820  0.08580  0.11320  Biso   1.000  C
  H1       1.0000 0.11770  0.19170  0.28160  Biso   1.000  H
  C17      1.0000 0.04780  0.22730  0.37180  Biso   1.000  C
  C18      1.0000 0.96020  0.33220  0.38580  Biso   1.000  C
  H2       1.0000 0.96640  0.36790  0.30690  Biso   1.000  H
  H3       1.0000 0.14310  0.25710  0.98730  Biso   1.000  H
  C19      1.0000 0.20100  0.16920  0.94120  Biso   1.000  C
  C20      1.0000 0.31410  0.11220  0.93540  Biso   1.000  C
  H4       1.0000 0.33070  0.16330  0.98100  Biso   1.000  H
  H5       1.0000 0.18680  0.26080  0.28750  Biso   1.000  H
  C21      1.0000 0.28380  0.23770  0.27440  Biso   1.000  C
  C22      1.0000 0.37790  0.16670  0.18320  Biso   1.000  C
  H6       1.0000 0.34500  0.14200  0.13300  Biso   1.000  H
  C23      1.0000 0.08980  0.43700  0.98580  Biso   1.000  C
  H7       1.0000 0.17530  0.37140  0.99580  Biso   1.000  H
  C24      1.0000 0.98910  0.48830  0.08090  Biso   1.000  C
  H8       1.0000 0.00460  0.46130  0.15520  Biso   1.000  H
  C25      1.0000 0.42260  0.24560  0.96210  Biso   1.000  C
  H9       1.0000 0.38780  0.19490  0.02600  Biso   1.000  H
  H10      1.0000 0.24970  0.38020  0.06450  Biso   1.000  H
  C26      1.0000 0.34140  0.35520  0.98520  Biso   1.000  C
  C27      1.0000 0.99190  0.20730  0.13300  Biso   1.000  C
  H11      1.0000 0.08190  0.21010  0.07360  Biso   1.000  H
  C28      1.0000 0.90840  0.29540  0.21200  Biso   1.000  C
  H12      1.0000 0.94400  0.35780  0.20550  Biso   1.000  H
  H13      1.0000 0.04590  0.45630  0.24460  Biso   1.000  H
  C29      1.0000 0.10290  0.49990  0.23060  Biso   1.000  C
  C30      1.0000 0.22480  0.42900  0.19910  Biso   1.000  C
  H14      1.0000 0.24900  0.33780  0.19300  Biso   1.000  H
  C31      1.0000 0.15310  0.07060  0.21010  Biso   1.000  C
  H15      1.0000 0.09020  0.15710  0.19640  Biso   1.000  H
  C32      1.0000 0.27510  0.03180  0.13960  Biso   1.000  C
  H16      1.0000 0.29500  0.09120  0.07920  Biso   1.000  H
  H17      1.0000 0.07040  0.19100  0.38780  Biso   1.000  H
  C33      1.0000 0.98750  0.27910  0.41240  Biso   1.000  C
  H18      1.0000 0.92160  0.37010  0.41220  Biso   1.000  H
  H19      1.0000 0.16630  0.17240  0.93120  Biso   1.000  H
  C34      1.0000 0.26370  0.11460  0.92140  Biso   1.000  C
  H20      1.0000 0.35930  0.07590  0.92130  Biso   1.000  H
  C35      1.0000 0.35660  0.20320  0.23640  Biso   1.000  C
  H21      1.0000 0.26690  0.26230  0.31160  Biso   1.000  H
  H22      1.0000 0.42710  0.14110  0.15630  Biso   1.000  H
  C36      1.0000 0.02050  0.48140  0.01630  Biso   1.000  C
  H23      1.0000 0.11340  0.42940  0.94160  Biso   1.000  H
  H24      1.0000 0.94010  0.51730  0.10440  Biso   1.000  H
  H25      1.0000 0.46610  0.21040  0.93570  Biso   1.000  H
  C37      1.0000 0.40890  0.30460  0.94540  Biso   1.000  C
  H26      1.0000 0.32910  0.39650  0.97460  Biso   1.000  H
  H27      1.0000 0.00550  0.16840  0.11330  Biso   1.000  H
  C38      1.0000 0.92680  0.23800  0.18480  Biso   1.000  C
  H28      1.0000 0.86360  0.31820  0.24740  Biso   1.000  H
  C39      1.0000 0.17080  0.49090  0.21310  Biso   1.000  C
  H29      1.0000 0.06420  0.54120  0.24100  Biso   1.000  H
  H30      1.0000 0.27150  0.42080  0.18740  Biso   1.000  H
  H31      1.0000 0.11540  0.06670  0.24440  Biso   1.000  H
  C40      1.0000 0.22090  0.02290  0.18950  Biso   1.000  C
  H32      1.0000 0.32330  0.00030  0.12440  Biso   1.000  H
  C41      1.0000 0.95450  0.27620  0.47960  Biso   1.000  C
  C42      1.0000 0.27920  0.05630  0.88870  Biso   1.000  C
  C43      1.0000 0.40890  0.20680  0.24930  Biso   1.000  C
  C44      1.0000 0.46200  0.31620  0.89020  Biso   1.000  C
  C45      1.0000 0.87890  0.20900  0.21240  Biso   1.000  C
  C46      1.0000 0.18640  0.54280  0.21020  Biso   1.000  C
  C47      1.0000 0.23780  0.96380  0.21720  Biso   1.000  C
  C48      1.0000 0.96080  0.21990  0.50190  Biso   1.000  C
  C49      1.0000 0.91420  0.32950  0.52450  Biso   1.000  C
  C50      1.0000 0.23140  0.03560  0.90930  Biso   1.000  C
  C51      1.0000 0.34450  0.02230  0.83760  Biso   1.000  C
  C52      1.0000 0.47600  0.19080  0.20170  Biso   1.000  C
  C53      1.0000 0.39430  0.22470  0.30740  Biso   1.000  C
  C54      1.0000 0.47360  0.36620  0.89500  Biso   1.000  C
  C55      1.0000 0.50350  0.27780  0.83350  Biso   1.000  C
  C56      1.0000 0.81660  0.23460  0.26880  Biso   1.000  C
  C57      1.0000 0.89710  0.15360  0.18260  Biso   1.000  C
  C58      1.0000 0.13460  0.60140  0.24650  Biso   1.000  C
  C59      1.0000 0.25240  0.53700  0.17110  Biso   1.000  C
  C60      1.0000 0.19260  0.96100  0.27780  Biso   1.000  C
  C61      1.0000 0.29850  0.90760  0.18340  Biso   1.000  C
  H33      1.0000 0.98770  0.18260  0.47320  Biso   1.000  H
  C62      1.0000 0.92930  0.21640  0.56400  Biso   1.000  C
  C63      1.0000 0.88330  0.32480  0.58680  Biso   1.000  C
  H34      1.0000 0.90820  0.36920  0.51160  Biso   1.000  H
  H35      1.0000 0.18580  0.05950  0.94350  Biso   1.000  H
  C64      1.0000 0.24760  0.97960  0.88130  Biso   1.000  C
  H36      1.0000 0.37870  0.03650  0.82200  Biso   1.000  H
  C65      1.0000 0.35970  0.96740  0.80920  Biso   1.000  C
  C66      1.0000 0.52400  0.19710  0.21220  Biso   1.000  C
  H37      1.0000 0.48940  0.17540  0.16120  Biso   1.000  H
  C67      1.0000 0.44280  0.23010  0.31680  Biso   1.000  C
  H38      1.0000 0.34960  0.23360  0.34190  Biso   1.000  H
  H39      1.0000 0.44390  0.39530  0.93210  Biso   1.000  H
  C68      1.0000 0.52750  0.37330  0.84660  Biso   1.000  C
  H40      1.0000 0.49560  0.24470  0.82800  Biso   1.000  H
  C69      1.0000 0.55570  0.28720  0.78540  Biso   1.000  C
  H41      1.0000 0.80250  0.27250  0.29060  Biso   1.000  H
  C70      1.0000 0.77550  0.20550  0.29280  Biso   1.000  C
  H42      1.0000 0.93950  0.13470  0.14430  Biso   1.000  H
  C71      1.0000 0.85430  0.12540  0.20800  Biso   1.000  C
  C72      1.0000 0.14980  0.64890  0.24310  Biso   1.000  C
  H43      1.0000 0.08790  0.60810  0.27400  Biso   1.000  H
  H44      1.0000 0.28900  0.49850  0.14480  Biso   1.000  H
  C73      1.0000 0.26660  0.58530  0.16910  Biso   1.000  C
  H45      1.0000 0.15100  0.99820  0.30300  Biso   1.000  H
  C74      1.0000 0.20780  0.90530  0.30100  Biso   1.000  C
  C75      1.0000 0.31210  0.85320  0.20740  Biso   1.000  C
  H46      1.0000 0.33120  0.90770  0.14240  Biso   1.000  H
  N9       1.0000 0.89000  0.26910  0.60570  Biso   1.000  N
  H47      1.0000 0.93480  0.17710  0.57800  Biso   1.000  H
  H48      1.0000 0.85710  0.36110  0.61670  Biso   1.000  H
  N10      1.0000 0.31200  0.94630  0.83230  Biso   1.000  N
  H49      1.0000 0.21370  0.96510  0.89660  Biso   1.000  H
  H50      1.0000 0.40400  0.94460  0.77320  Biso   1.000  H
  N11      1.0000 0.50680  0.21610  0.26960  Biso   1.000  N
  H51      1.0000 0.56940  0.18800  0.17870  Biso   1.000  H
  H52      1.0000 0.43100  0.24400  0.35730  Biso   1.000  H
  N12      1.0000 0.56810  0.33360  0.79290  Biso   1.000  N
  H53      1.0000 0.53630  0.40620  0.85070  Biso   1.000  H
  H54      1.0000 0.58350  0.26100  0.74660  Biso   1.000  H
  N13      1.0000 0.79540  0.15100  0.26240  Biso   1.000  N
  H55      1.0000 0.73280  0.22370  0.33100  Biso   1.000  H
  H56      1.0000 0.86690  0.08790  0.18660  Biso   1.000  H
  N14      1.0000 0.21540  0.64100  0.20500  Biso   1.000  N
  H57      1.0000 0.11360  0.68830  0.26800  Biso   1.000  H
  H58      1.0000 0.31290  0.57950  0.14210  Biso   1.000  H
  H59      1.0000 0.17650  0.90400  0.34230  Biso   1.000  H
  N15      1.0000 0.26700  0.85160  0.26600  Biso   1.000  N
  H60      1.0000 0.35370  0.81560  0.18300  Biso   1.000  H
  O9       1.0000 0.86040  0.26410  0.66590  Biso   1.000  O
  O10      1.0000 0.32840  0.89200  0.80770  Biso   1.000  O
  O11      1.0000 0.55250  0.22290  0.27990  Biso   1.000  O
  O12      1.0000 0.62270  0.33950  0.74790  Biso   1.000  O
  O13      1.0000 0.75700  0.12180  0.28700  Biso   1.000  O
  O14      1.0000 0.23120  0.68670  0.20080  Biso   1.000  O
  O15      1.0000 0.27950  0.79770  0.28910  Biso   1.000  O
  Yb2      1.0000 0.74312  0.28067  0.73040  Biso   1.000  Yb
  Yb3      1.0000 0.34818  0.85676  0.71125  Biso   1.000  Yb
  O16      1.0000 0.75490  0.28720  0.63010  Biso   1.000  O
  O17      1.0000 0.82100  0.18370  0.74610  Biso   1.000  O
  O18      1.0000 0.66990  0.27110  0.83180  Biso   1.000  O
  O19      1.0000 0.72450  0.38270  0.71360  Biso   1.000  O
  O20      1.0000 0.63230  0.11960  0.39070  Biso   1.000  O
  O21      1.0000 0.56600  0.11000  0.32500  Biso   1.000  O
  O22      1.0000 0.70050  0.20040  0.21400  Biso   1.000  O
  O23      1.0000 0.61310  0.23650  0.34950  Biso   1.000  O
  O24      1.0000 0.71930  0.03130  0.27130  Biso   1.000  O
  N16      1.0000 0.73340  0.26350  0.60270  Biso   1.000  N
  N17      1.0000 0.88580  0.16040  0.73990  Biso   1.000  N
  N18      1.0000 0.67830  0.26230  0.88250  Biso   1.000  N
  N19      1.0000 0.67490  0.42980  0.70140  Biso   1.000  N
  N20      1.0000 0.64630  0.14220  0.42740  Biso   1.000  N
  N21      1.0000 0.54890  0.07950  0.37330  Biso   1.000  N
  C76      1.0000 0.77840  0.20660  0.56850  Biso   1.000  C
  C77      1.0000 0.66810  0.29550  0.60900  Biso   1.000  C
  C78      1.0000 0.89530  0.18220  0.78130  Biso   1.000  C
  C79      1.0000 0.93990  0.11450  0.69330  Biso   1.000  C
  C80      1.0000 0.63930  0.31020  0.92850  Biso   1.000  C
  C81      1.0000 0.72380  0.20620  0.88830  Biso   1.000  C
  C82      1.0000 0.61410  0.47070  0.74940  Biso   1.000  C
  C83      1.0000 0.68670  0.43750  0.64280  Biso   1.000  C
  C84      1.0000 0.59380  0.18860  0.47230  Biso   1.000  C
  C85      1.0000 0.71270  0.11700  0.41840  Biso   1.000  C
  C86      1.0000 0.49570  0.11080  0.42810  Biso   1.000  C
  C87      1.0000 0.58590  0.01770  0.36690  Biso   1.000  C
  H61      1.0000 0.82390  0.18330  0.56650  Biso   1.000  H
  C88      1.0000 0.76040  0.18160  0.53690  Biso   1.000  C
  H62      1.0000 0.63580  0.33520  0.63440  Biso   1.000  H
  C89      1.0000 0.64730  0.27070  0.57800  Biso   1.000  C
  C90      1.0000 0.96160  0.15350  0.77820  Biso   1.000  C
  H63      1.0000 0.85680  0.21700  0.81220  Biso   1.000  H
  C91      1.0000 0.00890  0.08590  0.68750  Biso   1.000  C
  H64      1.0000 0.93200  0.10100  0.66400  Biso   1.000  H
  H65      1.0000 0.60830  0.35030  0.92340  Biso   1.000  H
  C92      1.0000 0.64370  0.30200  0.98240  Biso   1.000  C
  C93      1.0000 0.73010  0.19620  0.94110  Biso   1.000  C
  H66      1.0000 0.75200  0.17270  0.85500  Biso   1.000  H
  C94      1.0000 0.56480  0.52140  0.73900  Biso   1.000  C
  H67      1.0000 0.60570  0.46400  0.79080  Biso   1.000  H
  C95      1.0000 0.63860  0.48760  0.63090  Biso   1.000  C
  H68      1.0000 0.72920  0.40760  0.60930  Biso   1.000  H
  H69      1.0000 0.54670  0.20500  0.47890  Biso   1.000  H
  C96      1.0000 0.60670  0.21410  0.51040  Biso   1.000  C
  H70      1.0000 0.74980  0.08300  0.38610  Biso   1.000  H
  C97      1.0000 0.72770  0.13950  0.45470  Biso   1.000  C
  H71      1.0000 0.47070  0.15530  0.43270  Biso   1.000  H
  C98      1.0000 0.47540  0.08140  0.47800  Biso   1.000  C
  C99      1.0000 0.56760  0.98550  0.41600  Biso   1.000  C
  H72      1.0000 0.62550  0.99530  0.32790  Biso   1.000  H
  C100     1.0000 0.69460  0.21370  0.53970  Biso   1.000  C
  H73      1.0000 0.79360  0.14150  0.51250  Biso   1.000  H
  H74      1.0000 0.60030  0.29310  0.58330  Biso   1.000  H
  C101     1.0000 0.01960  0.10450  0.73080  Biso   1.000  C
  H75      1.0000 0.96780  0.16730  0.80870  Biso   1.000  H
  H76      1.0000 0.04760  0.05410  0.65370  Biso   1.000  H
  C102     1.0000 0.69040  0.24400  0.98990  Biso   1.000  C
  H77      1.0000 0.61470  0.33610  0.01510  Biso   1.000  H
  H78      1.0000 0.76250  0.15590  0.94450  Biso   1.000  H
  H79      1.0000 0.52180  0.54970  0.77320  Biso   1.000  H
  C103     1.0000 0.57660  0.53220  0.67860  Biso   1.000  C
  H80      1.0000 0.64740  0.49220  0.58910  Biso   1.000  H
  C104     1.0000 0.67580  0.18930  0.50230  Biso   1.000  C
  H81      1.0000 0.56850  0.24840  0.54200  Biso   1.000  H
  H82      1.0000 0.77530  0.12060  0.44740  Biso   1.000  H
  C105     1.0000 0.50940  0.01760  0.47360  Biso   1.000  C
  H83      1.0000 0.43690  0.10570  0.51670  Biso   1.000  H
  H84      1.0000 0.59470  0.94110  0.41080  Biso   1.000  H
  C106     1.0000 0.08880  0.07150  0.72980  Biso   1.000  C
  C107     1.0000 0.69370  0.23370  0.05000  Biso   1.000  C
  C108     1.0000 0.52570  0.59090  0.66730  Biso   1.000  C
  C109     1.0000 0.09300  0.05520  0.78490  Biso   1.000  C
  C110     1.0000 0.15180  0.05480  0.67500  Biso   1.000  C
  C111     1.0000 0.63760  0.27170  0.10530  Biso   1.000  C
  C112     1.0000 0.75300  0.18560  0.05190  Biso   1.000  C
  C113     1.0000 0.45170  0.61680  0.70510  Biso   1.000  C
  C114     1.0000 0.54920  0.62400  0.62110  Biso   1.000  C
  H85      1.0000 0.05080  0.06800  0.82350  Biso   1.000  H
  C115     1.0000 0.15850  0.02040  0.78300  Biso   1.000  C
  C116     1.0000 0.21620  0.02140  0.67530  Biso   1.000  C
  H86      1.0000 0.15050  0.06630  0.63720  Biso   1.000  H
  H87      1.0000 0.59660  0.30620  0.10530  Biso   1.000  H
  C117     1.0000 0.64070  0.26000  0.15890  Biso   1.000  C
  C118     1.0000 0.75460  0.17570  0.10750  Biso   1.000  C
  H88      1.0000 0.79280  0.15930  0.01470  Biso   1.000  H
  C119     1.0000 0.40620  0.67310  0.69760  Biso   1.000  C
  H89      1.0000 0.43350  0.59430  0.73630  Biso   1.000  H
  C120     1.0000 0.50190  0.68160  0.61610  Biso   1.000  C
  H90      1.0000 0.59830  0.60680  0.59260  Biso   1.000  H
  N22      1.0000 0.21710  0.00350  0.72950  Biso   1.000  N
  H91      1.0000 0.16130  0.00850  0.82020  Biso   1.000  H
  H92      1.0000 0.25920  0.01110  0.63810  Biso   1.000  H
  N23      1.0000 0.69850  0.21180  0.16060  Biso   1.000  N
  H93      1.0000 0.60160  0.28620  0.19640  Biso   1.000  H
  H94      1.0000 0.79600  0.14290  0.10830  Biso   1.000  H
  H95      1.0000 0.35650  0.68950  0.72300  Biso   1.000  H
  N24      1.0000 0.43160  0.70590  0.65390  Biso   1.000  N
  H96      1.0000 0.51900  0.70490  0.58530  Biso   1.000  H
  Yb4      1.0000 0.84136  0.72001  0.86247  Biso   1.000  Yb
  O25      1.0000 0.93640  0.72390  0.77530  Biso   1.000  O
  O26      1.0000 0.78070  0.73710  0.97490  Biso   1.000  O
  O27      1.0000 0.78650  0.79570  0.80880  Biso   1.000  O
  O28      1.0000 0.86900  0.61950  0.88940  Biso   1.000  O
  O29      1.0000 0.73260  0.72370  0.89450  Biso   1.000  O
  O30      1.0000 0.93520  0.69100  0.88620  Biso   1.000  O
  O31      1.0000 0.86690  0.65730  0.77840  Biso   1.000  O
  O32      1.0000 0.82270  0.81740  0.89280  Biso   1.000  O
  N25      1.0000 0.95710  0.72160  0.71450  Biso   1.000  N
  N26      1.0000 0.76500  0.78470  0.01010  Biso   1.000  N
  N27      1.0000 0.73980  0.79650  0.79370  Biso   1.000  N
  N28      1.0000 0.90550  0.58740  0.91990  Biso   1.000  N
  N29      1.0000 0.68800  0.71430  0.94750  Biso   1.000  N
  N30      1.0000 0.97970  0.71370  0.86430  Biso   1.000  N
  N31      1.0000 0.85470  0.60940  0.78210  Biso   1.000  N
  N32      1.0000 0.80870  0.86890  0.86570  Biso   1.000  N
  C121     1.0000 0.92440  0.77260  0.69110  Biso   1.000  C
  C122     1.0000 0.01300  0.66870  0.67630  Biso   1.000  C
  C123     1.0000 0.81310  0.78060  0.02530  Biso   1.000  C
  C124     1.0000 0.70310  0.83540  0.02920  Biso   1.000  C
  C125     1.0000 0.76370  0.76250  0.73980  Biso   1.000  C
  C126     1.0000 0.67050  0.83270  0.83080  Biso   1.000  C
  C127     1.0000 0.87310  0.59760  0.98200  Biso   1.000  C
  C128     1.0000 0.97290  0.54550  0.88900  Biso   1.000  C
  C129     1.0000 0.62410  0.76390  0.98500  Biso   1.000  C
  C130     1.0000 0.70580  0.65420  0.96200  Biso   1.000  C
  C131     1.0000 0.96260  0.76790  0.89050  Biso   1.000  C
  C132     1.0000 0.04390  0.68100  0.81300  Biso   1.000  C
  C133     1.0000 0.90770  0.55060  0.76750  Biso   1.000  C
  C134     1.0000 0.78840  0.62030  0.79790  Biso   1.000  C
  C135     1.0000 0.86210  0.87520  0.81800  Biso   1.000  C
  C136     1.0000 0.74180  0.91420  0.88680  Biso   1.000  C
  H97      1.0000 0.88230  0.80830  0.71840  Biso   1.000  H
  C137     1.0000 0.95220  0.77270  0.62820  Biso   1.000  C
  C138     1.0000 0.03980  0.66780  0.61420  Biso   1.000  C
  H98      1.0000 0.03360  0.63210  0.69310  Biso   1.000  H
  H99      1.0000 0.85690  0.74290  0.01270  Biso   1.000  H
  C139     1.0000 0.79900  0.83080  0.05880  Biso   1.000  C
  C140     1.0000 0.68590  0.88780  0.06460  Biso   1.000  C
  H100     1.0000 0.66930  0.83670  0.01900  Biso   1.000  H
  H101     1.0000 0.81320  0.73920  0.71250  Biso   1.000  H
  C141     1.0000 0.71620  0.76230  0.72560  Biso   1.000  C
  C142     1.0000 0.62210  0.83330  0.81680  Biso   1.000  C
  H102     1.0000 0.65500  0.85800  0.86700  Biso   1.000  H
  C143     1.0000 0.91020  0.56300  0.01420  Biso   1.000  C
  H103     1.0000 0.82470  0.62860  0.00420  Biso   1.000  H
  C144     1.0000 0.01090  0.51170  0.91910  Biso   1.000  C
  H104     1.0000 0.99540  0.53870  0.84480  Biso   1.000  H
  C145     1.0000 0.57740  0.75440  0.03790  Biso   1.000  C
  H105     1.0000 0.61220  0.80510  0.97400  Biso   1.000  H
  H106     1.0000 0.75030  0.61980  0.93550  Biso   1.000  H
  C146     1.0000 0.65860  0.64480  0.01480  Biso   1.000  C
  C147     1.0000 0.00810  0.79270  0.86700  Biso   1.000  C
  H107     1.0000 0.91810  0.78990  0.92640  Biso   1.000  H
  C148     1.0000 0.09160  0.70460  0.78800  Biso   1.000  C
  H108     1.0000 0.05600  0.64220  0.79450  Biso   1.000  H
  H109     1.0000 0.95410  0.54370  0.75540  Biso   1.000  H
  C149     1.0000 0.89710  0.50010  0.76940  Biso   1.000  C
  C150     1.0000 0.77520  0.57100  0.80090  Biso   1.000  C
  H110     1.0000 0.75100  0.66220  0.80700  Biso   1.000  H
  C151     1.0000 0.84690  0.92940  0.78990  Biso   1.000  C
  H111     1.0000 0.90980  0.84290  0.80360  Biso   1.000  H
  C152     1.0000 0.72490  0.96820  0.86040  Biso   1.000  C
  H112     1.0000 0.70500  0.90880  0.92080  Biso   1.000  H
  H113     1.0000 0.92960  0.80900  0.61220  Biso   1.000  H
  C153     1.0000 0.01250  0.72090  0.58760  Biso   1.000  C
  H114     1.0000 0.07840  0.62990  0.58780  Biso   1.000  H
  H115     1.0000 0.83370  0.82760  0.06880  Biso   1.000  H
  C154     1.0000 0.73630  0.88540  0.07860  Biso   1.000  C
  H116     1.0000 0.64070  0.92410  0.07870  Biso   1.000  H
  C155     1.0000 0.64340  0.79680  0.76360  Biso   1.000  C
  H117     1.0000 0.73310  0.73770  0.68840  Biso   1.000  H
  H118     1.0000 0.57290  0.85890  0.84370  Biso   1.000  H
  C156     1.0000 0.97950  0.51860  0.98370  Biso   1.000  C
  H119     1.0000 0.88660  0.57060  0.05840  Biso   1.000  H
  H120     1.0000 0.05990  0.48270  0.89560  Biso   1.000  H
  H121     1.0000 0.53390  0.78960  0.06430  Biso   1.000  H
  C157     1.0000 0.59110  0.69540  0.05460  Biso   1.000  C
  H122     1.0000 0.67090  0.60350  0.02540  Biso   1.000  H
  H123     1.0000 0.99450  0.83160  0.88670  Biso   1.000  H
  C158     1.0000 0.07320  0.76200  0.81520  Biso   1.000  C
  H124     1.0000 0.13640  0.68180  0.75260  Biso   1.000  H
  C159     1.0000 0.82920  0.50910  0.78690  Biso   1.000  C
  H125     1.0000 0.93580  0.45880  0.75900  Biso   1.000  H
  H126     1.0000 0.72850  0.57920  0.81260  Biso   1.000  H
  H127     1.0000 0.88460  0.93330  0.75560  Biso   1.000  H
  C160     1.0000 0.77910  0.97710  0.81050  Biso   1.000  C
  H128     1.0000 0.67670  0.99970  0.87560  Biso   1.000  H
  C161     1.0000 0.04550  0.72380  0.52040  Biso   1.000  C
  C162     1.0000 0.72080  0.94370  0.11130  Biso   1.000  C
  C163     1.0000 0.59110  0.79320  0.75070  Biso   1.000  C
  C164     1.0000 0.53800  0.68380  0.10980  Biso   1.000  C
  C165     1.0000 0.12110  0.79100  0.78760  Biso   1.000  C
  C166     1.0000 0.81360  0.45720  0.78980  Biso   1.000  C
  C167     1.0000 0.76220  0.03620  0.78280  Biso   1.000  C
  C168     1.0000 0.03920  0.78010  0.49810  Biso   1.000  C
  C169     1.0000 0.08580  0.67050  0.47550  Biso   1.000  C
  C170     1.0000 0.76860  0.96440  0.09070  Biso   1.000  C
  C171     1.0000 0.65550  0.97770  0.16240  Biso   1.000  C
  C172     1.0000 0.52400  0.80920  0.79830  Biso   1.000  C
  C173     1.0000 0.60570  0.77530  0.69260  Biso   1.000  C
  C174     1.0000 0.52640  0.63380  0.10500  Biso   1.000  C
  C175     1.0000 0.49650  0.72220  0.16650  Biso   1.000  C
  C176     1.0000 0.18340  0.76540  0.73120  Biso   1.000  C
  C177     1.0000 0.10290  0.84640  0.81740  Biso   1.000  C
  C178     1.0000 0.86540  0.39860  0.75350  Biso   1.000  C
  C179     1.0000 0.74760  0.46300  0.82890  Biso   1.000  C
  C180     1.0000 0.80740  0.03900  0.72220  Biso   1.000  C
  C181     1.0000 0.70150  0.09240  0.81660  Biso   1.000  C
  H129     1.0000 0.01230  0.81740  0.52680  Biso   1.000  H
  C182     1.0000 0.07070  0.78360  0.43600  Biso   1.000  C
  C183     1.0000 0.11670  0.67520  0.41320  Biso   1.000  C
  H130     1.0000 0.09180  0.63080  0.48840  Biso   1.000  H
  H131     1.0000 0.81420  0.94050  0.05650  Biso   1.000  H
  C184     1.0000 0.75240  0.02040  0.11870  Biso   1.000  C
  H132     1.0000 0.62130  0.96350  0.17800  Biso   1.000  H
  C185     1.0000 0.64030  0.03260  0.19080  Biso   1.000  C
  C186     1.0000 0.47600  0.80290  0.78780  Biso   1.000  C
  H133     1.0000 0.51060  0.82460  0.83880  Biso   1.000  H
  C187     1.0000 0.55720  0.76990  0.68320  Biso   1.000  C
  H134     1.0000 0.65040  0.76640  0.65810  Biso   1.000  H
  H135     1.0000 0.55610  0.60470  0.06790  Biso   1.000  H
  C188     1.0000 0.47250  0.62670  0.15340  Biso   1.000  C
  H136     1.0000 0.50440  0.75530  0.17200  Biso   1.000  H
  C189     1.0000 0.44430  0.71280  0.21460  Biso   1.000  C
  H137     1.0000 0.19750  0.72750  0.70940  Biso   1.000  H
  C190     1.0000 0.22450  0.79450  0.70720  Biso   1.000  C
  H138     1.0000 0.06050  0.86530  0.85570  Biso   1.000  H
  C191     1.0000 0.14570  0.87460  0.79200  Biso   1.000  C
  C192     1.0000 0.85020  0.35110  0.75690  Biso   1.000  C
  H139     1.0000 0.91210  0.39190  0.72600  Biso   1.000  H
  H140     1.0000 0.71100  0.50150  0.85520  Biso   1.000  H
  C193     1.0000 0.73340  0.41470  0.83090  Biso   1.000  C
  H141     1.0000 0.84900  0.00180  0.69700  Biso   1.000  H
  C194     1.0000 0.79220  0.09470  0.69900  Biso   1.000  C
  C195     1.0000 0.68790  0.14680  0.79260  Biso   1.000  C
  H142     1.0000 0.66880  0.09230  0.85760  Biso   1.000  H
  N33      1.0000 0.11000  0.73090  0.39430  Biso   1.000  N
  H143     1.0000 0.06520  0.82290  0.42200  Biso   1.000  H
  H144     1.0000 0.14290  0.63890  0.38330  Biso   1.000  H
  N34      1.0000 0.68800  0.05370  0.16770  Biso   1.000  N
  H145     1.0000 0.78630  0.03490  0.10340  Biso   1.000  H
  H146     1.0000 0.59600  0.05540  0.22680  Biso   1.000  H
  N35      1.0000 0.49320  0.78390  0.73040  Biso   1.000  N
  H147     1.0000 0.43060  0.81200  0.82130  Biso   1.000  H
  H148     1.0000 0.56900  0.75600  0.64270  Biso   1.000  H
  N36      1.0000 0.43190  0.66640  0.20710  Biso   1.000  N
  H149     1.0000 0.46370  0.59380  0.14930  Biso   1.000  H
  H150     1.0000 0.41650  0.73900  0.25340  Biso   1.000  H
  N37      1.0000 0.20460  0.84900  0.73760  Biso   1.000  N
  H151     1.0000 0.26720  0.77630  0.66900  Biso   1.000  H
  H152     1.0000 0.13310  0.91210  0.81340  Biso   1.000  H
  N38      1.0000 0.78460  0.35900  0.79500  Biso   1.000  N
  H153     1.0000 0.88640  0.31170  0.73200  Biso   1.000  H
  H154     1.0000 0.68710  0.42050  0.85790  Biso   1.000  H
  H155     1.0000 0.82350  0.09600  0.65770  Biso   1.000  H
  N39      1.0000 0.73300  0.14840  0.73400  Biso   1.000  N
  H156     1.0000 0.64630  0.18440  0.81700  Biso   1.000  H
  O33      1.0000 0.13960  0.73590  0.33410  Biso   1.000  O
  O34      1.0000 0.67160  0.10800  0.19230  Biso   1.000  O
  O35      1.0000 0.44750  0.77710  0.72010  Biso   1.000  O
  O36      1.0000 0.37730  0.66050  0.25210  Biso   1.000  O
  O37      1.0000 0.24300  0.87820  0.71300  Biso   1.000  O
  O38      1.0000 0.76880  0.31330  0.79920  Biso   1.000  O
  O39      1.0000 0.72050  0.20230  0.71090  Biso   1.000  O
  Yb5      1.0000 0.25688  0.71933  0.26960  Biso   1.000  Yb
  Yb6      1.0000 0.65182  0.14324  0.28875  Biso   1.000  Yb
  O40      1.0000 0.24510  0.71280  0.36990  Biso   1.000  O
  O41      1.0000 0.17900  0.81630  0.25390  Biso   1.000  O
  O42      1.0000 0.33010  0.72890  0.16820  Biso   1.000  O
  O43      1.0000 0.27550  0.61730  0.28640  Biso   1.000  O
  O44      1.0000 0.36770  0.88040  0.60930  Biso   1.000  O
  O45      1.0000 0.43400  0.89000  0.67500  Biso   1.000  O
  O46      1.0000 0.29950  0.79960  0.78600  Biso   1.000  O
  O47      1.0000 0.38690  0.76350  0.65050  Biso   1.000  O
  O48      1.0000 0.28070  0.96870  0.72870  Biso   1.000  O
  N40      1.0000 0.26660  0.73650  0.39730  Biso   1.000  N
  N41      1.0000 0.11420  0.83960  0.26010  Biso   1.000  N
  N42      1.0000 0.32170  0.73770  0.11750  Biso   1.000  N
  N43      1.0000 0.32510  0.57020  0.29860  Biso   1.000  N
  N44      1.0000 0.35370  0.85780  0.57260  Biso   1.000  N
  N45      1.0000 0.45110  0.92050  0.62670  Biso   1.000  N
  C196     1.0000 0.22160  0.79340  0.43150  Biso   1.000  C
  C197     1.0000 0.33190  0.70450  0.39100  Biso   1.000  C
  C198     1.0000 0.10470  0.81780  0.21870  Biso   1.000  C
  C199     1.0000 0.06010  0.88550  0.30670  Biso   1.000  C
  C200     1.0000 0.36070  0.68980  0.07150  Biso   1.000  C
  C201     1.0000 0.27620  0.79380  0.11170  Biso   1.000  C
  C202     1.0000 0.38590  0.52930  0.25060  Biso   1.000  C
  C203     1.0000 0.31330  0.56250  0.35720  Biso   1.000  C
  C204     1.0000 0.40620  0.81140  0.52770  Biso   1.000  C
  C205     1.0000 0.28730  0.88300  0.58160  Biso   1.000  C
  C206     1.0000 0.50430  0.88920  0.57190  Biso   1.000  C
  C207     1.0000 0.41410  0.98230  0.63310  Biso   1.000  C
  H157     1.0000 0.17610  0.81670  0.43350  Biso   1.000  H
  C208     1.0000 0.23960  0.81840  0.46310  Biso   1.000  C
  H158     1.0000 0.36420  0.66480  0.36560  Biso   1.000  H
  C209     1.0000 0.35270  0.72930  0.42200  Biso   1.000  C
  C210     1.0000 0.03840  0.84650  0.22180  Biso   1.000  C
  H159     1.0000 0.14320  0.78300  0.18780  Biso   1.000  H
  C211     1.0000 0.99110  0.91410  0.31250  Biso   1.000  C
  H160     1.0000 0.06800  0.89900  0.33600  Biso   1.000  H
  H161     1.0000 0.39170  0.64970  0.07660  Biso   1.000  H
  C212     1.0000 0.35630  0.69800  0.01760  Biso   1.000  C
  C213     1.0000 0.26990  0.80380  0.05890  Biso   1.000  C
  H162     1.0000 0.24800  0.82730  0.14500  Biso   1.000  H
  C214     1.0000 0.43520  0.47860  0.26100  Biso   1.000  C
  H163     1.0000 0.39430  0.53600  0.20920  Biso   1.000  H
  C215     1.0000 0.36140  0.51240  0.36910  Biso   1.000  C
  H164     1.0000 0.27080  0.59240  0.39070  Biso   1.000  H
  H165     1.0000 0.45330  0.79500  0.52110  Biso   1.000  H
  C216     1.0000 0.39330  0.78590  0.48960  Biso   1.000  C
  H166     1.0000 0.25020  0.91700  0.61390  Biso   1.000  H
  C217     1.0000 0.27230  0.86050  0.54530  Biso   1.000  C
  H167     1.0000 0.52930  0.84470  0.56730  Biso   1.000  H
  C218     1.0000 0.52460  0.91860  0.52200  Biso   1.000  C
  C219     1.0000 0.43240  0.01450  0.58400  Biso   1.000  C
  H168     1.0000 0.37450  0.00470  0.67210  Biso   1.000  H
  C220     1.0000 0.30540  0.78630  0.46030  Biso   1.000  C
  H169     1.0000 0.20640  0.85850  0.48750  Biso   1.000  H
  H170     1.0000 0.39970  0.70690  0.41670  Biso   1.000  H
  C221     1.0000 0.98040  0.89550  0.26920  Biso   1.000  C
  H171     1.0000 0.03220  0.83270  0.19130  Biso   1.000  H
  H172     1.0000 0.95240  0.94590  0.34630  Biso   1.000  H
  C222     1.0000 0.30960  0.75600  0.01010  Biso   1.000  C
  H173     1.0000 0.38530  0.66390  0.98490  Biso   1.000  H
  H174     1.0000 0.23750  0.84410  0.05550  Biso   1.000  H
  H175     1.0000 0.47820  0.45030  0.22680  Biso   1.000  H
  C223     1.0000 0.42340  0.46780  0.32140  Biso   1.000  C
  H176     1.0000 0.35260  0.50780  0.41090  Biso   1.000  H
  C224     1.0000 0.32420  0.81070  0.49770  Biso   1.000  C
  H177     1.0000 0.43150  0.75160  0.45800  Biso   1.000  H
  H178     1.0000 0.22470  0.87940  0.55260  Biso   1.000  H
  C225     1.0000 0.49060  0.98240  0.52640  Biso   1.000  C
  H179     1.0000 0.56310  0.89430  0.48330  Biso   1.000  H
  H180     1.0000 0.40530  0.05890  0.58920  Biso   1.000  H
  C226     1.0000 0.91120  0.92850  0.27020  Biso   1.000  C
  C227     1.0000 0.30630  0.76630  0.95000  Biso   1.000  C
  C228     1.0000 0.47430  0.40910  0.33270  Biso   1.000  C
  C229     1.0000 0.90700  0.94480  0.21510  Biso   1.000  C
  C230     1.0000 0.84820  0.94520  0.32500  Biso   1.000  C
  C231     1.0000 0.36240  0.72830  0.89470  Biso   1.000  C
  C232     1.0000 0.24700  0.81440  0.94810  Biso   1.000  C
  C233     1.0000 0.54830  0.38320  0.29490  Biso   1.000  C
  C234     1.0000 0.45080  0.37600  0.37890  Biso   1.000  C
  H181     1.0000 0.94920  0.93200  0.17650  Biso   1.000  H
  C235     1.0000 0.84150  0.97960  0.21700  Biso   1.000  C
  C236     1.0000 0.78380  0.97860  0.32470  Biso   1.000  C
  H182     1.0000 0.84950  0.93370  0.36280  Biso   1.000  H
  H183     1.0000 0.40340  0.69380  0.89470  Biso   1.000  H
  C237     1.0000 0.35930  0.74000  0.84110  Biso   1.000  C
  C238     1.0000 0.24540  0.82430  0.89250  Biso   1.000  C
  H184     1.0000 0.20720  0.84070  0.98530  Biso   1.000  H
  C239     1.0000 0.59380  0.32690  0.30240  Biso   1.000  C
  H185     1.0000 0.56650  0.40570  0.26370  Biso   1.000  H
  C240     1.0000 0.49810  0.31840  0.38390  Biso   1.000  C
  H186     1.0000 0.40170  0.39320  0.40740  Biso   1.000  H
  N46      1.0000 0.78290  0.99650  0.27050  Biso   1.000  N
  H187     1.0000 0.83870  0.99150  0.17980  Biso   1.000  H
  H188     1.0000 0.74080  0.98890  0.36190  Biso   1.000  H
  N47      1.0000 0.30150  0.78820  0.83940  Biso   1.000  N
  H189     1.0000 0.39840  0.71380  0.80360  Biso   1.000  H
  H190     1.0000 0.20400  0.85710  0.89170  Biso   1.000  H
  H191     1.0000 0.64350  0.31050  0.27700  Biso   1.000  H
  N48      1.0000 0.56840  0.29410  0.34610  Biso   1.000  N
  H192     1.0000 0.48100  0.29510  0.41470  Biso   1.000  H
