data_YUPSIM_clean
_audit_creation_date              2014-07-02
_audit_creation_method            'Materials Studio'
_symmetry_space_group_name_H-M    'P1'
_symmetry_Int_Tables_number       1
_symmetry_cell_setting            triclinic
loop_
_symmetry_equiv_pos_as_xyz
  x,y,z
_cell_length_a                    8.5785
_cell_length_b                    13.8236
_cell_length_c                    31.9322
_cell_angle_alpha                 90.0000
_cell_angle_beta                  90.0000
_cell_angle_gamma                 90.0000
loop_
_atom_site_label
_atom_site_type_symbol
_atom_site_fract_x
_atom_site_fract_y
_atom_site_fract_z
_atom_site_U_iso_or_equiv
_atom_site_adp_type
_atom_site_occupancy
Pr1    Pr    0.92104   0.79873   0.10343   0.01267  Uiso   1.00
Pr2    Pr    0.57896   0.29873   0.89657   0.01267  Uiso   1.00
Pr3    Pr    0.07896   0.20127   0.60343   0.01267  Uiso   1.00
Pr4    Pr    0.42104   0.70127   0.39657   0.01267  Uiso   1.00
Pr5    Pr    0.07896   0.20127   0.89657   0.01267  Uiso   1.00
Pr6    Pr    0.42104   0.70127   0.10343   0.01267  Uiso   1.00
Pr7    Pr    0.92104   0.79873   0.39657   0.01267  Uiso   1.00
Pr8    Pr    0.57896   0.29873   0.60343   0.01267  Uiso   1.00
H1     H     0.88710   0.59480   0.18760   0.01267  Uiso   1.00
H2     H     0.46670   0.98010   0.10990   0.01267  Uiso   1.00
H3     H     0.59030   0.18550   0.02820   0.01267  Uiso   1.00
H4     H     0.21210   0.02480   0.00590   0.01267  Uiso   1.00
H5     H     0.67940   0.51720   0.22670   0.01267  Uiso   1.00
H6     H     0.65710   0.17460   0.11060   0.01267  Uiso   1.00
H7     H     0.69050   0.07370   0.11980   0.01267  Uiso   1.00
H8     H     0.76410   0.12060   0.08420   0.01267  Uiso   1.00
H9     H     0.61290   0.09480   0.81240   0.01267  Uiso   1.00
H10    H     0.03330   0.48010   0.89010   0.01267  Uiso   1.00
H11    H     0.90970   0.68550   0.97180   0.01267  Uiso   1.00
H12    H     0.28790   0.52480   0.99410   0.01267  Uiso   1.00
H13    H     0.82060   0.01720   0.77330   0.01267  Uiso   1.00
H14    H     0.84290   0.67460   0.88940   0.01267  Uiso   1.00
H15    H     0.80950   0.57370   0.88020   0.01267  Uiso   1.00
H16    H     0.73590   0.62060   0.91580   0.01267  Uiso   1.00
H17    H     0.11290   0.40520   0.68760   0.01267  Uiso   1.00
H18    H     0.53330   0.01990   0.60990   0.01267  Uiso   1.00
H19    H     0.40970   0.81450   0.52820   0.01267  Uiso   1.00
H20    H     0.78790   0.97520   0.50590   0.01267  Uiso   1.00
H21    H     0.32060   0.48280   0.72670   0.01267  Uiso   1.00
H22    H     0.34290   0.82540   0.61060   0.01267  Uiso   1.00
H23    H     0.30950   0.92630   0.61980   0.01267  Uiso   1.00
H24    H     0.23590   0.87940   0.58420   0.01267  Uiso   1.00
H25    H     0.38710   0.90520   0.31240   0.01267  Uiso   1.00
H26    H     0.96670   0.51990   0.39010   0.01267  Uiso   1.00
H27    H     0.09030   0.31450   0.47180   0.01267  Uiso   1.00
H28    H     0.71210   0.47520   0.49410   0.01267  Uiso   1.00
H29    H     0.17940   0.98280   0.27330   0.01267  Uiso   1.00
H30    H     0.15710   0.32540   0.38940   0.01267  Uiso   1.00
H31    H     0.19050   0.42630   0.38020   0.01267  Uiso   1.00
H32    H     0.26410   0.37940   0.41580   0.01267  Uiso   1.00
H33    H     0.11290   0.40520   0.81240   0.01267  Uiso   1.00
H34    H     0.53330   0.01990   0.89010   0.01267  Uiso   1.00
H35    H     0.40970   0.81450   0.97180   0.01267  Uiso   1.00
H36    H     0.78790   0.97520   0.99410   0.01267  Uiso   1.00
H37    H     0.32060   0.48280   0.77330   0.01267  Uiso   1.00
H38    H     0.34290   0.82540   0.88940   0.01267  Uiso   1.00
H39    H     0.30950   0.92630   0.88020   0.01267  Uiso   1.00
H40    H     0.23590   0.87940   0.91580   0.01267  Uiso   1.00
H41    H     0.38710   0.90520   0.18760   0.01267  Uiso   1.00
H42    H     0.96670   0.51990   0.10990   0.01267  Uiso   1.00
H43    H     0.09030   0.31450   0.02820   0.01267  Uiso   1.00
H44    H     0.71210   0.47520   0.00590   0.01267  Uiso   1.00
H45    H     0.17940   0.98280   0.22670   0.01267  Uiso   1.00
H46    H     0.15710   0.32540   0.11060   0.01267  Uiso   1.00
H47    H     0.19050   0.42630   0.11980   0.01267  Uiso   1.00
H48    H     0.26410   0.37940   0.08420   0.01267  Uiso   1.00
H49    H     0.88710   0.59480   0.31240   0.01267  Uiso   1.00
H50    H     0.46670   0.98010   0.39010   0.01267  Uiso   1.00
H51    H     0.59030   0.18550   0.47180   0.01267  Uiso   1.00
H52    H     0.21210   0.02480   0.49410   0.01267  Uiso   1.00
H53    H     0.67940   0.51720   0.27330   0.01267  Uiso   1.00
H54    H     0.65710   0.17460   0.38940   0.01267  Uiso   1.00
H55    H     0.69050   0.07370   0.38020   0.01267  Uiso   1.00
H56    H     0.76410   0.12060   0.41580   0.01267  Uiso   1.00
H57    H     0.61290   0.09480   0.68760   0.01267  Uiso   1.00
H58    H     0.03330   0.48010   0.60990   0.01267  Uiso   1.00
H59    H     0.90970   0.68550   0.52820   0.01267  Uiso   1.00
H60    H     0.28790   0.52480   0.50590   0.01267  Uiso   1.00
H61    H     0.82060   0.01720   0.72670   0.01267  Uiso   1.00
H62    H     0.84290   0.67460   0.61060   0.01267  Uiso   1.00
H63    H     0.80950   0.57370   0.61980   0.01267  Uiso   1.00
H64    H     0.73590   0.62060   0.58420   0.01267  Uiso   1.00
H65    H     0.25030   0.70840   0.25000   0.01267  Uiso   1.00
H66    H     0.24970   0.20840   0.75000   0.01267  Uiso   1.00
H67    H     0.74970   0.29160   0.75000   0.01267  Uiso   1.00
H68    H     0.75030   0.79160   0.25000   0.01267  Uiso   1.00
C1     C     0.15830   0.68540   0.17250   0.01267  Uiso   1.00
C2     C     0.08040   0.65780   0.21259   0.01267  Uiso   1.00
C3     C     0.93630   0.61020   0.21270   0.01267  Uiso   1.00
C4     C     0.20750   0.91570   0.07328   0.01267  Uiso   1.00
C5     C     0.32150   0.99120   0.05992   0.01267  Uiso   1.00
C6     C     0.44830   0.01360   0.08519   0.01267  Uiso   1.00
C7     C     0.54580   0.08700   0.07248   0.01267  Uiso   1.00
C8     C     0.52300   0.13580   0.03585   0.01267  Uiso   1.00
C9     C     0.39840   0.11090   0.00995   0.01267  Uiso   1.00
C10    C     0.29760   0.04020   0.02253   0.01267  Uiso   1.00
C11    C     0.37510   0.16180   0.96935   0.01267  Uiso   1.00
C12    C     0.34170   0.18540   0.82750   0.01267  Uiso   1.00
C13    C     0.41960   0.15780   0.78741   0.01267  Uiso   1.00
C14    C     0.56370   0.11020   0.78730   0.01267  Uiso   1.00
C15    C     0.29250   0.41570   0.92672   0.01267  Uiso   1.00
C16    C     0.17850   0.49120   0.94008   0.01267  Uiso   1.00
C17    C     0.05170   0.51360   0.91481   0.01267  Uiso   1.00
C18    C     0.95420   0.58700   0.92752   0.01267  Uiso   1.00
C19    C     0.97700   0.63580   0.96415   0.01267  Uiso   1.00
C20    C     0.10160   0.61090   0.99005   0.01267  Uiso   1.00
C21    C     0.20240   0.54020   0.97747   0.01267  Uiso   1.00
C22    C     0.12490   0.66180   0.03065   0.01267  Uiso   1.00
C23    C     0.84170   0.31460   0.67250   0.01267  Uiso   1.00
C24    C     0.91960   0.34220   0.71259   0.01267  Uiso   1.00
C25    C     0.06370   0.38980   0.71270   0.01267  Uiso   1.00
C26    C     0.79250   0.08430   0.57328   0.01267  Uiso   1.00
C27    C     0.67850   0.00880   0.55992   0.01267  Uiso   1.00
C28    C     0.55170   0.98640   0.58519   0.01267  Uiso   1.00
C29    C     0.45420   0.91300   0.57248   0.01267  Uiso   1.00
C30    C     0.47700   0.86420   0.53585   0.01267  Uiso   1.00
C31    C     0.60160   0.88910   0.50995   0.01267  Uiso   1.00
C32    C     0.70240   0.95980   0.52253   0.01267  Uiso   1.00
C33    C     0.62490   0.83820   0.46935   0.01267  Uiso   1.00
C34    C     0.65830   0.81460   0.32750   0.01267  Uiso   1.00
C35    C     0.58040   0.84220   0.28741   0.01267  Uiso   1.00
C36    C     0.43630   0.88980   0.28730   0.01267  Uiso   1.00
C37    C     0.70750   0.58430   0.42672   0.01267  Uiso   1.00
C38    C     0.82150   0.50880   0.44008   0.01267  Uiso   1.00
C39    C     0.94830   0.48640   0.41481   0.01267  Uiso   1.00
C40    C     0.04580   0.41300   0.42752   0.01267  Uiso   1.00
C41    C     0.02300   0.36420   0.46415   0.01267  Uiso   1.00
C42    C     0.89840   0.38910   0.49005   0.01267  Uiso   1.00
C43    C     0.79760   0.45980   0.47747   0.01267  Uiso   1.00
C44    C     0.87510   0.33820   0.53065   0.01267  Uiso   1.00
C45    C     0.84170   0.31460   0.82750   0.01267  Uiso   1.00
C46    C     0.91960   0.34220   0.78741   0.01267  Uiso   1.00
C47    C     0.06370   0.38980   0.78730   0.01267  Uiso   1.00
C48    C     0.79250   0.08430   0.92672   0.01267  Uiso   1.00
C49    C     0.67850   0.00880   0.94008   0.01267  Uiso   1.00
C50    C     0.55170   0.98640   0.91481   0.01267  Uiso   1.00
C51    C     0.45420   0.91300   0.92752   0.01267  Uiso   1.00
C52    C     0.47700   0.86420   0.96415   0.01267  Uiso   1.00
C53    C     0.60160   0.88910   0.99005   0.01267  Uiso   1.00
C54    C     0.70240   0.95980   0.97747   0.01267  Uiso   1.00
C55    C     0.62490   0.83820   0.03065   0.01267  Uiso   1.00
C56    C     0.65830   0.81460   0.17250   0.01267  Uiso   1.00
C57    C     0.58040   0.84220   0.21259   0.01267  Uiso   1.00
C58    C     0.43630   0.88980   0.21270   0.01267  Uiso   1.00
C59    C     0.70750   0.58430   0.07328   0.01267  Uiso   1.00
C60    C     0.82150   0.50880   0.05992   0.01267  Uiso   1.00
C61    C     0.94830   0.48640   0.08519   0.01267  Uiso   1.00
C62    C     0.04580   0.41300   0.07248   0.01267  Uiso   1.00
C63    C     0.02300   0.36420   0.03585   0.01267  Uiso   1.00
C64    C     0.89840   0.38910   0.00995   0.01267  Uiso   1.00
C65    C     0.79760   0.45980   0.02253   0.01267  Uiso   1.00
C66    C     0.87510   0.33820   0.96935   0.01267  Uiso   1.00
C67    C     0.15830   0.68540   0.32750   0.01267  Uiso   1.00
C68    C     0.08040   0.65780   0.28741   0.01267  Uiso   1.00
C69    C     0.93630   0.61020   0.28730   0.01267  Uiso   1.00
C70    C     0.20750   0.91570   0.42672   0.01267  Uiso   1.00
C71    C     0.32150   0.99120   0.44008   0.01267  Uiso   1.00
C72    C     0.44830   0.01360   0.41481   0.01267  Uiso   1.00
C73    C     0.54580   0.08700   0.42752   0.01267  Uiso   1.00
C74    C     0.52300   0.13580   0.46415   0.01267  Uiso   1.00
C75    C     0.39840   0.11090   0.49005   0.01267  Uiso   1.00
C76    C     0.29760   0.04020   0.47747   0.01267  Uiso   1.00
C77    C     0.37510   0.16180   0.53065   0.01267  Uiso   1.00
C78    C     0.34170   0.18540   0.67250   0.01267  Uiso   1.00
C79    C     0.41960   0.15780   0.71259   0.01267  Uiso   1.00
C80    C     0.56370   0.11020   0.71270   0.01267  Uiso   1.00
C81    C     0.29250   0.41570   0.57328   0.01267  Uiso   1.00
C82    C     0.17850   0.49120   0.55992   0.01267  Uiso   1.00
C83    C     0.05170   0.51360   0.58519   0.01267  Uiso   1.00
C84    C     0.95420   0.58700   0.57248   0.01267  Uiso   1.00
C85    C     0.97700   0.63580   0.53585   0.01267  Uiso   1.00
C86    C     0.10160   0.61090   0.50995   0.01267  Uiso   1.00
C87    C     0.20240   0.54020   0.52253   0.01267  Uiso   1.00
C88    C     0.12490   0.66180   0.46935   0.01267  Uiso   1.00
C89    C     0.15250   0.67930   0.25000   0.01267  Uiso   1.00
C90    C     0.86900   0.58680   0.25000   0.01267  Uiso   1.00
C91    C     0.34750   0.17930   0.75000   0.01267  Uiso   1.00
C92    C     0.63100   0.08680   0.75000   0.01267  Uiso   1.00
C93    C     0.84750   0.32070   0.75000   0.01267  Uiso   1.00
C94    C     0.13100   0.41320   0.75000   0.01267  Uiso   1.00
C95    C     0.65250   0.82070   0.25000   0.01267  Uiso   1.00
C96    C     0.36900   0.91320   0.25000   0.01267  Uiso   1.00
N1     N     0.95830   0.97260   0.16180   0.01267  Uiso   1.00
N2     N     0.67750   0.11700   0.09948   0.01267  Uiso   1.00
N3     N     0.54170   0.47260   0.83820   0.01267  Uiso   1.00
N4     N     0.82250   0.61700   0.90052   0.01267  Uiso   1.00
N5     N     0.04170   0.02740   0.66180   0.01267  Uiso   1.00
N6     N     0.32250   0.88300   0.59948   0.01267  Uiso   1.00
N7     N     0.45830   0.52740   0.33820   0.01267  Uiso   1.00
N8     N     0.17750   0.38300   0.40052   0.01267  Uiso   1.00
N9     N     0.04170   0.02740   0.83820   0.01267  Uiso   1.00
N10    N     0.32250   0.88300   0.90052   0.01267  Uiso   1.00
N11    N     0.45830   0.52740   0.16180   0.01267  Uiso   1.00
N12    N     0.17750   0.38300   0.09948   0.01267  Uiso   1.00
N13    N     0.95830   0.97260   0.33820   0.01267  Uiso   1.00
N14    N     0.67750   0.11700   0.40052   0.01267  Uiso   1.00
N15    N     0.54170   0.47260   0.66180   0.01267  Uiso   1.00
N16    N     0.82250   0.61700   0.59948   0.01267  Uiso   1.00
N17    N     0.72220   0.53350   0.25000   0.01267  Uiso   1.00
N18    N     0.77780   0.03350   0.75000   0.01267  Uiso   1.00
N19    N     0.27780   0.46650   0.75000   0.01267  Uiso   1.00
N20    N     0.22220   0.96650   0.25000   0.01267  Uiso   1.00
O1     O     0.24740   0.84290   0.09505   0.01267  Uiso   1.00
O2     O     0.06580   0.92870   0.06351   0.01267  Uiso   1.00
O3     O     0.08020   0.68000   0.13846   0.01267  Uiso   1.00
O4     O     0.29650   0.71160   0.17348   0.01267  Uiso   1.00
O5     O     0.48000   0.22140   0.95799   0.01267  Uiso   1.00
O6     O     0.25710   0.14090   0.94806   0.01267  Uiso   1.00
O7     O     0.85340   0.96830   0.13437   0.01267  Uiso   1.00
O8     O     0.05990   0.90970   0.16370   0.01267  Uiso   1.00
O9     O     0.95370   0.03860   0.18870   0.01267  Uiso   1.00
O10    O     0.25260   0.34290   0.90495   0.01267  Uiso   1.00
O11    O     0.43420   0.42870   0.93649   0.01267  Uiso   1.00
O12    O     0.41980   0.18000   0.86154   0.01267  Uiso   1.00
O13    O     0.20350   0.21160   0.82652   0.01267  Uiso   1.00
O14    O     0.02000   0.72140   0.04201   0.01267  Uiso   1.00
O15    O     0.24290   0.64090   0.05194   0.01267  Uiso   1.00
O16    O     0.64660   0.46830   0.86563   0.01267  Uiso   1.00
O17    O     0.44010   0.40970   0.83630   0.01267  Uiso   1.00
O18    O     0.54630   0.53860   0.81130   0.01267  Uiso   1.00
O19    O     0.75260   0.15710   0.59505   0.01267  Uiso   1.00
O20    O     0.93420   0.07130   0.56351   0.01267  Uiso   1.00
O21    O     0.91980   0.32000   0.63846   0.01267  Uiso   1.00
O22    O     0.70350   0.28840   0.67348   0.01267  Uiso   1.00
O23    O     0.52000   0.77860   0.45799   0.01267  Uiso   1.00
O24    O     0.74290   0.85910   0.44806   0.01267  Uiso   1.00
O25    O     0.14660   0.03170   0.63437   0.01267  Uiso   1.00
O26    O     0.94010   0.09030   0.66370   0.01267  Uiso   1.00
O27    O     0.04630   0.96140   0.68870   0.01267  Uiso   1.00
O28    O     0.74740   0.65710   0.40495   0.01267  Uiso   1.00
O29    O     0.56580   0.57130   0.43649   0.01267  Uiso   1.00
O30    O     0.58020   0.82000   0.36154   0.01267  Uiso   1.00
O31    O     0.79650   0.78840   0.32652   0.01267  Uiso   1.00
O32    O     0.98000   0.27860   0.54201   0.01267  Uiso   1.00
O33    O     0.75710   0.35910   0.55194   0.01267  Uiso   1.00
O34    O     0.35340   0.53170   0.36563   0.01267  Uiso   1.00
O35    O     0.55990   0.59030   0.33630   0.01267  Uiso   1.00
O36    O     0.45370   0.46140   0.31130   0.01267  Uiso   1.00
O37    O     0.75260   0.15710   0.90495   0.01267  Uiso   1.00
O38    O     0.93420   0.07130   0.93649   0.01267  Uiso   1.00
O39    O     0.91980   0.32000   0.86154   0.01267  Uiso   1.00
O40    O     0.70350   0.28840   0.82652   0.01267  Uiso   1.00
O41    O     0.52000   0.77860   0.04201   0.01267  Uiso   1.00
O42    O     0.74290   0.85910   0.05194   0.01267  Uiso   1.00
O43    O     0.14660   0.03170   0.86563   0.01267  Uiso   1.00
O44    O     0.94010   0.09030   0.83630   0.01267  Uiso   1.00
O45    O     0.04630   0.96140   0.81130   0.01267  Uiso   1.00
O46    O     0.74740   0.65710   0.09505   0.01267  Uiso   1.00
O47    O     0.56580   0.57130   0.06351   0.01267  Uiso   1.00
O48    O     0.58020   0.82000   0.13846   0.01267  Uiso   1.00
O49    O     0.79650   0.78840   0.17348   0.01267  Uiso   1.00
O50    O     0.98000   0.27860   0.95799   0.01267  Uiso   1.00
O51    O     0.75710   0.35910   0.94806   0.01267  Uiso   1.00
O52    O     0.35340   0.53170   0.13437   0.01267  Uiso   1.00
O53    O     0.55990   0.59030   0.16370   0.01267  Uiso   1.00
O54    O     0.45370   0.46140   0.18870   0.01267  Uiso   1.00
O55    O     0.24740   0.84290   0.40495   0.01267  Uiso   1.00
O56    O     0.06580   0.92870   0.43649   0.01267  Uiso   1.00
O57    O     0.08020   0.68000   0.36154   0.01267  Uiso   1.00
O58    O     0.29650   0.71160   0.32652   0.01267  Uiso   1.00
O59    O     0.48000   0.22140   0.54201   0.01267  Uiso   1.00
O60    O     0.25710   0.14090   0.55194   0.01267  Uiso   1.00
O61    O     0.85340   0.96830   0.36563   0.01267  Uiso   1.00
O62    O     0.05990   0.90970   0.33630   0.01267  Uiso   1.00
O63    O     0.95370   0.03860   0.31130   0.01267  Uiso   1.00
O64    O     0.25260   0.34290   0.59505   0.01267  Uiso   1.00
O65    O     0.43420   0.42870   0.56351   0.01267  Uiso   1.00
O66    O     0.41980   0.18000   0.63846   0.01267  Uiso   1.00
O67    O     0.20350   0.21160   0.67348   0.01267  Uiso   1.00
O68    O     0.02000   0.72140   0.45799   0.01267  Uiso   1.00
O69    O     0.24290   0.64090   0.44806   0.01267  Uiso   1.00
O70    O     0.64660   0.46830   0.63437   0.01267  Uiso   1.00
O71    O     0.44010   0.40970   0.66370   0.01267  Uiso   1.00
O72    O     0.54630   0.53860   0.68870   0.01267  Uiso   1.00
