data_image0
_cell_length_a       20.9049
_cell_length_b       14.6808
_cell_length_c       14.2515
_cell_angle_alpha    90
_cell_angle_beta     108.043
_cell_angle_gamma    90

_symmetry_space_group_name_H-M    "P 1"
_symmetry_int_tables_number       1

loop_
  _symmetry_equiv_pos_as_xyz
  'x, y, z'

loop_
  _atom_site_label
  _atom_site_occupancy
  _atom_site_fract_x
  _atom_site_fract_y
  _atom_site_fract_z
  _atom_site_thermal_displace_type
  _atom_site_B_iso_or_equiv
  _atom_site_type_symbol
  Ag1      1.0000 0.67945  0.16716  0.70914  Biso   1.000  Ag
  N1       1.0000 0.77997  0.09660  0.78110  Biso   1.000  N
  N2       1.0000 0.05015  0.39350  0.17270  Biso   1.000  N
  N3       1.0000 0.37768  0.96840  0.32380  Biso   1.000  N
  N4       1.0000 0.65322  0.75820  0.34070  Biso   1.000  N
  S1       1.0000 0.09909  0.80167  0.85682  Biso   1.000  S
  S2       1.0000 0.65248  0.29312  0.58638  Biso   1.000  S
  C1       1.0000 0.82832  0.05580  0.80180  Biso   1.000  C
  C2       1.0000 0.88997  0.00390  0.83420  Biso   1.000  C
  C3       1.0000 0.95073  0.04460  0.83800  Biso   1.000  C
  H1       1.0000 0.95190  0.10520  0.81510  Biso   1.000  H
  C4       1.0000 0.00927  0.99560  0.87550  Biso   1.000  C
  H2       1.0000 0.05110  0.02290  0.87900  Biso   1.000  H
  C5       1.0000 0.00785  0.90740  0.90820  Biso   1.000  C
  C6       1.0000 0.94671  0.86720  0.90220  Biso   1.000  C
  H3       1.0000 0.94550  0.80610  0.92340  Biso   1.000  H
  C7       1.0000 0.88800  0.91520  0.86590  Biso   1.000  C
  H4       1.0000 0.84620  0.88770  0.86240  Biso   1.000  H
  C8       1.0000 0.07201  0.85530  0.95240  Biso   1.000  C
  H5       1.0000 0.06490  0.80820  0.99790  Biso   1.000  H
  H6       1.0000 0.10750  0.89730  0.99100  Biso   1.000  H
  C9       1.0000 0.16567  0.72810  0.93270  Biso   1.000  C
  H7       1.0000 0.18910  0.69890  0.89000  Biso   1.000  H
  H8       1.0000 0.19890  0.76620  0.98160  Biso   1.000  H
  C10      1.0000 0.14068  0.65550  0.98640  Biso   1.000  C
  C11      1.0000 0.14102  0.66780  0.08310  Biso   1.000  C
  H9       1.0000 0.15830  0.72290  0.11630  Biso   1.000  H
  C12      1.0000 0.11678  0.60150  0.13200  Biso   1.000  C
  H10      1.0000 0.11610  0.61130  0.19760  Biso   1.000  H
  C13      1.0000 0.09337  0.52030  0.08350  Biso   1.000  C
  C14      1.0000 0.09377  0.50550  0.98760  Biso   1.000  C
  H11      1.0000 0.07810  0.44950  0.95520  Biso   1.000  H
  C15      1.0000 0.11723  0.57330  0.94000  Biso   1.000  C
  H12      1.0000 0.11740  0.56370  0.87420  Biso   1.000  H
  C16      1.0000 0.06900  0.44940  0.13330  Biso   1.000  C
  C17      1.0000 0.40573  0.02970  0.36390  Biso   1.000  C
  C18      1.0000 0.44360  0.10640  0.41520  Biso   1.000  C
  C19      1.0000 0.46712  0.17110  0.36330  Biso   1.000  C
  H13      1.0000 0.45650  0.16650  0.29360  Biso   1.000  H
  C20      1.0000 0.50596  0.24220  0.41310  Biso   1.000  C
  H14      1.0000 0.52220  0.28660  0.37760  Biso   1.000  H
  C21      1.0000 0.52157  0.24970  0.51500  Biso   1.000  C
  C22      1.0000 0.49690  0.18560  0.56590  Biso   1.000  C
  H15      1.0000 0.50690  0.19090  0.63540  Biso   1.000  H
  C23      1.0000 0.45779  0.11370  0.51670  Biso   1.000  C
  H16      1.0000 0.44090  0.06990  0.55210  Biso   1.000  H
  C24      1.0000 0.56548  0.32570  0.56900  Biso   1.000  C
  H17      1.0000 0.55830  0.33590  0.63370  Biso   1.000  H
  H18      1.0000 0.55460  0.38280  0.53030  Biso   1.000  H
  C25      1.0000 0.69451  0.39340  0.65150  Biso   1.000  C
  H19      1.0000 0.67660  0.40750  0.70650  Biso   1.000  H
  H20      1.0000 0.74320  0.38090  0.67980  Biso   1.000  H
  C26      1.0000 0.68439  0.47400  0.58400  Biso   1.000  C
  C27      1.0000 0.71663  0.47730  0.51230  Biso   1.000  C
  H21      1.0000 0.74510  0.42850  0.50690  Biso   1.000  H
  C28      1.0000 0.70780  0.55040  0.44900  Biso   1.000  C
  H22      1.0000 0.72980  0.55210  0.39990  Biso   1.000  H
  C29      1.0000 0.66650  0.62130  0.45770  Biso   1.000  C
  C30      1.0000 0.63364  0.61880  0.52840  Biso   1.000  C
  H23      1.0000 0.60520  0.66770  0.53380  Biso   1.000  H
  C31      1.0000 0.64252  0.54510  0.59080  Biso   1.000  C
  H24      1.0000 0.61970  0.54290  0.63890  Biso   1.000  H
  C32      1.0000 0.65792  0.69820  0.39220  Biso   1.000  C
  Ag2      1.0000 0.32055  0.16716  0.79086  Biso   1.000  Ag
  N5       1.0000 0.22003  0.09660  0.71890  Biso   1.000  N
  N6       1.0000 0.94985  0.39350  0.32730  Biso   1.000  N
  N7       1.0000 0.62232  0.96840  0.17620  Biso   1.000  N
  N8       1.0000 0.34678  0.75820  0.15930  Biso   1.000  N
  S3       1.0000 0.90091  0.80167  0.64318  Biso   1.000  S
  S4       1.0000 0.34752  0.29312  0.91362  Biso   1.000  S
  C33      1.0000 0.17168  0.05580  0.69820  Biso   1.000  C
  C34      1.0000 0.11003  0.00390  0.66580  Biso   1.000  C
  C35      1.0000 0.04927  0.04460  0.66200  Biso   1.000  C
  H25      1.0000 0.04810  0.10520  0.68490  Biso   1.000  H
  C36      1.0000 0.99073  0.99560  0.62450  Biso   1.000  C
  H26      1.0000 0.94890  0.02290  0.62100  Biso   1.000  H
  C37      1.0000 0.99215  0.90740  0.59180  Biso   1.000  C
  C38      1.0000 0.05329  0.86720  0.59780  Biso   1.000  C
  H27      1.0000 0.05450  0.80610  0.57660  Biso   1.000  H
  C39      1.0000 0.11200  0.91520  0.63410  Biso   1.000  C
  H28      1.0000 0.15380  0.88770  0.63760  Biso   1.000  H
  C40      1.0000 0.92799  0.85530  0.54760  Biso   1.000  C
  H29      1.0000 0.93510  0.80820  0.50210  Biso   1.000  H
  H30      1.0000 0.89250  0.89730  0.50900  Biso   1.000  H
  C41      1.0000 0.83433  0.72810  0.56730  Biso   1.000  C
  H31      1.0000 0.81090  0.69890  0.61000  Biso   1.000  H
  H32      1.0000 0.80110  0.76620  0.51840  Biso   1.000  H
  C42      1.0000 0.85932  0.65550  0.51360  Biso   1.000  C
  C43      1.0000 0.85898  0.66780  0.41690  Biso   1.000  C
  H33      1.0000 0.84170  0.72290  0.38370  Biso   1.000  H
  C44      1.0000 0.88322  0.60150  0.36800  Biso   1.000  C
  H34      1.0000 0.88390  0.61130  0.30240  Biso   1.000  H
  C45      1.0000 0.90663  0.52030  0.41650  Biso   1.000  C
  C46      1.0000 0.90623  0.50550  0.51240  Biso   1.000  C
  H35      1.0000 0.92190  0.44950  0.54480  Biso   1.000  H
  C47      1.0000 0.88277  0.57330  0.56000  Biso   1.000  C
  H36      1.0000 0.88260  0.56370  0.62580  Biso   1.000  H
  C48      1.0000 0.93100  0.44940  0.36670  Biso   1.000  C
  C49      1.0000 0.59427  0.02970  0.13610  Biso   1.000  C
  C50      1.0000 0.55640  0.10640  0.08480  Biso   1.000  C
  C51      1.0000 0.53288  0.17110  0.13670  Biso   1.000  C
  H37      1.0000 0.54350  0.16650  0.20640  Biso   1.000  H
  C52      1.0000 0.49404  0.24220  0.08690  Biso   1.000  C
  H38      1.0000 0.47780  0.28660  0.12240  Biso   1.000  H
  C53      1.0000 0.47843  0.24970  0.98500  Biso   1.000  C
  C54      1.0000 0.50310  0.18560  0.93410  Biso   1.000  C
  H39      1.0000 0.49310  0.19090  0.86460  Biso   1.000  H
  C55      1.0000 0.54221  0.11370  0.98330  Biso   1.000  C
  H40      1.0000 0.55910  0.06990  0.94790  Biso   1.000  H
  C56      1.0000 0.43452  0.32570  0.93100  Biso   1.000  C
  H41      1.0000 0.44170  0.33590  0.86630  Biso   1.000  H
  H42      1.0000 0.44540  0.38280  0.96970  Biso   1.000  H
  C57      1.0000 0.30549  0.39340  0.84850  Biso   1.000  C
  H43      1.0000 0.32340  0.40750  0.79350  Biso   1.000  H
  H44      1.0000 0.25680  0.38090  0.82020  Biso   1.000  H
  C58      1.0000 0.31561  0.47400  0.91600  Biso   1.000  C
  C59      1.0000 0.28337  0.47730  0.98770  Biso   1.000  C
  H45      1.0000 0.25490  0.42850  0.99310  Biso   1.000  H
  C60      1.0000 0.29220  0.55040  0.05100  Biso   1.000  C
  H46      1.0000 0.27020  0.55210  0.10010  Biso   1.000  H
  C61      1.0000 0.33350  0.62130  0.04230  Biso   1.000  C
  C62      1.0000 0.36636  0.61880  0.97160  Biso   1.000  C
  H47      1.0000 0.39480  0.66770  0.96620  Biso   1.000  H
  C63      1.0000 0.35748  0.54510  0.90920  Biso   1.000  C
  H48      1.0000 0.38030  0.54290  0.86110  Biso   1.000  H
  C64      1.0000 0.34208  0.69820  0.10780  Biso   1.000  C
  Ag3      1.0000 0.32055  0.83284  0.29086  Biso   1.000  Ag
  N9       1.0000 0.22003  0.90340  0.21890  Biso   1.000  N
  N10      1.0000 0.94985  0.60650  0.82730  Biso   1.000  N
  N11      1.0000 0.62232  0.03160  0.67620  Biso   1.000  N
  N12      1.0000 0.34678  0.24180  0.65930  Biso   1.000  N
  S5       1.0000 0.90091  0.19833  0.14318  Biso   1.000  S
  S6       1.0000 0.34752  0.70688  0.41362  Biso   1.000  S
  C65      1.0000 0.17168  0.94420  0.19820  Biso   1.000  C
  C66      1.0000 0.11003  0.99610  0.16580  Biso   1.000  C
  C67      1.0000 0.04927  0.95540  0.16200  Biso   1.000  C
  H49      1.0000 0.04810  0.89480  0.18490  Biso   1.000  H
  C68      1.0000 0.99073  0.00440  0.12450  Biso   1.000  C
  H50      1.0000 0.94890  0.97710  0.12100  Biso   1.000  H
  C69      1.0000 0.99215  0.09260  0.09180  Biso   1.000  C
  C70      1.0000 0.05329  0.13280  0.09780  Biso   1.000  C
  H51      1.0000 0.05450  0.19390  0.07660  Biso   1.000  H
  C71      1.0000 0.11200  0.08480  0.13410  Biso   1.000  C
  H52      1.0000 0.15380  0.11230  0.13760  Biso   1.000  H
  C72      1.0000 0.92799  0.14470  0.04760  Biso   1.000  C
  H53      1.0000 0.93510  0.19180  0.00210  Biso   1.000  H
  H54      1.0000 0.89250  0.10270  0.00900  Biso   1.000  H
  C73      1.0000 0.83433  0.27190  0.06730  Biso   1.000  C
  H55      1.0000 0.81090  0.30110  0.11000  Biso   1.000  H
  H56      1.0000 0.80110  0.23380  0.01840  Biso   1.000  H
  C74      1.0000 0.85932  0.34450  0.01360  Biso   1.000  C
  C75      1.0000 0.85898  0.33220  0.91690  Biso   1.000  C
  H57      1.0000 0.84170  0.27710  0.88370  Biso   1.000  H
  C76      1.0000 0.88322  0.39850  0.86800  Biso   1.000  C
  H58      1.0000 0.88390  0.38870  0.80240  Biso   1.000  H
  C77      1.0000 0.90663  0.47970  0.91650  Biso   1.000  C
  C78      1.0000 0.90623  0.49450  0.01240  Biso   1.000  C
  H59      1.0000 0.92190  0.55050  0.04480  Biso   1.000  H
  C79      1.0000 0.88277  0.42670  0.06000  Biso   1.000  C
  H60      1.0000 0.88260  0.43630  0.12580  Biso   1.000  H
  C80      1.0000 0.93100  0.55060  0.86670  Biso   1.000  C
  C81      1.0000 0.59427  0.97030  0.63610  Biso   1.000  C
  C82      1.0000 0.55640  0.89360  0.58480  Biso   1.000  C
  C83      1.0000 0.53288  0.82890  0.63670  Biso   1.000  C
  H61      1.0000 0.54350  0.83350  0.70640  Biso   1.000  H
  C84      1.0000 0.49404  0.75780  0.58690  Biso   1.000  C
  H62      1.0000 0.47780  0.71340  0.62240  Biso   1.000  H
  C85      1.0000 0.47843  0.75030  0.48500  Biso   1.000  C
  C86      1.0000 0.50310  0.81440  0.43410  Biso   1.000  C
  H63      1.0000 0.49310  0.80910  0.36460  Biso   1.000  H
  C87      1.0000 0.54221  0.88630  0.48330  Biso   1.000  C
  H64      1.0000 0.55910  0.93010  0.44790  Biso   1.000  H
  C88      1.0000 0.43452  0.67430  0.43100  Biso   1.000  C
  H65      1.0000 0.44170  0.66410  0.36630  Biso   1.000  H
  H66      1.0000 0.44540  0.61720  0.46970  Biso   1.000  H
  C89      1.0000 0.30549  0.60660  0.34850  Biso   1.000  C
  H67      1.0000 0.32340  0.59250  0.29350  Biso   1.000  H
  H68      1.0000 0.25680  0.61910  0.32020  Biso   1.000  H
  C90      1.0000 0.31561  0.52600  0.41600  Biso   1.000  C
  C91      1.0000 0.28337  0.52270  0.48770  Biso   1.000  C
  H69      1.0000 0.25490  0.57150  0.49310  Biso   1.000  H
  C92      1.0000 0.29220  0.44960  0.55100  Biso   1.000  C
  H70      1.0000 0.27020  0.44790  0.60010  Biso   1.000  H
  C93      1.0000 0.33350  0.37870  0.54230  Biso   1.000  C
  C94      1.0000 0.36636  0.38120  0.47160  Biso   1.000  C
  H71      1.0000 0.39480  0.33230  0.46620  Biso   1.000  H
  C95      1.0000 0.35748  0.45490  0.40920  Biso   1.000  C
  H72      1.0000 0.38030  0.45710  0.36110  Biso   1.000  H
  C96      1.0000 0.34208  0.30180  0.60780  Biso   1.000  C
  Ag4      1.0000 0.67945  0.83284  0.20914  Biso   1.000  Ag
  N13      1.0000 0.77997  0.90340  0.28110  Biso   1.000  N
  N14      1.0000 0.05015  0.60650  0.67270  Biso   1.000  N
  N15      1.0000 0.37768  0.03160  0.82380  Biso   1.000  N
  N16      1.0000 0.65322  0.24180  0.84070  Biso   1.000  N
  S7       1.0000 0.09909  0.19833  0.35682  Biso   1.000  S
  S8       1.0000 0.65248  0.70688  0.08638  Biso   1.000  S
  C97      1.0000 0.82832  0.94420  0.30180  Biso   1.000  C
  C98      1.0000 0.88997  0.99610  0.33420  Biso   1.000  C
  C99      1.0000 0.95073  0.95540  0.33800  Biso   1.000  C
  H73      1.0000 0.95190  0.89480  0.31510  Biso   1.000  H
  C100     1.0000 0.00927  0.00440  0.37550  Biso   1.000  C
  H74      1.0000 0.05110  0.97710  0.37900  Biso   1.000  H
  C101     1.0000 0.00785  0.09260  0.40820  Biso   1.000  C
  C102     1.0000 0.94671  0.13280  0.40220  Biso   1.000  C
  H75      1.0000 0.94550  0.19390  0.42340  Biso   1.000  H
  C103     1.0000 0.88800  0.08480  0.36590  Biso   1.000  C
  H76      1.0000 0.84620  0.11230  0.36240  Biso   1.000  H
  C104     1.0000 0.07201  0.14470  0.45240  Biso   1.000  C
  H77      1.0000 0.06490  0.19180  0.49790  Biso   1.000  H
  H78      1.0000 0.10750  0.10270  0.49100  Biso   1.000  H
  C105     1.0000 0.16567  0.27190  0.43270  Biso   1.000  C
  H79      1.0000 0.18910  0.30110  0.39000  Biso   1.000  H
  H80      1.0000 0.19890  0.23380  0.48160  Biso   1.000  H
  C106     1.0000 0.14068  0.34450  0.48640  Biso   1.000  C
  C107     1.0000 0.14102  0.33220  0.58310  Biso   1.000  C
  H81      1.0000 0.15830  0.27710  0.61630  Biso   1.000  H
  C108     1.0000 0.11678  0.39850  0.63200  Biso   1.000  C
  H82      1.0000 0.11610  0.38870  0.69760  Biso   1.000  H
  C109     1.0000 0.09337  0.47970  0.58350  Biso   1.000  C
  C110     1.0000 0.09377  0.49450  0.48760  Biso   1.000  C
  H83      1.0000 0.07810  0.55050  0.45520  Biso   1.000  H
  C111     1.0000 0.11723  0.42670  0.44000  Biso   1.000  C
  H84      1.0000 0.11740  0.43630  0.37420  Biso   1.000  H
  C112     1.0000 0.06900  0.55060  0.63330  Biso   1.000  C
  C113     1.0000 0.40573  0.97030  0.86390  Biso   1.000  C
  C114     1.0000 0.44360  0.89360  0.91520  Biso   1.000  C
  C115     1.0000 0.46712  0.82890  0.86330  Biso   1.000  C
  H85      1.0000 0.45650  0.83350  0.79360  Biso   1.000  H
  C116     1.0000 0.50596  0.75780  0.91310  Biso   1.000  C
  H86      1.0000 0.52220  0.71340  0.87760  Biso   1.000  H
  C117     1.0000 0.52157  0.75030  0.01500  Biso   1.000  C
  C118     1.0000 0.49690  0.81440  0.06590  Biso   1.000  C
  H87      1.0000 0.50690  0.80910  0.13540  Biso   1.000  H
  C119     1.0000 0.45779  0.88630  0.01670  Biso   1.000  C
  H88      1.0000 0.44090  0.93010  0.05210  Biso   1.000  H
  C120     1.0000 0.56548  0.67430  0.06900  Biso   1.000  C
  H89      1.0000 0.55830  0.66410  0.13370  Biso   1.000  H
  H90      1.0000 0.55460  0.61720  0.03030  Biso   1.000  H
  C121     1.0000 0.69451  0.60660  0.15150  Biso   1.000  C
  H91      1.0000 0.67660  0.59250  0.20650  Biso   1.000  H
  H92      1.0000 0.74320  0.61910  0.17980  Biso   1.000  H
  C122     1.0000 0.68439  0.52600  0.08400  Biso   1.000  C
  C123     1.0000 0.71663  0.52270  0.01230  Biso   1.000  C
  H93      1.0000 0.74510  0.57150  0.00690  Biso   1.000  H
  C124     1.0000 0.70780  0.44960  0.94900  Biso   1.000  C
  H94      1.0000 0.72980  0.44790  0.89990  Biso   1.000  H
  C125     1.0000 0.66650  0.37870  0.95770  Biso   1.000  C
  C126     1.0000 0.63364  0.38120  0.02840  Biso   1.000  C
  H95      1.0000 0.60520  0.33230  0.03380  Biso   1.000  H
  C127     1.0000 0.64252  0.45490  0.09080  Biso   1.000  C
  H96      1.0000 0.61970  0.45710  0.13890  Biso   1.000  H
  C128     1.0000 0.65792  0.30180  0.89220  Biso   1.000  C
  Ag5      1.0000 0.00000  0.71152  0.75000  Biso   1.000  Ag
  Ag6      1.0000 0.00000  0.28848  0.25000  Biso   1.000  Ag
