data_YURJUR_clean
_audit_creation_date              2014-07-02
_audit_creation_method            'Materials Studio'
_symmetry_space_group_name_H-M    'P1'
_symmetry_Int_Tables_number       1
_symmetry_cell_setting            triclinic
loop_
_symmetry_equiv_pos_as_xyz
  x,y,z
_cell_length_a                    17.5757
_cell_length_b                    17.5757
_cell_length_c                    17.5757
_cell_angle_alpha                 90.9296
_cell_angle_beta                  90.9296
_cell_angle_gamma                 90.9296
loop_
_atom_site_label
_atom_site_type_symbol
_atom_site_fract_x
_atom_site_fract_y
_atom_site_fract_z
_atom_site_U_iso_or_equiv
_atom_site_adp_type
_atom_site_occupancy
Ce1    Ce    0.36705   0.36705   0.36705   0.01267  Uiso   1.00
Ce2    Ce    0.63295   0.63295   0.63295   0.01267  Uiso   1.00
Ce3    Ce    0.50000   0.50000   0.50000   0.01267  Uiso   1.00
H1     H     0.38200   0.53620   0.23280   0.01267  Uiso   1.00
H2     H     0.38110   0.57350   0.10670   0.01267  Uiso   1.00
H3     H     0.61070   0.54110   0.23710   0.01267  Uiso   1.00
H4     H     0.40260   0.61430   0.96730   0.01267  Uiso   1.00
H5     H     0.66330   0.62560   0.91640   0.01267  Uiso   1.00
H6     H     0.44560   0.63680   0.84750   0.01267  Uiso   1.00
H7     H     0.23280   0.38200   0.53620   0.01267  Uiso   1.00
H8     H     0.10670   0.38110   0.57350   0.01267  Uiso   1.00
H9     H     0.23710   0.61070   0.54110   0.01267  Uiso   1.00
H10    H     0.96730   0.40260   0.61430   0.01267  Uiso   1.00
H11    H     0.91640   0.66330   0.62560   0.01267  Uiso   1.00
H12    H     0.84750   0.44560   0.63680   0.01267  Uiso   1.00
H13    H     0.53620   0.23280   0.38200   0.01267  Uiso   1.00
H14    H     0.57350   0.10670   0.38110   0.01267  Uiso   1.00
H15    H     0.54110   0.23710   0.61070   0.01267  Uiso   1.00
H16    H     0.61430   0.96730   0.40260   0.01267  Uiso   1.00
H17    H     0.62560   0.91640   0.66330   0.01267  Uiso   1.00
H18    H     0.63680   0.84750   0.44560   0.01267  Uiso   1.00
H19    H     0.61800   0.46380   0.76720   0.01267  Uiso   1.00
H20    H     0.61890   0.42650   0.89330   0.01267  Uiso   1.00
H21    H     0.38930   0.45890   0.76290   0.01267  Uiso   1.00
H22    H     0.59740   0.38570   0.03270   0.01267  Uiso   1.00
H23    H     0.33670   0.37440   0.08360   0.01267  Uiso   1.00
H24    H     0.55440   0.36320   0.15250   0.01267  Uiso   1.00
H25    H     0.76720   0.61800   0.46380   0.01267  Uiso   1.00
H26    H     0.89330   0.61890   0.42650   0.01267  Uiso   1.00
H27    H     0.76290   0.38930   0.45890   0.01267  Uiso   1.00
H28    H     0.03270   0.59740   0.38570   0.01267  Uiso   1.00
H29    H     0.08360   0.33670   0.37440   0.01267  Uiso   1.00
H30    H     0.15250   0.55440   0.36320   0.01267  Uiso   1.00
H31    H     0.46380   0.76720   0.61800   0.01267  Uiso   1.00
H32    H     0.42650   0.89330   0.61890   0.01267  Uiso   1.00
H33    H     0.45890   0.76290   0.38930   0.01267  Uiso   1.00
H34    H     0.38570   0.03270   0.59740   0.01267  Uiso   1.00
H35    H     0.37440   0.08360   0.33670   0.01267  Uiso   1.00
H36    H     0.36320   0.15250   0.55440   0.01267  Uiso   1.00
C1     C     0.49760   0.51140   0.32830   0.01267  Uiso   1.00
C2     C     0.49530   0.53440   0.24790   0.01267  Uiso   1.00
C3     C     0.42790   0.54470   0.20840   0.01267  Uiso   1.00
C4     C     0.42700   0.56710   0.13290   0.01267  Uiso   1.00
C5     C     0.56480   0.54840   0.21150   0.01267  Uiso   1.00
C6     C     0.56410   0.57310   0.13740   0.01267  Uiso   1.00
C7     C     0.49620   0.58030   0.09700   0.01267  Uiso   1.00
C8     C     0.50940   0.60160   0.01630   0.01267  Uiso   1.00
C9     C     0.58570   0.60740   0.99960   0.01267  Uiso   1.00
C10    C     0.45440   0.61520   0.95750   0.01267  Uiso   1.00
C11    C     0.61150   0.62260   0.92620   0.01267  Uiso   1.00
C12    C     0.48090   0.62940   0.88650   0.01267  Uiso   1.00
C13    C     0.55850   0.63310   0.86910   0.01267  Uiso   1.00
C14    C     0.58310   0.64320   0.78850   0.01267  Uiso   1.00
C15    C     0.32830   0.49760   0.51140   0.01267  Uiso   1.00
C16    C     0.24790   0.49530   0.53440   0.01267  Uiso   1.00
C17    C     0.20840   0.42790   0.54470   0.01267  Uiso   1.00
C18    C     0.13290   0.42700   0.56710   0.01267  Uiso   1.00
C19    C     0.21150   0.56480   0.54840   0.01267  Uiso   1.00
C20    C     0.13740   0.56410   0.57310   0.01267  Uiso   1.00
C21    C     0.09700   0.49620   0.58030   0.01267  Uiso   1.00
C22    C     0.01630   0.50940   0.60160   0.01267  Uiso   1.00
C23    C     0.99960   0.58570   0.60740   0.01267  Uiso   1.00
C24    C     0.95750   0.45440   0.61520   0.01267  Uiso   1.00
C25    C     0.92620   0.61150   0.62260   0.01267  Uiso   1.00
C26    C     0.88650   0.48090   0.62940   0.01267  Uiso   1.00
C27    C     0.86910   0.55850   0.63310   0.01267  Uiso   1.00
C28    C     0.78850   0.58310   0.64320   0.01267  Uiso   1.00
C29    C     0.51140   0.32830   0.49760   0.01267  Uiso   1.00
C30    C     0.53440   0.24790   0.49530   0.01267  Uiso   1.00
C31    C     0.54470   0.20840   0.42790   0.01267  Uiso   1.00
C32    C     0.56710   0.13290   0.42700   0.01267  Uiso   1.00
C33    C     0.54840   0.21150   0.56480   0.01267  Uiso   1.00
C34    C     0.57310   0.13740   0.56410   0.01267  Uiso   1.00
C35    C     0.58030   0.09700   0.49620   0.01267  Uiso   1.00
C36    C     0.60160   0.01630   0.50940   0.01267  Uiso   1.00
C37    C     0.60740   0.99960   0.58570   0.01267  Uiso   1.00
C38    C     0.61520   0.95750   0.45440   0.01267  Uiso   1.00
C39    C     0.62260   0.92620   0.61150   0.01267  Uiso   1.00
C40    C     0.62940   0.88650   0.48090   0.01267  Uiso   1.00
C41    C     0.63310   0.86910   0.55850   0.01267  Uiso   1.00
C42    C     0.64320   0.78850   0.58310   0.01267  Uiso   1.00
C43    C     0.50240   0.48860   0.67170   0.01267  Uiso   1.00
C44    C     0.50470   0.46560   0.75210   0.01267  Uiso   1.00
C45    C     0.57210   0.45530   0.79160   0.01267  Uiso   1.00
C46    C     0.57300   0.43290   0.86710   0.01267  Uiso   1.00
C47    C     0.43520   0.45160   0.78850   0.01267  Uiso   1.00
C48    C     0.43590   0.42690   0.86260   0.01267  Uiso   1.00
C49    C     0.50380   0.41970   0.90300   0.01267  Uiso   1.00
C50    C     0.49060   0.39840   0.98370   0.01267  Uiso   1.00
C51    C     0.41430   0.39260   0.00040   0.01267  Uiso   1.00
C52    C     0.54560   0.38480   0.04250   0.01267  Uiso   1.00
C53    C     0.38850   0.37740   0.07380   0.01267  Uiso   1.00
C54    C     0.51910   0.37060   0.11350   0.01267  Uiso   1.00
C55    C     0.44150   0.36690   0.13090   0.01267  Uiso   1.00
C56    C     0.41690   0.35680   0.21150   0.01267  Uiso   1.00
C57    C     0.67170   0.50240   0.48860   0.01267  Uiso   1.00
C58    C     0.75210   0.50470   0.46560   0.01267  Uiso   1.00
C59    C     0.79160   0.57210   0.45530   0.01267  Uiso   1.00
C60    C     0.86710   0.57300   0.43290   0.01267  Uiso   1.00
C61    C     0.78850   0.43520   0.45160   0.01267  Uiso   1.00
C62    C     0.86260   0.43590   0.42690   0.01267  Uiso   1.00
C63    C     0.90300   0.50380   0.41970   0.01267  Uiso   1.00
C64    C     0.98370   0.49060   0.39840   0.01267  Uiso   1.00
C65    C     0.00040   0.41430   0.39260   0.01267  Uiso   1.00
C66    C     0.04250   0.54560   0.38480   0.01267  Uiso   1.00
C67    C     0.07380   0.38850   0.37740   0.01267  Uiso   1.00
C68    C     0.11350   0.51910   0.37060   0.01267  Uiso   1.00
C69    C     0.13090   0.44150   0.36690   0.01267  Uiso   1.00
C70    C     0.21150   0.41690   0.35680   0.01267  Uiso   1.00
C71    C     0.48860   0.67170   0.50240   0.01267  Uiso   1.00
C72    C     0.46560   0.75210   0.50470   0.01267  Uiso   1.00
C73    C     0.45530   0.79160   0.57210   0.01267  Uiso   1.00
C74    C     0.43290   0.86710   0.57300   0.01267  Uiso   1.00
C75    C     0.45160   0.78850   0.43520   0.01267  Uiso   1.00
C76    C     0.42690   0.86260   0.43590   0.01267  Uiso   1.00
C77    C     0.41970   0.90300   0.50380   0.01267  Uiso   1.00
C78    C     0.39840   0.98370   0.49060   0.01267  Uiso   1.00
C79    C     0.39260   0.00040   0.41430   0.01267  Uiso   1.00
C80    C     0.38480   0.04250   0.54560   0.01267  Uiso   1.00
C81    C     0.37740   0.07380   0.38850   0.01267  Uiso   1.00
C82    C     0.37060   0.11350   0.51910   0.01267  Uiso   1.00
C83    C     0.36690   0.13090   0.44150   0.01267  Uiso   1.00
C84    C     0.35680   0.21150   0.41690   0.01267  Uiso   1.00
S1     S     0.64346   0.59021   0.07990   0.01267  Uiso   1.00
S2     S     0.07990   0.64346   0.59021   0.01267  Uiso   1.00
S3     S     0.59021   0.07990   0.64346   0.01267  Uiso   1.00
S4     S     0.35654   0.40979   0.92010   0.01267  Uiso   1.00
S5     S     0.92010   0.35654   0.40979   0.01267  Uiso   1.00
S6     S     0.40979   0.92010   0.35654   0.01267  Uiso   1.00
O1     O     0.55901   0.51021   0.36411   0.01267  Uiso   1.00
O2     O     0.43443   0.49113   0.35993   0.01267  Uiso   1.00
O3     O     0.65338   0.63758   0.77568   0.01267  Uiso   1.00
O4     O     0.53522   0.65422   0.73692   0.01267  Uiso   1.00
O5     O     0.68380   0.65900   0.10700   0.01267  Uiso   1.00
O6     O     0.68630   0.52110   0.06840   0.01267  Uiso   1.00
O7     O     0.36411   0.55901   0.51021   0.01267  Uiso   1.00
O8     O     0.35993   0.43443   0.49113   0.01267  Uiso   1.00
O9     O     0.77568   0.65338   0.63758   0.01267  Uiso   1.00
O10    O     0.73692   0.53522   0.65422   0.01267  Uiso   1.00
O11    O     0.10700   0.68380   0.65900   0.01267  Uiso   1.00
O12    O     0.06840   0.68630   0.52110   0.01267  Uiso   1.00
O13    O     0.51021   0.36411   0.55901   0.01267  Uiso   1.00
O14    O     0.49113   0.35993   0.43443   0.01267  Uiso   1.00
O15    O     0.63758   0.77568   0.65338   0.01267  Uiso   1.00
O16    O     0.65422   0.73692   0.53522   0.01267  Uiso   1.00
O17    O     0.65900   0.10700   0.68380   0.01267  Uiso   1.00
O18    O     0.52110   0.06840   0.68630   0.01267  Uiso   1.00
O19    O     0.44099   0.48979   0.63589   0.01267  Uiso   1.00
O20    O     0.56557   0.50887   0.64007   0.01267  Uiso   1.00
O21    O     0.34662   0.36242   0.22432   0.01267  Uiso   1.00
O22    O     0.46478   0.34578   0.26308   0.01267  Uiso   1.00
O23    O     0.31620   0.34100   0.89300   0.01267  Uiso   1.00
O24    O     0.31370   0.47890   0.93160   0.01267  Uiso   1.00
O25    O     0.63589   0.44099   0.48979   0.01267  Uiso   1.00
O26    O     0.64007   0.56557   0.50887   0.01267  Uiso   1.00
O27    O     0.22432   0.34662   0.36242   0.01267  Uiso   1.00
O28    O     0.26308   0.46478   0.34578   0.01267  Uiso   1.00
O29    O     0.89300   0.31620   0.34100   0.01267  Uiso   1.00
O30    O     0.93160   0.31370   0.47890   0.01267  Uiso   1.00
O31    O     0.48979   0.63589   0.44099   0.01267  Uiso   1.00
O32    O     0.50887   0.64007   0.56557   0.01267  Uiso   1.00
O33    O     0.36242   0.22432   0.34662   0.01267  Uiso   1.00
O34    O     0.34578   0.26308   0.46478   0.01267  Uiso   1.00
O35    O     0.34100   0.89300   0.31620   0.01267  Uiso   1.00
O36    O     0.47890   0.93160   0.31370   0.01267  Uiso   1.00
