data_YURKIG_clean
_audit_creation_date              2014-07-02
_audit_creation_method            'Materials Studio'
_symmetry_space_group_name_H-M    'P1'
_symmetry_Int_Tables_number       1
_symmetry_cell_setting            triclinic
loop_
_symmetry_equiv_pos_as_xyz
  x,y,z
_cell_length_a                    14.9351
_cell_length_b                    19.0332
_cell_length_c                    30.3411
_cell_angle_alpha                 96.8239
_cell_angle_beta                  90.0000
_cell_angle_gamma                 113.1000
loop_
_atom_site_label
_atom_site_type_symbol
_atom_site_fract_x
_atom_site_fract_y
_atom_site_fract_z
_atom_site_U_iso_or_equiv
_atom_site_adp_type
_atom_site_occupancy
Pr1    Pr    0.37576   0.82961   0.15835   0.01267  Uiso   1.00
Pr2    Pr    0.37848   0.58642   0.64450   0.01267  Uiso   1.00
Pr3    Pr    0.45385   0.82961   0.65835   0.01267  Uiso   1.00
Pr4    Pr    0.20794   0.58642   0.14450   0.01267  Uiso   1.00
H1     H     0.36820   0.06820   0.23640   0.01267  Uiso   1.00
H2     H     0.23710   0.33580   0.10390   0.01267  Uiso   1.00
H3     H     0.96250   0.62640   0.14570   0.01267  Uiso   1.00
H4     H     0.32920   0.05840   0.10330   0.01267  Uiso   1.00
H5     H     0.30260   0.29860   0.24840   0.01267  Uiso   1.00
H6     H     0.33920   0.17960   0.24830   0.01267  Uiso   1.00
H7     H     0.23670   0.59980   0.51460   0.01267  Uiso   1.00
H8     H     0.39660   0.81060   0.31140   0.01267  Uiso   1.00
H9     H     0.45510   0.80560   0.50540   0.01267  Uiso   1.00
H10    H     0.26470   0.40240   0.23680   0.01267  Uiso   1.00
H11    H     0.17990   0.59260   0.44240   0.01267  Uiso   1.00
H12    H     0.54150   0.57500   0.13850   0.01267  Uiso   1.00
H13    H     0.16230   0.61020   0.28680   0.01267  Uiso   1.00
H14    H     0.15370   0.59620   0.36180   0.01267  Uiso   1.00
H15    H     0.57850   0.79960   0.15510   0.01267  Uiso   1.00
H16    H     0.74600   0.83820   0.15610   0.01267  Uiso   1.00
H17    H     0.07580   0.85940   0.16250   0.01267  Uiso   1.00
H18    H     0.92140   0.85940   0.16180   0.01267  Uiso   1.00
H19    H     0.70000   0.06820   0.73640   0.01267  Uiso   1.00
H20    H     0.09870   0.33580   0.60390   0.01267  Uiso   1.00
H21    H     0.66390   0.62640   0.64570   0.01267  Uiso   1.00
H22    H     0.72920   0.05840   0.60330   0.01267  Uiso   1.00
H23    H     0.99600   0.29860   0.74840   0.01267  Uiso   1.00
H24    H     0.84040   0.17960   0.74830   0.01267  Uiso   1.00
H25    H     0.36310   0.59980   0.01460   0.01267  Uiso   1.00
H26    H     0.41400   0.81060   0.81140   0.01267  Uiso   1.00
H27    H     0.35050   0.80560   0.00540   0.01267  Uiso   1.00
H28    H     0.13770   0.40240   0.73680   0.01267  Uiso   1.00
H29    H     0.41270   0.59260   0.94240   0.01267  Uiso   1.00
H30    H     0.03350   0.57500   0.63850   0.01267  Uiso   1.00
H31    H     0.44790   0.61020   0.78680   0.01267  Uiso   1.00
H32    H     0.44250   0.59620   0.86180   0.01267  Uiso   1.00
H33    H     0.22110   0.79960   0.65510   0.01267  Uiso   1.00
H34    H     0.09220   0.83820   0.65610   0.01267  Uiso   1.00
H35    H     0.78360   0.85940   0.66250   0.01267  Uiso   1.00
H36    H     0.93800   0.85940   0.66180   0.01267  Uiso   1.00
C1     C     0.35426   0.08872   0.21221   0.01267  Uiso   1.00
C2     C     0.36897   0.97894   0.16237   0.01267  Uiso   1.00
C3     C     0.25062   0.32904   0.13266   0.01267  Uiso   1.00
C4     C     0.27514   0.69248   0.38105   0.01267  Uiso   1.00
C5     C     0.28960   0.69080   0.42914   0.01267  Uiso   1.00
C6     C     0.31583   0.18606   0.18316   0.01267  Uiso   1.00
C7     C     0.95522   0.67304   0.14882   0.01267  Uiso   1.00
C8     C     0.35122   0.05144   0.16905   0.01267  Uiso   1.00
C9     C     0.54239   0.68298   0.14795   0.01267  Uiso   1.00
C10    C     0.33100   0.08200   0.13213   0.01267  Uiso   1.00
C11    C     0.35256   0.70192   0.51720   0.01267  Uiso   1.00
C12    C     0.27988   0.71136   0.29139   0.01267  Uiso   1.00
C13    C     0.28108   0.71696   0.24240   0.01267  Uiso   1.00
C14    C     0.21971   0.44602   0.16273   0.01267  Uiso   1.00
C15    C     0.38812   0.70184   0.56315   0.01267  Uiso   1.00
C16    C     0.29011   0.30622   0.21972   0.01267  Uiso   1.00
C17    C     0.31401   0.14862   0.14040   0.01267  Uiso   1.00
C18    C     0.13834   0.74768   0.15264   0.01267  Uiso   1.00
C19    C     0.03536   0.74212   0.15354   0.01267  Uiso   1.00
C20    C     0.33684   0.15548   0.21953   0.01267  Uiso   1.00
C21    C     0.26988   0.63896   0.49775   0.01267  Uiso   1.00
C22    C     0.34927   0.76714   0.32097   0.01267  Uiso   1.00
C23    C     0.24650   0.37960   0.16950   0.01267  Uiso   1.00
C24    C     0.37111   0.75362   0.44848   0.01267  Uiso   1.00
C25    C     0.86253   0.67506   0.14882   0.01267  Uiso   1.00
C26    C     0.68268   0.65356   0.14475   0.01267  Uiso   1.00
C27    C     0.43467   0.66026   0.14909   0.01267  Uiso   1.00
C28    C     0.34576   0.75592   0.36532   0.01267  Uiso   1.00
C29    C     0.40272   0.76184   0.49273   0.01267  Uiso   1.00
C30    C     0.26688   0.36816   0.21266   0.01267  Uiso   1.00
C31    C     0.23631   0.63342   0.45431   0.01267  Uiso   1.00
C32    C     0.29460   0.25580   0.18344   0.01267  Uiso   1.00
C33    C     0.27527   0.26874   0.14061   0.01267  Uiso   1.00
C34    C     0.58110   0.62720   0.14290   0.01267  Uiso   1.00
C35    C     0.20824   0.64748   0.30709   0.01267  Uiso   1.00
C36    C     0.74469   0.73118   0.15081   0.01267  Uiso   1.00
C37    C     0.20331   0.63782   0.35180   0.01267  Uiso   1.00
C38    C     0.84957   0.74414   0.15331   0.01267  Uiso   1.00
C39    C     0.60525   0.76270   0.15260   0.01267  Uiso   1.00
C40    C     0.70556   0.78612   0.15360   0.01267  Uiso   1.00
C41    C     0.02174   0.81288   0.15880   0.01267  Uiso   1.00
C42    C     0.92957   0.81314   0.15850   0.01267  Uiso   1.00
C43    C     0.73446   0.08872   0.71221   0.01267  Uiso   1.00
C44    C     0.60997   0.97894   0.66237   0.01267  Uiso   1.00
C45    C     0.07842   0.32904   0.63266   0.01267  Uiso   1.00
C46    C     0.41734   0.69248   0.88105   0.01267  Uiso   1.00
C47    C     0.40120   0.69080   0.92914   0.01267  Uiso   1.00
C48    C     0.87023   0.18606   0.68316   0.01267  Uiso   1.00
C49    C     0.71782   0.67304   0.64882   0.01267  Uiso   1.00
C50    C     0.70022   0.05144   0.66905   0.01267  Uiso   1.00
C51    C     0.14059   0.68298   0.64795   0.01267  Uiso   1.00
C52    C     0.75100   0.08200   0.63213   0.01267  Uiso   1.00
C53    C     0.34936   0.70192   0.01720   0.01267  Uiso   1.00
C54    C     0.43148   0.71136   0.79139   0.01267  Uiso   1.00
C55    C     0.43588   0.71696   0.74240   0.01267  Uiso   1.00
C56    C     0.22631   0.44602   0.66273   0.01267  Uiso   1.00
C57    C     0.31372   0.70184   0.06315   0.01267  Uiso   1.00
C58    C     0.01611   0.30622   0.71972   0.01267  Uiso   1.00
C59    C     0.83461   0.14862   0.64040   0.01267  Uiso   1.00
C60    C     0.60934   0.74768   0.65264   0.01267  Uiso   1.00
C61    C     0.70676   0.74212   0.65354   0.01267  Uiso   1.00
C62    C     0.81864   0.15548   0.71953   0.01267  Uiso   1.00
C63    C     0.36908   0.63896   0.99775   0.01267  Uiso   1.00
C64    C     0.41787   0.76714   0.82097   0.01267  Uiso   1.00
C65    C     0.13310   0.37960   0.66950   0.01267  Uiso   1.00
C66    C     0.38251   0.75362   0.94848   0.01267  Uiso   1.00
C67    C     0.81253   0.67506   0.64882   0.01267  Uiso   1.00
C68    C     0.97088   0.65356   0.64475   0.01267  Uiso   1.00
C69    C     0.22559   0.66026   0.64909   0.01267  Uiso   1.00
C70    C     0.41016   0.75592   0.86532   0.01267  Uiso   1.00
C71    C     0.35912   0.76184   0.99273   0.01267  Uiso   1.00
C72    C     0.10128   0.36816   0.71266   0.01267  Uiso   1.00
C73    C     0.39711   0.63342   0.95431   0.01267  Uiso   1.00
C74    C     0.96120   0.25580   0.68344   0.01267  Uiso   1.00
C75    C     0.99347   0.26874   0.64061   0.01267  Uiso   1.00
C76    C     0.04610   0.62720   0.64290   0.01267  Uiso   1.00
C77    C     0.43924   0.64748   0.80709   0.01267  Uiso   1.00
C78    C     0.98649   0.73118   0.65081   0.01267  Uiso   1.00
C79    C     0.43451   0.63782   0.85180   0.01267  Uiso   1.00
C80    C     0.89457   0.74414   0.65331   0.01267  Uiso   1.00
C81    C     0.15745   0.76270   0.65260   0.01267  Uiso   1.00
C82    C     0.08056   0.78612   0.65360   0.01267  Uiso   1.00
C83    C     0.79114   0.81288   0.65880   0.01267  Uiso   1.00
C84    C     0.88357   0.81314   0.65850   0.01267  Uiso   1.00
S1     S     0.28365   0.19678   0.09991   0.01267  Uiso   1.00
S2     S     0.74928   0.59476   0.14411   0.01267  Uiso   1.00
S3     S     0.43122   0.81478   0.40873   0.01267  Uiso   1.00
S4     S     0.91313   0.19678   0.59991   0.01267  Uiso   1.00
S5     S     0.84548   0.59476   0.64411   0.01267  Uiso   1.00
S6     S     0.38356   0.81478   0.90873   0.01267  Uiso   1.00
O1     O     0.39360   0.95688   0.19663   0.01267  Uiso   1.00
O2     O     0.32912   0.78124   0.22997   0.01267  Uiso   1.00
O3     O     0.44628   0.76516   0.58372   0.01267  Uiso   1.00
O4     O     0.35739   0.63738   0.57717   0.01267  Uiso   1.00
O5     O     0.35817   0.94190   0.12424   0.01267  Uiso   1.00
O6     O     0.19869   0.45276   0.12314   0.01267  Uiso   1.00
O7     O     0.23376   0.65512   0.21763   0.01267  Uiso   1.00
O8     O     0.40153   0.71238   0.15460   0.01267  Uiso   1.00
O9     O     0.22033   0.49226   0.19543   0.01267  Uiso   1.00
O10    O     0.36288   0.22756   0.07152   0.01267  Uiso   1.00
O11    O     0.20555   0.81222   0.16304   0.01267  Uiso   1.00
O12    O     0.37948   0.59042   0.14585   0.01267  Uiso   1.00
O13    O     0.14882   0.68564   0.14052   0.01267  Uiso   1.00
O14    O     0.19033   0.15006   0.07854   0.01267  Uiso   1.00
O15    O     0.73736   0.54732   0.10227   0.01267  Uiso   1.00
O16    O     0.52479   0.81318   0.40140   0.01267  Uiso   1.00
O17    O     0.42759   0.88938   0.41807   0.01267  Uiso   1.00
O18    O     0.73337   0.55674   0.18312   0.01267  Uiso   1.00
O19    O     0.56328   0.95688   0.69663   0.01267  Uiso   1.00
O20    O     0.45212   0.78124   0.72997   0.01267  Uiso   1.00
O21    O     0.31888   0.76516   0.08372   0.01267  Uiso   1.00
O22    O     0.27999   0.63738   0.07717   0.01267  Uiso   1.00
O23    O     0.58373   0.94190   0.62424   0.01267  Uiso   1.00
O24    O     0.25407   0.45276   0.62314   0.01267  Uiso   1.00
O25    O     0.42136   0.65512   0.71763   0.01267  Uiso   1.00
O26    O     0.31085   0.71238   0.65460   0.01267  Uiso   1.00
O27    O     0.27193   0.49226   0.69543   0.01267  Uiso   1.00
O28    O     0.86468   0.22756   0.57152   0.01267  Uiso   1.00
O29    O     0.60667   0.81222   0.66304   0.01267  Uiso   1.00
O30    O     0.21094   0.59042   0.64585   0.01267  Uiso   1.00
O31    O     0.53682   0.68564   0.64052   0.01267  Uiso   1.00
O32    O     0.95973   0.15006   0.57854   0.01267  Uiso   1.00
O33    O     0.80996   0.54732   0.60227   0.01267  Uiso   1.00
O34    O     0.28839   0.81318   0.90140   0.01267  Uiso   1.00
O35    O     0.46179   0.88938   0.91807   0.01267  Uiso   1.00
O36    O     0.82337   0.55674   0.68312   0.01267  Uiso   1.00
Pr5    Pr    0.54615   0.17039   0.34165   0.01267  Uiso   1.00
Pr6    Pr    0.79206   0.41358   0.85550   0.01267  Uiso   1.00
Pr7    Pr    0.62424   0.17039   0.84165   0.01267  Uiso   1.00
Pr8    Pr    0.62152   0.41358   0.35550   0.01267  Uiso   1.00
H37    H     0.30000   0.93180   0.26360   0.01267  Uiso   1.00
H38    H     0.90130   0.66420   0.39610   0.01267  Uiso   1.00
H39    H     0.33610   0.37360   0.35430   0.01267  Uiso   1.00
H40    H     0.27080   0.94160   0.39670   0.01267  Uiso   1.00
H41    H     0.00400   0.70140   0.25160   0.01267  Uiso   1.00
H42    H     0.15960   0.82040   0.25170   0.01267  Uiso   1.00
H43    H     0.63690   0.40020   0.98540   0.01267  Uiso   1.00
H44    H     0.58600   0.18940   0.18860   0.01267  Uiso   1.00
H45    H     0.64950   0.19440   0.99460   0.01267  Uiso   1.00
H46    H     0.86230   0.59760   0.26320   0.01267  Uiso   1.00
H47    H     0.58730   0.40740   0.05760   0.01267  Uiso   1.00
H48    H     0.96650   0.42500   0.36150   0.01267  Uiso   1.00
H49    H     0.55210   0.38980   0.21320   0.01267  Uiso   1.00
H50    H     0.55750   0.40380   0.13820   0.01267  Uiso   1.00
H51    H     0.77890   0.20040   0.34490   0.01267  Uiso   1.00
H52    H     0.90780   0.16180   0.34390   0.01267  Uiso   1.00
H53    H     0.21640   0.14060   0.33750   0.01267  Uiso   1.00
H54    H     0.06200   0.14060   0.33820   0.01267  Uiso   1.00
H55    H     0.63180   0.93180   0.76360   0.01267  Uiso   1.00
H56    H     0.76290   0.66420   0.89610   0.01267  Uiso   1.00
H57    H     0.03750   0.37360   0.85430   0.01267  Uiso   1.00
H58    H     0.67080   0.94160   0.89670   0.01267  Uiso   1.00
H59    H     0.69740   0.70140   0.75160   0.01267  Uiso   1.00
H60    H     0.66080   0.82040   0.75170   0.01267  Uiso   1.00
H61    H     0.76330   0.40020   0.48540   0.01267  Uiso   1.00
H62    H     0.60340   0.18940   0.68860   0.01267  Uiso   1.00
H63    H     0.54490   0.19440   0.49460   0.01267  Uiso   1.00
H64    H     0.73530   0.59760   0.76320   0.01267  Uiso   1.00
H65    H     0.82010   0.40740   0.55760   0.01267  Uiso   1.00
H66    H     0.45850   0.42500   0.86150   0.01267  Uiso   1.00
H67    H     0.83770   0.38980   0.71320   0.01267  Uiso   1.00
H68    H     0.84630   0.40380   0.63820   0.01267  Uiso   1.00
H69    H     0.42150   0.20040   0.84490   0.01267  Uiso   1.00
H70    H     0.25400   0.16180   0.84390   0.01267  Uiso   1.00
H71    H     0.92420   0.14060   0.83750   0.01267  Uiso   1.00
H72    H     0.07860   0.14060   0.83820   0.01267  Uiso   1.00
C85    C     0.26554   0.91128   0.28779   0.01267  Uiso   1.00
C86    C     0.39003   0.02106   0.33763   0.01267  Uiso   1.00
C87    C     0.92158   0.67096   0.36734   0.01267  Uiso   1.00
C88    C     0.58266   0.30752   0.11895   0.01267  Uiso   1.00
C89    C     0.59880   0.30920   0.07086   0.01267  Uiso   1.00
C90    C     0.12977   0.81394   0.31684   0.01267  Uiso   1.00
C91    C     0.28218   0.32696   0.35118   0.01267  Uiso   1.00
C92    C     0.29978   0.94856   0.33095   0.01267  Uiso   1.00
C93    C     0.85941   0.31702   0.35205   0.01267  Uiso   1.00
C94    C     0.24900   0.91800   0.36787   0.01267  Uiso   1.00
C95    C     0.65064   0.29808   0.98280   0.01267  Uiso   1.00
C96    C     0.56852   0.28864   0.20861   0.01267  Uiso   1.00
C97    C     0.56412   0.28304   0.25760   0.01267  Uiso   1.00
C98    C     0.77369   0.55398   0.33727   0.01267  Uiso   1.00
C99    C     0.68628   0.29816   0.93685   0.01267  Uiso   1.00
C100   C     0.98389   0.69378   0.28028   0.01267  Uiso   1.00
C101   C     0.16539   0.85138   0.35960   0.01267  Uiso   1.00
C102   C     0.39066   0.25232   0.34736   0.01267  Uiso   1.00
C103   C     0.29324   0.25788   0.34646   0.01267  Uiso   1.00
C104   C     0.18136   0.84452   0.28047   0.01267  Uiso   1.00
C105   C     0.63092   0.36104   0.00225   0.01267  Uiso   1.00
C106   C     0.58213   0.23286   0.17903   0.01267  Uiso   1.00
C107   C     0.86690   0.62040   0.33050   0.01267  Uiso   1.00
C108   C     0.61749   0.24638   0.05152   0.01267  Uiso   1.00
C109   C     0.18747   0.32494   0.35118   0.01267  Uiso   1.00
C110   C     0.02912   0.34644   0.35525   0.01267  Uiso   1.00
C111   C     0.77441   0.33974   0.35091   0.01267  Uiso   1.00
C112   C     0.58984   0.24408   0.13468   0.01267  Uiso   1.00
C113   C     0.64088   0.23816   0.00727   0.01267  Uiso   1.00
C114   C     0.89872   0.63184   0.28734   0.01267  Uiso   1.00
C115   C     0.60289   0.36658   0.04569   0.01267  Uiso   1.00
C116   C     0.03880   0.74420   0.31656   0.01267  Uiso   1.00
C117   C     0.00653   0.73126   0.35939   0.01267  Uiso   1.00
C118   C     0.95390   0.37280   0.35710   0.01267  Uiso   1.00
C119   C     0.56076   0.35252   0.19291   0.01267  Uiso   1.00
C120   C     0.01351   0.26882   0.34919   0.01267  Uiso   1.00
C121   C     0.56549   0.36218   0.14820   0.01267  Uiso   1.00
C122   C     0.10543   0.25586   0.34669   0.01267  Uiso   1.00
C123   C     0.84255   0.23730   0.34740   0.01267  Uiso   1.00
C124   C     0.91944   0.21388   0.34640   0.01267  Uiso   1.00
C125   C     0.20886   0.18712   0.34120   0.01267  Uiso   1.00
C126   C     0.11643   0.18686   0.34150   0.01267  Uiso   1.00
C127   C     0.64574   0.91128   0.78779   0.01267  Uiso   1.00
C128   C     0.63103   0.02106   0.83763   0.01267  Uiso   1.00
C129   C     0.74938   0.67096   0.86734   0.01267  Uiso   1.00
C130   C     0.72486   0.30752   0.61895   0.01267  Uiso   1.00
C131   C     0.71040   0.30920   0.57086   0.01267  Uiso   1.00
C132   C     0.68417   0.81394   0.81684   0.01267  Uiso   1.00
C133   C     0.04478   0.32696   0.85118   0.01267  Uiso   1.00
C134   C     0.64878   0.94856   0.83095   0.01267  Uiso   1.00
C135   C     0.45761   0.31702   0.85205   0.01267  Uiso   1.00
C136   C     0.66900   0.91800   0.86787   0.01267  Uiso   1.00
C137   C     0.64744   0.29808   0.48280   0.01267  Uiso   1.00
C138   C     0.72012   0.28864   0.70861   0.01267  Uiso   1.00
C139   C     0.71892   0.28304   0.75760   0.01267  Uiso   1.00
C140   C     0.78029   0.55398   0.83727   0.01267  Uiso   1.00
C141   C     0.61188   0.29816   0.43685   0.01267  Uiso   1.00
C142   C     0.70989   0.69378   0.78028   0.01267  Uiso   1.00
C143   C     0.68599   0.85138   0.85960   0.01267  Uiso   1.00
C144   C     0.86166   0.25232   0.84736   0.01267  Uiso   1.00
C145   C     0.96464   0.25788   0.84646   0.01267  Uiso   1.00
C146   C     0.66316   0.84452   0.78047   0.01267  Uiso   1.00
C147   C     0.73012   0.36104   0.50225   0.01267  Uiso   1.00
C148   C     0.65073   0.23286   0.67903   0.01267  Uiso   1.00
C149   C     0.75350   0.62040   0.83050   0.01267  Uiso   1.00
C150   C     0.62889   0.24638   0.55152   0.01267  Uiso   1.00
C151   C     0.13747   0.32494   0.85118   0.01267  Uiso   1.00
C152   C     0.31732   0.34644   0.85525   0.01267  Uiso   1.00
C153   C     0.56533   0.33974   0.85091   0.01267  Uiso   1.00
C154   C     0.65424   0.24408   0.63468   0.01267  Uiso   1.00
C155   C     0.59728   0.23816   0.50727   0.01267  Uiso   1.00
C156   C     0.73312   0.63184   0.78734   0.01267  Uiso   1.00
C157   C     0.76369   0.36658   0.54569   0.01267  Uiso   1.00
C158   C     0.70540   0.74420   0.81656   0.01267  Uiso   1.00
C159   C     0.72473   0.73126   0.85939   0.01267  Uiso   1.00
C160   C     0.41890   0.37280   0.85710   0.01267  Uiso   1.00
C161   C     0.79176   0.35252   0.69291   0.01267  Uiso   1.00
C162   C     0.25531   0.26882   0.84919   0.01267  Uiso   1.00
C163   C     0.79669   0.36218   0.64820   0.01267  Uiso   1.00
C164   C     0.15043   0.25586   0.84669   0.01267  Uiso   1.00
C165   C     0.39475   0.23730   0.84740   0.01267  Uiso   1.00
C166   C     0.29444   0.21388   0.84640   0.01267  Uiso   1.00
C167   C     0.97826   0.18712   0.84120   0.01267  Uiso   1.00
C168   C     0.07043   0.18686   0.84150   0.01267  Uiso   1.00
S7     S     0.08687   0.80322   0.40009   0.01267  Uiso   1.00
S8     S     0.15452   0.40524   0.35589   0.01267  Uiso   1.00
S9     S     0.61644   0.18522   0.09127   0.01267  Uiso   1.00
S10    S     0.71635   0.80322   0.90009   0.01267  Uiso   1.00
S11    S     0.25072   0.40524   0.85589   0.01267  Uiso   1.00
S12    S     0.56878   0.18522   0.59127   0.01267  Uiso   1.00
O37    O     0.43672   0.04312   0.30337   0.01267  Uiso   1.00
O38    O     0.54788   0.21876   0.27003   0.01267  Uiso   1.00
O39    O     0.68112   0.23484   0.91628   0.01267  Uiso   1.00
O40    O     0.72001   0.36262   0.92283   0.01267  Uiso   1.00
O41    O     0.41627   0.05810   0.37576   0.01267  Uiso   1.00
O42    O     0.74593   0.54724   0.37686   0.01267  Uiso   1.00
O43    O     0.57864   0.34488   0.28237   0.01267  Uiso   1.00
O44    O     0.68915   0.28762   0.34540   0.01267  Uiso   1.00
O45    O     0.72807   0.50774   0.30457   0.01267  Uiso   1.00
O46    O     0.13532   0.77244   0.42848   0.01267  Uiso   1.00
O47    O     0.39333   0.18778   0.33696   0.01267  Uiso   1.00
O48    O     0.78906   0.40958   0.35415   0.01267  Uiso   1.00
O49    O     0.46318   0.31436   0.35948   0.01267  Uiso   1.00
O50    O     0.04027   0.84994   0.42146   0.01267  Uiso   1.00
O51    O     0.19004   0.45268   0.39773   0.01267  Uiso   1.00
O52    O     0.71161   0.18682   0.09860   0.01267  Uiso   1.00
O53    O     0.53821   0.11062   0.08193   0.01267  Uiso   1.00
O54    O     0.17663   0.44326   0.31688   0.01267  Uiso   1.00
O55    O     0.60640   0.04312   0.80337   0.01267  Uiso   1.00
O56    O     0.67088   0.21876   0.77003   0.01267  Uiso   1.00
O57    O     0.55372   0.23484   0.41628   0.01267  Uiso   1.00
O58    O     0.64261   0.36262   0.42283   0.01267  Uiso   1.00
O59    O     0.64183   0.05810   0.87576   0.01267  Uiso   1.00
O60    O     0.80131   0.54724   0.87686   0.01267  Uiso   1.00
O61    O     0.76624   0.34488   0.78237   0.01267  Uiso   1.00
O62    O     0.59847   0.28762   0.84540   0.01267  Uiso   1.00
O63    O     0.77967   0.50774   0.80457   0.01267  Uiso   1.00
O64    O     0.63712   0.77244   0.92848   0.01267  Uiso   1.00
O65    O     0.79445   0.18778   0.83696   0.01267  Uiso   1.00
O66    O     0.62052   0.40958   0.85415   0.01267  Uiso   1.00
O67    O     0.85118   0.31436   0.85948   0.01267  Uiso   1.00
O68    O     0.80967   0.84994   0.92146   0.01267  Uiso   1.00
O69    O     0.26264   0.45268   0.89773   0.01267  Uiso   1.00
O70    O     0.47521   0.18682   0.59860   0.01267  Uiso   1.00
O71    O     0.57241   0.11062   0.58193   0.01267  Uiso   1.00
O72    O     0.26663   0.44326   0.81688   0.01267  Uiso   1.00
