data_YUSGOJ_clean
_audit_creation_date              2015-05-14
_audit_creation_method            'Materials Studio'
_symmetry_space_group_name_H-M    'P1'
_symmetry_Int_Tables_number       1
_symmetry_cell_setting            triclinic
loop_
_symmetry_equiv_pos_as_xyz
  x,y,z
_cell_length_a                    9.5591
_cell_length_b                    9.7820
_cell_length_c                    18.2880
_cell_angle_alpha                 78.7500
_cell_angle_beta                  86.2800
_cell_angle_gamma                 68.7300
loop_
_atom_site_label
_atom_site_type_symbol
_atom_site_fract_x
_atom_site_fract_y
_atom_site_fract_z
_atom_site_U_iso_or_equiv
_atom_site_adp_type
_atom_site_occupancy
Zn1    Zn    0.09403   0.09600   0.97434   0.01267  Uiso   1.00
Zn2    Zn    0.18201   0.88960   0.14695   0.01267  Uiso   1.00
Zn3    Zn    0.90597   0.90400   0.02566   0.01267  Uiso   1.00
Zn4    Zn    0.81799   0.11040   0.85305   0.01267  Uiso   1.00
H5     H     0.96370   0.06610   0.70590   0.01267  Uiso   1.00
H6     H     0.05490   0.19430   0.60670   0.01267  Uiso   1.00
H7     H     0.92340   0.54360   0.70020   0.01267  Uiso   1.00
H8     H     0.82100   0.41840   0.79920   0.01267  Uiso   1.00
H9     H     0.07130   0.55030   0.57440   0.01267  Uiso   1.00
H10    H     0.87630   0.68430   0.49280   0.01267  Uiso   1.00
H11    H     0.78000   0.34290   0.47890   0.01267  Uiso   1.00
H12    H     0.61740   0.27000   0.56440   0.01267  Uiso   1.00
H13    H     0.53190   0.64030   0.65190   0.01267  Uiso   1.00
H14    H     0.69460   0.71310   0.56630   0.01267  Uiso   1.00
H15    H     0.48070   0.46840   0.72230   0.01267  Uiso   1.00
H16    H     0.49740   0.22920   0.66650   0.01267  Uiso   1.00
H17    H     0.36660   0.07530   0.73510   0.01267  Uiso   1.00
H18    H     0.26170   0.99380   0.84050   0.01267  Uiso   1.00
H19    H     0.14220   0.38530   0.90160   0.01267  Uiso   1.00
H20    H     0.25970   0.47220   0.79430   0.01267  Uiso   1.00
H21    H     0.57210   0.53790   0.06680   0.01267  Uiso   1.00
H22    H     0.87090   0.54450   0.90130   0.01267  Uiso   1.00
H23    H     0.51370   0.91650   0.91660   0.01267  Uiso   1.00
H24    H     0.03630   0.93390   0.29410   0.01267  Uiso   1.00
H25    H     0.94510   0.80570   0.39330   0.01267  Uiso   1.00
H26    H     0.07660   0.45640   0.29980   0.01267  Uiso   1.00
H27    H     0.17900   0.58160   0.20080   0.01267  Uiso   1.00
H28    H     0.92870   0.44970   0.42560   0.01267  Uiso   1.00
H29    H     0.12370   0.31570   0.50720   0.01267  Uiso   1.00
H30    H     0.22000   0.65710   0.52110   0.01267  Uiso   1.00
H31    H     0.38260   0.73000   0.43560   0.01267  Uiso   1.00
H32    H     0.46810   0.35970   0.34810   0.01267  Uiso   1.00
H33    H     0.30540   0.28690   0.43370   0.01267  Uiso   1.00
H34    H     0.51930   0.53160   0.27770   0.01267  Uiso   1.00
H35    H     0.50260   0.77080   0.33350   0.01267  Uiso   1.00
H36    H     0.63340   0.92470   0.26490   0.01267  Uiso   1.00
H37    H     0.73830   0.00620   0.15950   0.01267  Uiso   1.00
H38    H     0.85780   0.61470   0.09840   0.01267  Uiso   1.00
H39    H     0.74030   0.52780   0.20570   0.01267  Uiso   1.00
H40    H     0.42790   0.46210   0.93320   0.01267  Uiso   1.00
H41    H     0.12910   0.45550   0.09870   0.01267  Uiso   1.00
H42    H     0.48630   0.08350   0.08340   0.01267  Uiso   1.00
C43    C     0.95020   0.16600   0.70650   0.01267  Uiso   1.00
C44    C     0.00470   0.24800   0.64390   0.01267  Uiso   1.00
C45    C     0.99180   0.39260   0.63270   0.01267  Uiso   1.00
C46    C     0.92840   0.44700   0.69730   0.01267  Uiso   1.00
C47    C     0.86930   0.36860   0.76040   0.01267  Uiso   1.00
C48    C     0.02540   0.48220   0.56130   0.01267  Uiso   1.00
C49    C     0.89890   0.57600   0.49910   0.01267  Uiso   1.00
C50    C     0.75300   0.53500   0.51430   0.01267  Uiso   1.00
C51    C     0.73000   0.40290   0.51380   0.01267  Uiso   1.00
C52    C     0.63290   0.35940   0.56480   0.01267  Uiso   1.00
C53    C     0.55890   0.44810   0.61640   0.01267  Uiso   1.00
C54    C     0.58190   0.58030   0.61700   0.01267  Uiso   1.00
C55    C     0.67900   0.62370   0.56590   0.01267  Uiso   1.00
C56    C     0.49550   0.40900   0.68580   0.01267  Uiso   1.00
C57    C     0.46000   0.29850   0.69860   0.01267  Uiso   1.00
C58    C     0.35810   0.26320   0.76300   0.01267  Uiso   1.00
C59    C     0.33380   0.13540   0.77170   0.01267  Uiso   1.00
C60    C     0.26260   0.09140   0.83250   0.01267  Uiso   1.00
C61    C     0.19280   0.32000   0.86900   0.01267  Uiso   1.00
C62    C     0.26810   0.37160   0.80670   0.01267  Uiso   1.00
C63    C     0.52650   0.73630   0.99730   0.01267  Uiso   1.00
C64    C     0.60580   0.58880   0.02460   0.01267  Uiso   1.00
C65    C     0.73940   0.51400   0.98820   0.01267  Uiso   1.00
C66    C     0.78370   0.59390   0.92640   0.01267  Uiso   1.00
C67    C     0.70640   0.74170   0.90010   0.01267  Uiso   1.00
C68    C     0.57130   0.81610   0.93500   0.01267  Uiso   1.00
C69    C     0.38000   0.82070   0.03380   0.01267  Uiso   1.00
C70    C     0.83040   0.35430   0.01780   0.01267  Uiso   1.00
C71    C     0.04980   0.83400   0.29350   0.01267  Uiso   1.00
C72    C     0.99530   0.75200   0.35610   0.01267  Uiso   1.00
C73    C     0.00820   0.60740   0.36730   0.01267  Uiso   1.00
C74    C     0.07160   0.55300   0.30270   0.01267  Uiso   1.00
C75    C     0.13070   0.63140   0.23960   0.01267  Uiso   1.00
C76    C     0.97460   0.51780   0.43870   0.01267  Uiso   1.00
C77    C     0.10110   0.42400   0.50090   0.01267  Uiso   1.00
C78    C     0.24700   0.46500   0.48570   0.01267  Uiso   1.00
C79    C     0.27000   0.59710   0.48620   0.01267  Uiso   1.00
C80    C     0.36710   0.64060   0.43520   0.01267  Uiso   1.00
C81    C     0.44110   0.55190   0.38360   0.01267  Uiso   1.00
C82    C     0.41810   0.41970   0.38300   0.01267  Uiso   1.00
C83    C     0.32100   0.37630   0.43410   0.01267  Uiso   1.00
C84    C     0.50450   0.59100   0.31420   0.01267  Uiso   1.00
C85    C     0.54000   0.70150   0.30140   0.01267  Uiso   1.00
C86    C     0.64190   0.73680   0.23700   0.01267  Uiso   1.00
C87    C     0.66620   0.86460   0.22830   0.01267  Uiso   1.00
C88    C     0.73740   0.90860   0.16750   0.01267  Uiso   1.00
C89    C     0.80720   0.68000   0.13100   0.01267  Uiso   1.00
C90    C     0.73190   0.62840   0.19330   0.01267  Uiso   1.00
C91    C     0.47350   0.26370   0.00270   0.01267  Uiso   1.00
C92    C     0.39420   0.41120   0.97540   0.01267  Uiso   1.00
C93    C     0.26060   0.48600   0.01180   0.01267  Uiso   1.00
C94    C     0.21630   0.40610   0.07360   0.01267  Uiso   1.00
C95    C     0.29360   0.25830   0.09990   0.01267  Uiso   1.00
C96    C     0.42870   0.18390   0.06500   0.01267  Uiso   1.00
C97    C     0.62000   0.17930   0.96620   0.01267  Uiso   1.00
C98    C     0.16960   0.64570   0.98220   0.01267  Uiso   1.00
S99    S     0.75940   0.83040   0.81440   0.01267  Uiso   1.00
S100   S     0.24060   0.16960   0.18560   0.01267  Uiso   1.00
N101   N     0.88320   0.22370   0.76380   0.01267  Uiso   1.00
N102   N     0.19160   0.17860   0.88320   0.01267  Uiso   1.00
N103   N     0.11680   0.77630   0.23620   0.01267  Uiso   1.00
N104   N     0.80840   0.82140   0.11680   0.01267  Uiso   1.00
O105   O     0.30870   0.95430   0.00640   0.01267  Uiso   1.00
O106   O     0.34060   0.75240   0.09610   0.01267  Uiso   1.00
O107   O     0.79270   0.27950   0.07270   0.01267  Uiso   1.00
O108   O     0.95240   0.29900   0.97880   0.01267  Uiso   1.00
O109   O     0.71860   0.99050   0.81910   0.01267  Uiso   1.00
O110   O     0.67170   0.81440   0.75770   0.01267  Uiso   1.00
O111   O     0.92090   0.75840   0.80730   0.01267  Uiso   1.00
O112   O     0.98620   0.99230   0.92540   0.01267  Uiso   1.00
O113   O     0.69130   0.04570   0.99360   0.01267  Uiso   1.00
O114   O     0.65940   0.24760   0.90390   0.01267  Uiso   1.00
O115   O     0.20730   0.72050   0.92730   0.01267  Uiso   1.00
O116   O     0.04760   0.70100   0.02120   0.01267  Uiso   1.00
O117   O     0.28140   0.00950   0.18090   0.01267  Uiso   1.00
O118   O     0.32830   0.18560   0.24230   0.01267  Uiso   1.00
O119   O     0.07910   0.24160   0.19270   0.01267  Uiso   1.00
O120   O     0.01380   0.00770   0.07460   0.01267  Uiso   1.00
H121   H     0.98620   0.88807   0.93628   0.01267  Uiso   1.00
H122   H     0.01380   0.11193   0.06372   0.01267  Uiso   1.00
