data_image0
_cell_length_a       18.3085
_cell_length_b       9.0788
_cell_length_c       19.6464
_cell_angle_alpha    90
_cell_angle_beta     97.068
_cell_angle_gamma    90

_symmetry_space_group_name_H-M    "P 1"
_symmetry_int_tables_number       1

loop_
  _symmetry_equiv_pos_as_xyz
  'x, y, z'

loop_
  _atom_site_label
  _atom_site_occupancy
  _atom_site_fract_x
  _atom_site_fract_y
  _atom_site_fract_z
  _atom_site_thermal_displace_type
  _atom_site_B_iso_or_equiv
  _atom_site_type_symbol
  O1       1.0000 0.09341  0.59390  0.96614  Biso   1.000  O
  O2       1.0000 0.36748  0.55370  0.99047  Biso   1.000  O
  O3       1.0000 0.40657  0.32990  0.95942  Biso   1.000  O
  C1       1.0000 0.35771  0.42710  0.96656  Biso   1.000  C
  Dy1      1.0000 0.97154  0.21224  0.99780  Biso   1.000  Dy
  O4       1.0000 0.99321  0.95890  0.07480  Biso   1.000  O
  O5       1.0000 0.22500  0.46970  0.95546  Biso   1.000  O
  O6       1.0000 0.97247  0.17640  0.11941  Biso   1.000  O
  C2       1.0000 0.17733  0.26440  0.90267  Biso   1.000  C
  H1       1.0000 0.14390  0.19440  0.88330  Biso   1.000  H
  O7       1.0000 0.03425  0.38100  0.93884  Biso   1.000  O
  C3       1.0000 0.98673  0.04150  0.12590  Biso   1.000  C
  C4       1.0000 0.25443  0.25580  0.90730  Biso   1.000  C
  H2       1.0000 0.28190  0.18070  0.89060  Biso   1.000  H
  C5       1.0000 0.99731  0.83290  0.21319  Biso   1.000  C
  H3       1.0000 0.99550  0.75050  0.18490  Biso   1.000  H
  C6       1.0000 0.09056  0.46210  0.94686  Biso   1.000  C
  C7       1.0000 0.99539  0.97490  0.19277  Biso   1.000  C
  C8       1.0000 0.28106  0.37950  0.94110  Biso   1.000  C
  C9       1.0000 0.16066  0.39400  0.93176  Biso   1.000  C
  O8       1.0000 0.59341  0.09390  0.96614  Biso   1.000  O
  O9       1.0000 0.86748  0.05370  0.99047  Biso   1.000  O
  O10      1.0000 0.90657  0.82990  0.95942  Biso   1.000  O
  C10      1.0000 0.85771  0.92710  0.96656  Biso   1.000  C
  Dy2      1.0000 0.47154  0.71224  0.99780  Biso   1.000  Dy
  O11      1.0000 0.49321  0.45890  0.07480  Biso   1.000  O
  O12      1.0000 0.72500  0.96970  0.95546  Biso   1.000  O
  O13      1.0000 0.47247  0.67640  0.11941  Biso   1.000  O
  C11      1.0000 0.67733  0.76440  0.90267  Biso   1.000  C
  H4       1.0000 0.64390  0.69440  0.88330  Biso   1.000  H
  O14      1.0000 0.53425  0.88100  0.93884  Biso   1.000  O
  C12      1.0000 0.48673  0.54150  0.12590  Biso   1.000  C
  C13      1.0000 0.75443  0.75580  0.90730  Biso   1.000  C
  H5       1.0000 0.78190  0.68070  0.89060  Biso   1.000  H
  C14      1.0000 0.49731  0.33290  0.21319  Biso   1.000  C
  H6       1.0000 0.49550  0.25050  0.18490  Biso   1.000  H
  C15      1.0000 0.59056  0.96210  0.94686  Biso   1.000  C
  C16      1.0000 0.49539  0.47490  0.19277  Biso   1.000  C
  C17      1.0000 0.78106  0.87950  0.94110  Biso   1.000  C
  C18      1.0000 0.66066  0.89400  0.93176  Biso   1.000  C
  O15      1.0000 0.90659  0.59390  0.53386  Biso   1.000  O
  O16      1.0000 0.63252  0.55370  0.50953  Biso   1.000  O
  O17      1.0000 0.59343  0.32990  0.54058  Biso   1.000  O
  C19      1.0000 0.64229  0.42710  0.53344  Biso   1.000  C
  Dy3      1.0000 0.02846  0.21224  0.50220  Biso   1.000  Dy
  O18      1.0000 0.00679  0.95890  0.42520  Biso   1.000  O
  O19      1.0000 0.77500  0.46970  0.54454  Biso   1.000  O
  O20      1.0000 0.02753  0.17640  0.38059  Biso   1.000  O
  C20      1.0000 0.82267  0.26440  0.59733  Biso   1.000  C
  H7       1.0000 0.85610  0.19440  0.61670  Biso   1.000  H
  O21      1.0000 0.96575  0.38100  0.56116  Biso   1.000  O
  C21      1.0000 0.01327  0.04150  0.37410  Biso   1.000  C
  C22      1.0000 0.74557  0.25580  0.59270  Biso   1.000  C
  H8       1.0000 0.71810  0.18070  0.60940  Biso   1.000  H
  C23      1.0000 0.00269  0.83290  0.28681  Biso   1.000  C
  H9       1.0000 0.00450  0.75050  0.31510  Biso   1.000  H
  C24      1.0000 0.90944  0.46210  0.55314  Biso   1.000  C
  C25      1.0000 0.00461  0.97490  0.30723  Biso   1.000  C
  C26      1.0000 0.71894  0.37950  0.55890  Biso   1.000  C
  C27      1.0000 0.83934  0.39400  0.56824  Biso   1.000  C
  O22      1.0000 0.40659  0.09390  0.53386  Biso   1.000  O
  O23      1.0000 0.13252  0.05370  0.50953  Biso   1.000  O
  O24      1.0000 0.09343  0.82990  0.54058  Biso   1.000  O
  C28      1.0000 0.14229  0.92710  0.53344  Biso   1.000  C
  Dy4      1.0000 0.52846  0.71224  0.50220  Biso   1.000  Dy
  O25      1.0000 0.50679  0.45890  0.42520  Biso   1.000  O
  O26      1.0000 0.27500  0.96970  0.54454  Biso   1.000  O
  O27      1.0000 0.52753  0.67640  0.38059  Biso   1.000  O
  C29      1.0000 0.32267  0.76440  0.59733  Biso   1.000  C
  H10      1.0000 0.35610  0.69440  0.61670  Biso   1.000  H
  O28      1.0000 0.46575  0.88100  0.56116  Biso   1.000  O
  C30      1.0000 0.51327  0.54150  0.37410  Biso   1.000  C
  C31      1.0000 0.24557  0.75580  0.59270  Biso   1.000  C
  H11      1.0000 0.21810  0.68070  0.60940  Biso   1.000  H
  C32      1.0000 0.50269  0.33290  0.28681  Biso   1.000  C
  H12      1.0000 0.50450  0.25050  0.31510  Biso   1.000  H
  C33      1.0000 0.40944  0.96210  0.55314  Biso   1.000  C
  C34      1.0000 0.50461  0.47490  0.30723  Biso   1.000  C
  C35      1.0000 0.21894  0.87950  0.55890  Biso   1.000  C
  C36      1.0000 0.33934  0.89400  0.56824  Biso   1.000  C
  O29      1.0000 0.90659  0.40610  0.03386  Biso   1.000  O
  O30      1.0000 0.63252  0.44630  0.00953  Biso   1.000  O
  O31      1.0000 0.59343  0.67010  0.04058  Biso   1.000  O
  C37      1.0000 0.64229  0.57290  0.03344  Biso   1.000  C
  Dy5      1.0000 0.02846  0.78776  0.00220  Biso   1.000  Dy
  O32      1.0000 0.00679  0.04110  0.92520  Biso   1.000  O
  O33      1.0000 0.77500  0.53030  0.04454  Biso   1.000  O
  O34      1.0000 0.02753  0.82360  0.88059  Biso   1.000  O
  C38      1.0000 0.82267  0.73560  0.09733  Biso   1.000  C
  H13      1.0000 0.85610  0.80560  0.11670  Biso   1.000  H
  O35      1.0000 0.96575  0.61900  0.06116  Biso   1.000  O
  C39      1.0000 0.01327  0.95850  0.87410  Biso   1.000  C
  C40      1.0000 0.74557  0.74420  0.09270  Biso   1.000  C
  H14      1.0000 0.71810  0.81930  0.10940  Biso   1.000  H
  C41      1.0000 0.00269  0.16710  0.78681  Biso   1.000  C
  H15      1.0000 0.00450  0.24950  0.81510  Biso   1.000  H
  C42      1.0000 0.90944  0.53790  0.05314  Biso   1.000  C
  C43      1.0000 0.00461  0.02510  0.80723  Biso   1.000  C
  C44      1.0000 0.71894  0.62050  0.05890  Biso   1.000  C
  C45      1.0000 0.83934  0.60600  0.06824  Biso   1.000  C
  O36      1.0000 0.40659  0.90610  0.03386  Biso   1.000  O
  O37      1.0000 0.13252  0.94630  0.00953  Biso   1.000  O
  O38      1.0000 0.09343  0.17010  0.04058  Biso   1.000  O
  C46      1.0000 0.14229  0.07290  0.03344  Biso   1.000  C
  Dy6      1.0000 0.52846  0.28776  0.00220  Biso   1.000  Dy
  O39      1.0000 0.50679  0.54110  0.92520  Biso   1.000  O
  O40      1.0000 0.27500  0.03030  0.04454  Biso   1.000  O
  O41      1.0000 0.52753  0.32360  0.88059  Biso   1.000  O
  C47      1.0000 0.32267  0.23560  0.09733  Biso   1.000  C
  H16      1.0000 0.35610  0.30560  0.11670  Biso   1.000  H
  O42      1.0000 0.46575  0.11900  0.06116  Biso   1.000  O
  C48      1.0000 0.51327  0.45850  0.87410  Biso   1.000  C
  C49      1.0000 0.24557  0.24420  0.09270  Biso   1.000  C
  H17      1.0000 0.21810  0.31930  0.10940  Biso   1.000  H
  C50      1.0000 0.50269  0.66710  0.78681  Biso   1.000  C
  H18      1.0000 0.50450  0.74950  0.81510  Biso   1.000  H
  C51      1.0000 0.40944  0.03790  0.05314  Biso   1.000  C
  C52      1.0000 0.50461  0.52510  0.80723  Biso   1.000  C
  C53      1.0000 0.21894  0.12050  0.05890  Biso   1.000  C
  C54      1.0000 0.33934  0.10600  0.06824  Biso   1.000  C
  O43      1.0000 0.09341  0.40610  0.46614  Biso   1.000  O
  O44      1.0000 0.36748  0.44630  0.49047  Biso   1.000  O
  O45      1.0000 0.40657  0.67010  0.45942  Biso   1.000  O
  C55      1.0000 0.35771  0.57290  0.46656  Biso   1.000  C
  Dy7      1.0000 0.97154  0.78776  0.49780  Biso   1.000  Dy
  O46      1.0000 0.99321  0.04110  0.57480  Biso   1.000  O
  O47      1.0000 0.22500  0.53030  0.45546  Biso   1.000  O
  O48      1.0000 0.97247  0.82360  0.61941  Biso   1.000  O
  C56      1.0000 0.17733  0.73560  0.40267  Biso   1.000  C
  H19      1.0000 0.14390  0.80560  0.38330  Biso   1.000  H
  O49      1.0000 0.03425  0.61900  0.43884  Biso   1.000  O
  C57      1.0000 0.98673  0.95850  0.62590  Biso   1.000  C
  C58      1.0000 0.25443  0.74420  0.40730  Biso   1.000  C
  H20      1.0000 0.28190  0.81930  0.39060  Biso   1.000  H
  C59      1.0000 0.99731  0.16710  0.71319  Biso   1.000  C
  H21      1.0000 0.99550  0.24950  0.68490  Biso   1.000  H
  C60      1.0000 0.09056  0.53790  0.44686  Biso   1.000  C
  C61      1.0000 0.99539  0.02510  0.69277  Biso   1.000  C
  C62      1.0000 0.28106  0.62050  0.44110  Biso   1.000  C
  C63      1.0000 0.16066  0.60600  0.43176  Biso   1.000  C
  O50      1.0000 0.59341  0.90610  0.46614  Biso   1.000  O
  O51      1.0000 0.86748  0.94630  0.49047  Biso   1.000  O
  O52      1.0000 0.90657  0.17010  0.45942  Biso   1.000  O
  C64      1.0000 0.85771  0.07290  0.46656  Biso   1.000  C
  Dy8      1.0000 0.47154  0.28776  0.49780  Biso   1.000  Dy
  O53      1.0000 0.49321  0.54110  0.57480  Biso   1.000  O
  O54      1.0000 0.72500  0.03030  0.45546  Biso   1.000  O
  O55      1.0000 0.47247  0.32360  0.61941  Biso   1.000  O
  C65      1.0000 0.67733  0.23560  0.40267  Biso   1.000  C
  H22      1.0000 0.64390  0.30560  0.38330  Biso   1.000  H
  O56      1.0000 0.53425  0.11900  0.43884  Biso   1.000  O
  C66      1.0000 0.48673  0.45850  0.62590  Biso   1.000  C
  C67      1.0000 0.75443  0.24420  0.40730  Biso   1.000  C
  H23      1.0000 0.78190  0.31930  0.39060  Biso   1.000  H
  C68      1.0000 0.49731  0.66710  0.71319  Biso   1.000  C
  H24      1.0000 0.49550  0.74950  0.68490  Biso   1.000  H
  C69      1.0000 0.59056  0.03790  0.44686  Biso   1.000  C
  C70      1.0000 0.49539  0.52510  0.69277  Biso   1.000  C
  C71      1.0000 0.78106  0.12050  0.44110  Biso   1.000  C
  C72      1.0000 0.66066  0.10600  0.43176  Biso   1.000  C
  O57      1.0000 0.00000  0.06560  0.25000  Biso   1.000  O
  O58      1.0000 0.50000  0.56560  0.25000  Biso   1.000  O
  O59      1.0000 0.00000  0.93440  0.75000  Biso   1.000  O
  O60      1.0000 0.50000  0.43440  0.75000  Biso   1.000  O
