data_image0
_cell_length_a       13.1587
_cell_length_b       13.1587
_cell_length_c       16.1012
_cell_angle_alpha    90
_cell_angle_beta     90
_cell_angle_gamma    120

_symmetry_space_group_name_H-M    "P 1"
_symmetry_int_tables_number       1

loop_
  _symmetry_equiv_pos_as_xyz
  'x, y, z'

loop_
  _atom_site_label
  _atom_site_occupancy
  _atom_site_fract_x
  _atom_site_fract_y
  _atom_site_fract_z
  _atom_site_thermal_displace_type
  _atom_site_B_iso_or_equiv
  _atom_site_type_symbol
  P1       1.0000 0.14800  0.67150  0.14720  Biso   1.000  P
  Al1      1.0000 0.12190  0.45900  0.60630  Biso   1.000  Al
  Al2      1.0000 0.11270  0.45010  0.24290  Biso   1.000  Al
  P2       1.0000 0.15840  0.68180  0.70640  Biso   1.000  P
  Si1      1.0000 0.21200  0.52760  0.42370  Biso   1.000  Si
  O1       1.0000 0.14580  0.58650  0.21560  Biso   1.000  O
  O2       1.0000 0.02030  0.64040  0.12370  Biso   1.000  O
  O3       1.0000 0.21910  0.80390  0.17960  Biso   1.000  O
  O4       1.0000 0.21830  0.67050  0.06950  Biso   1.000  O
  O5       1.0000 0.23710  0.81790  0.68220  Biso   1.000  O
  O6       1.0000 0.14790  0.59180  0.63830  Biso   1.000  O
  O7       1.0000 0.13800  0.45340  0.50190  Biso   1.000  O
  O8       1.0000 0.03600  0.66680  0.73600  Biso   1.000  O
  O9       1.0000 0.15070  0.46300  0.33880  Biso   1.000  O
  O10      1.0000 0.21440  0.67520  0.79380  Biso   1.000  O
  O11      1.0000 0.34400  0.55480  0.42550  Biso   1.000  O
  P3       1.0000 0.32850  0.47650  0.14720  Biso   1.000  P
  Al3      1.0000 0.54100  0.66290  0.60630  Biso   1.000  Al
  Al4      1.0000 0.54990  0.66260  0.24290  Biso   1.000  Al
  P4       1.0000 0.31820  0.47660  0.70640  Biso   1.000  P
  Si2      1.0000 0.47240  0.68440  0.42370  Biso   1.000  Si
  O12      1.0000 0.41350  0.55930  0.21560  Biso   1.000  O
  O13      1.0000 0.35960  0.37990  0.12370  Biso   1.000  O
  O14      1.0000 0.19610  0.41520  0.17960  Biso   1.000  O
  O15      1.0000 0.32950  0.54780  0.06950  Biso   1.000  O
  O16      1.0000 0.18210  0.41920  0.68220  Biso   1.000  O
  O17      1.0000 0.40820  0.55610  0.63830  Biso   1.000  O
  O18      1.0000 0.54660  0.68460  0.50190  Biso   1.000  O
  O19      1.0000 0.33320  0.36920  0.73600  Biso   1.000  O
  O20      1.0000 0.53700  0.68770  0.33880  Biso   1.000  O
  O21      1.0000 0.32480  0.53920  0.79380  Biso   1.000  O
  O22      1.0000 0.44520  0.78920  0.42550  Biso   1.000  O
  P5       1.0000 0.52350  0.85200  0.14720  Biso   1.000  P
  Al5      1.0000 0.33710  0.87810  0.60630  Biso   1.000  Al
  Al6      1.0000 0.33740  0.88730  0.24290  Biso   1.000  Al
  P6       1.0000 0.52340  0.84160  0.70640  Biso   1.000  P
  Si3      1.0000 0.31560  0.78800  0.42370  Biso   1.000  Si
  O23      1.0000 0.44070  0.85420  0.21560  Biso   1.000  O
  O24      1.0000 0.62010  0.97970  0.12370  Biso   1.000  O
  O25      1.0000 0.58480  0.78090  0.17960  Biso   1.000  O
  O26      1.0000 0.45220  0.78170  0.06950  Biso   1.000  O
  O27      1.0000 0.58080  0.76290  0.68220  Biso   1.000  O
  O28      1.0000 0.44390  0.85210  0.63830  Biso   1.000  O
  O29      1.0000 0.31540  0.86200  0.50190  Biso   1.000  O
  O30      1.0000 0.63080  0.96400  0.73600  Biso   1.000  O
  O31      1.0000 0.31230  0.84930  0.33880  Biso   1.000  O
  O32      1.0000 0.46080  0.78560  0.79380  Biso   1.000  O
  O33      1.0000 0.21080  0.65600  0.42550  Biso   1.000  O
  P7       1.0000 0.85200  0.32850  0.64720  Biso   1.000  P
  Al7      1.0000 0.87810  0.54100  0.10630  Biso   1.000  Al
  Al8      1.0000 0.88730  0.54990  0.74290  Biso   1.000  Al
  P8       1.0000 0.84160  0.31820  0.20640  Biso   1.000  P
  Si4      1.0000 0.78800  0.47240  0.92370  Biso   1.000  Si
  O34      1.0000 0.85420  0.41350  0.71560  Biso   1.000  O
  O35      1.0000 0.97970  0.35960  0.62370  Biso   1.000  O
  O36      1.0000 0.78090  0.19610  0.67960  Biso   1.000  O
  O37      1.0000 0.78170  0.32950  0.56950  Biso   1.000  O
  O38      1.0000 0.76290  0.18210  0.18220  Biso   1.000  O
  O39      1.0000 0.85210  0.40820  0.13830  Biso   1.000  O
  O40      1.0000 0.86200  0.54660  0.00190  Biso   1.000  O
  O41      1.0000 0.96400  0.33320  0.23600  Biso   1.000  O
  O42      1.0000 0.84930  0.53700  0.83880  Biso   1.000  O
  O43      1.0000 0.78560  0.32480  0.29380  Biso   1.000  O
  O44      1.0000 0.65600  0.44520  0.92550  Biso   1.000  O
  P9       1.0000 0.67150  0.52350  0.64720  Biso   1.000  P
  Al9      1.0000 0.45900  0.33710  0.10630  Biso   1.000  Al
  Al10     1.0000 0.45010  0.33740  0.74290  Biso   1.000  Al
  P10      1.0000 0.68180  0.52340  0.20640  Biso   1.000  P
  Si5      1.0000 0.52760  0.31560  0.92370  Biso   1.000  Si
  O45      1.0000 0.58650  0.44070  0.71560  Biso   1.000  O
  O46      1.0000 0.64040  0.62010  0.62370  Biso   1.000  O
  O47      1.0000 0.80390  0.58480  0.67960  Biso   1.000  O
  O48      1.0000 0.67050  0.45220  0.56950  Biso   1.000  O
  O49      1.0000 0.81790  0.58080  0.18220  Biso   1.000  O
  O50      1.0000 0.59180  0.44390  0.13830  Biso   1.000  O
  O51      1.0000 0.45340  0.31540  0.00190  Biso   1.000  O
  O52      1.0000 0.66680  0.63080  0.23600  Biso   1.000  O
  O53      1.0000 0.46300  0.31230  0.83880  Biso   1.000  O
  O54      1.0000 0.67520  0.46080  0.29380  Biso   1.000  O
  O55      1.0000 0.55480  0.21080  0.92550  Biso   1.000  O
  P11      1.0000 0.47650  0.14800  0.64720  Biso   1.000  P
  Al11     1.0000 0.66290  0.12190  0.10630  Biso   1.000  Al
  Al12     1.0000 0.66260  0.11270  0.74290  Biso   1.000  Al
  P12      1.0000 0.47660  0.15840  0.20640  Biso   1.000  P
  Si6      1.0000 0.68440  0.21200  0.92370  Biso   1.000  Si
  O56      1.0000 0.55930  0.14580  0.71560  Biso   1.000  O
  O57      1.0000 0.37990  0.02030  0.62370  Biso   1.000  O
  O58      1.0000 0.41520  0.21910  0.67960  Biso   1.000  O
  O59      1.0000 0.54780  0.21830  0.56950  Biso   1.000  O
  O60      1.0000 0.41920  0.23710  0.18220  Biso   1.000  O
  O61      1.0000 0.55610  0.14790  0.13830  Biso   1.000  O
  O62      1.0000 0.68460  0.13800  0.00190  Biso   1.000  O
  O63      1.0000 0.36920  0.03600  0.23600  Biso   1.000  O
  O64      1.0000 0.68770  0.15070  0.83880  Biso   1.000  O
  O65      1.0000 0.53920  0.21440  0.29380  Biso   1.000  O
  O66      1.0000 0.78920  0.34400  0.92550  Biso   1.000  O
  Al13     1.0000 0.33333  0.66667  0.01550  Biso   1.000  Al
  Al14     1.0000 0.33333  0.66667  0.84280  Biso   1.000  Al
  Al15     1.0000 0.66667  0.33333  0.51550  Biso   1.000  Al
  Al16     1.0000 0.66667  0.33333  0.34280  Biso   1.000  Al
