data_image0
_cell_length_a       17.995
_cell_length_b       15.57
_cell_length_c       12.36
_cell_angle_alpha    90
_cell_angle_beta     92.6
_cell_angle_gamma    90

_symmetry_space_group_name_H-M    "P 1"
_symmetry_int_tables_number       1

loop_
  _symmetry_equiv_pos_as_xyz
  'x, y, z'

loop_
  _atom_site_label
  _atom_site_occupancy
  _atom_site_fract_x
  _atom_site_fract_y
  _atom_site_fract_z
  _atom_site_thermal_displace_type
  _atom_site_B_iso_or_equiv
  _atom_site_type_symbol
  Sn1      1.0000 0.72490  0.53900  0.29970  Biso   1.000  Sn
  C1       1.0000 0.76810  0.35830  0.43720  Biso   1.000  C
  C2       1.0000 0.65740  0.25090  0.41900  Biso   1.000  C
  C3       1.0000 0.79220  0.19150  0.38220  Biso   1.000  C
  C4       1.0000 0.80130  0.62610  0.38090  Biso   1.000  C
  C5       1.0000 0.61760  0.51800  0.36340  Biso   1.000  C
  C6       1.0000 0.74360  0.47250  0.15270  Biso   1.000  C
  C7       1.0000 0.56390  0.33040  0.13890  Biso   1.000  C
  N1       1.0000 0.77620  0.42540  0.39640  Biso   1.000  N
  N2       1.0000 0.60230  0.25520  0.36860  Biso   1.000  N
  N3       1.0000 0.81550  0.15620  0.30910  Biso   1.000  N
  Sn2      1.0000 0.22490  0.03900  0.29970  Biso   1.000  Sn
  C8       1.0000 0.26810  0.85830  0.43720  Biso   1.000  C
  C9       1.0000 0.15740  0.75090  0.41900  Biso   1.000  C
  C10      1.0000 0.29220  0.69150  0.38220  Biso   1.000  C
  C11      1.0000 0.30130  0.12610  0.38090  Biso   1.000  C
  C12      1.0000 0.11760  0.01800  0.36340  Biso   1.000  C
  C13      1.0000 0.24360  0.97250  0.15270  Biso   1.000  C
  C14      1.0000 0.06390  0.83040  0.13890  Biso   1.000  C
  N4       1.0000 0.27620  0.92540  0.39640  Biso   1.000  N
  N5       1.0000 0.10230  0.75520  0.36860  Biso   1.000  N
  N6       1.0000 0.31550  0.65620  0.30910  Biso   1.000  N
  Sn3      1.0000 0.27510  0.53900  0.20030  Biso   1.000  Sn
  C15      1.0000 0.23190  0.35830  0.06280  Biso   1.000  C
  C16      1.0000 0.34260  0.25090  0.08100  Biso   1.000  C
  C17      1.0000 0.20780  0.19150  0.11780  Biso   1.000  C
  C18      1.0000 0.19870  0.62610  0.11910  Biso   1.000  C
  C19      1.0000 0.38240  0.51800  0.13660  Biso   1.000  C
  C20      1.0000 0.25640  0.47250  0.34730  Biso   1.000  C
  C21      1.0000 0.43610  0.33040  0.36110  Biso   1.000  C
  N7       1.0000 0.22380  0.42540  0.10360  Biso   1.000  N
  N8       1.0000 0.39770  0.25520  0.13140  Biso   1.000  N
  N9       1.0000 0.18450  0.15620  0.19090  Biso   1.000  N
  Sn4      1.0000 0.77510  0.03900  0.20030  Biso   1.000  Sn
  C22      1.0000 0.73190  0.85830  0.06280  Biso   1.000  C
  C23      1.0000 0.84260  0.75090  0.08100  Biso   1.000  C
  C24      1.0000 0.70780  0.69150  0.11780  Biso   1.000  C
  C25      1.0000 0.69870  0.12610  0.11910  Biso   1.000  C
  C26      1.0000 0.88240  0.01800  0.13660  Biso   1.000  C
  C27      1.0000 0.75640  0.97250  0.34730  Biso   1.000  C
  C28      1.0000 0.93610  0.83040  0.36110  Biso   1.000  C
  N10      1.0000 0.72380  0.92540  0.10360  Biso   1.000  N
  N11      1.0000 0.89770  0.75520  0.13140  Biso   1.000  N
  N12      1.0000 0.68450  0.65620  0.19090  Biso   1.000  N
  Sn5      1.0000 0.27510  0.46100  0.70030  Biso   1.000  Sn
  C29      1.0000 0.23190  0.64170  0.56280  Biso   1.000  C
  C30      1.0000 0.34260  0.74910  0.58100  Biso   1.000  C
  C31      1.0000 0.20780  0.80850  0.61780  Biso   1.000  C
  C32      1.0000 0.19870  0.37390  0.61910  Biso   1.000  C
  C33      1.0000 0.38240  0.48200  0.63660  Biso   1.000  C
  C34      1.0000 0.25640  0.52750  0.84730  Biso   1.000  C
  C35      1.0000 0.43610  0.66960  0.86110  Biso   1.000  C
  N13      1.0000 0.22380  0.57460  0.60360  Biso   1.000  N
  N14      1.0000 0.39770  0.74480  0.63140  Biso   1.000  N
  N15      1.0000 0.18450  0.84380  0.69090  Biso   1.000  N
  Sn6      1.0000 0.77510  0.96100  0.70030  Biso   1.000  Sn
  C36      1.0000 0.73190  0.14170  0.56280  Biso   1.000  C
  C37      1.0000 0.84260  0.24910  0.58100  Biso   1.000  C
  C38      1.0000 0.70780  0.30850  0.61780  Biso   1.000  C
  C39      1.0000 0.69870  0.87390  0.61910  Biso   1.000  C
  C40      1.0000 0.88240  0.98200  0.63660  Biso   1.000  C
  C41      1.0000 0.75640  0.02750  0.84730  Biso   1.000  C
  C42      1.0000 0.93610  0.16960  0.86110  Biso   1.000  C
  N16      1.0000 0.72380  0.07460  0.60360  Biso   1.000  N
  N17      1.0000 0.89770  0.24480  0.63140  Biso   1.000  N
  N18      1.0000 0.68450  0.34380  0.69090  Biso   1.000  N
  Sn7      1.0000 0.72490  0.46100  0.79970  Biso   1.000  Sn
  C43      1.0000 0.76810  0.64170  0.93720  Biso   1.000  C
  C44      1.0000 0.65740  0.74910  0.91900  Biso   1.000  C
  C45      1.0000 0.79220  0.80850  0.88220  Biso   1.000  C
  C46      1.0000 0.80130  0.37390  0.88090  Biso   1.000  C
  C47      1.0000 0.61760  0.48200  0.86340  Biso   1.000  C
  C48      1.0000 0.74360  0.52750  0.65270  Biso   1.000  C
  C49      1.0000 0.56390  0.66960  0.63890  Biso   1.000  C
  N19      1.0000 0.77620  0.57460  0.89640  Biso   1.000  N
  N20      1.0000 0.60230  0.74480  0.86860  Biso   1.000  N
  N21      1.0000 0.81550  0.84380  0.80910  Biso   1.000  N
  Sn8      1.0000 0.22490  0.96100  0.79970  Biso   1.000  Sn
  C50      1.0000 0.26810  0.14170  0.93720  Biso   1.000  C
  C51      1.0000 0.15740  0.24910  0.91900  Biso   1.000  C
  C52      1.0000 0.29220  0.30850  0.88220  Biso   1.000  C
  C53      1.0000 0.30130  0.87390  0.88090  Biso   1.000  C
  C54      1.0000 0.11760  0.98200  0.86340  Biso   1.000  C
  C55      1.0000 0.24360  0.02750  0.65270  Biso   1.000  C
  C56      1.0000 0.06390  0.16960  0.63890  Biso   1.000  C
  N22      1.0000 0.27620  0.07460  0.89640  Biso   1.000  N
  N23      1.0000 0.10230  0.24480  0.86860  Biso   1.000  N
  N24      1.0000 0.31550  0.34380  0.80910  Biso   1.000  N
  Sn9      1.0000 0.50000  0.25940  0.25000  Biso   1.000  Sn
  C57      1.0000 0.50000  0.11720  0.25000  Biso   1.000  C
  Sn10     1.0000 0.00000  0.75940  0.25000  Biso   1.000  Sn
  C58      1.0000 0.00000  0.61720  0.25000  Biso   1.000  C
  Sn11     1.0000 0.50000  0.74060  0.75000  Biso   1.000  Sn
  C59      1.0000 0.50000  0.88280  0.75000  Biso   1.000  C
  Sn12     1.0000 0.00000  0.24060  0.75000  Biso   1.000  Sn
  C60      1.0000 0.00000  0.38280  0.75000  Biso   1.000  C
  Fe1      1.0000 0.75000  0.25000  0.50000  Biso   1.000  Fe
  Fe2      1.0000 0.25000  0.25000  0.00000  Biso   1.000  Fe
  Fe3      1.0000 0.25000  0.75000  0.50000  Biso   1.000  Fe
  Fe4      1.0000 0.75000  0.75000  0.00000  Biso   1.000  Fe
