data_YUWHOO_clean
_audit_creation_date              2015-05-20
_audit_creation_method            'Materials Studio'
_symmetry_space_group_name_H-M    'P1'
_symmetry_Int_Tables_number       1
_symmetry_cell_setting            triclinic
loop_
_symmetry_equiv_pos_as_xyz
  x,y,z
_cell_length_a                    12.1945
_cell_length_b                    12.1945
_cell_length_c                    12.1690
_cell_angle_alpha                 119.4820
_cell_angle_beta                  119.4820
_cell_angle_gamma                 52.6782
loop_
_atom_site_label
_atom_site_type_symbol
_atom_site_fract_x
_atom_site_fract_y
_atom_site_fract_z
_atom_site_U_iso_or_equiv
_atom_site_adp_type
_atom_site_occupancy
H1     H     0.49600   0.28600   0.08100   0.01267  Uiso   1.00
H2     H     0.52500   0.01300   0.75000   0.01267  Uiso   1.00
H3     H     0.55300   0.19100   0.76000   0.01267  Uiso   1.00
H4     H     0.60400   0.72800   0.75600   0.01267  Uiso   1.00
H5     H     0.20900   0.99700   0.77200   0.01267  Uiso   1.00
H6     H     0.20500   0.79100   0.56700   0.01267  Uiso   1.00
H7     H     0.24800   0.30600   0.94600   0.01267  Uiso   1.00
H8     H     0.22100   0.07500   0.05100   0.01267  Uiso   1.00
H9     H     0.98600   0.30600   0.03900   0.01267  Uiso   1.00
H10    H     0.23500   0.74900   0.13600   0.01267  Uiso   1.00
C11    C     0.50466   0.24526   0.99980   0.01267  Uiso   1.00
C12    C     0.52858   0.19538   0.81500   0.01267  Uiso   1.00
C13    C     0.52441   0.08561   0.81460   0.01267  Uiso   1.00
C14    C     0.50115   0.76875   0.72950   0.01267  Uiso   1.00
C15    C     0.28351   0.80591   0.63160   0.01267  Uiso   1.00
C16    C     0.28410   0.91710   0.74260   0.01267  Uiso   1.00
C17    C     0.21312   0.28112   0.97640   0.01267  Uiso   1.00
C18    C     0.06818   0.27678   0.02440   0.01267  Uiso   1.00
C19    C     0.19504   0.15304   0.03310   0.01267  Uiso   1.00
C20    C     0.30621   0.68621   0.19080   0.01267  Uiso   1.00
N21    N     0.50998   0.11678   0.93220   0.01267  Uiso   1.00
N22    N     0.51427   0.29927   0.93430   0.01267  Uiso   1.00
N23    N     0.42396   0.89276   0.80660   0.01267  Uiso   1.00
N24    N     0.42265   0.70965   0.62290   0.01267  Uiso   1.00
N25    N     0.28852   0.15532   0.00290   0.01267  Uiso   1.00
N26    N     0.08030   0.35790   0.98820   0.01267  Uiso   1.00
N27    N     0.42529   0.56429   0.15280   0.01267  Uiso   1.00
H28    H     0.46472   0.00699   0.46903   0.00000  Uiso   1.00
H29    H     0.71400   0.50400   0.41900   0.01267  Uiso   1.00
H30    H     0.98700   0.47500   0.75000   0.01267  Uiso   1.00
H31    H     0.80900   0.44700   0.74000   0.01267  Uiso   1.00
H32    H     0.27200   0.39600   0.74400   0.01267  Uiso   1.00
H33    H     0.00300   0.79100   0.72800   0.01267  Uiso   1.00
H34    H     0.20900   0.79500   0.93300   0.01267  Uiso   1.00
H35    H     0.69400   0.75200   0.55400   0.01267  Uiso   1.00
H36    H     0.92500   0.77900   0.44900   0.01267  Uiso   1.00
H37    H     0.69400   0.01400   0.46100   0.01267  Uiso   1.00
H38    H     0.25100   0.76500   0.36400   0.01267  Uiso   1.00
C39    C     0.75474   0.49534   0.50020   0.01267  Uiso   1.00
C40    C     0.80462   0.47142   0.68500   0.01267  Uiso   1.00
C41    C     0.91439   0.47559   0.68540   0.01267  Uiso   1.00
C42    C     0.23125   0.49885   0.77050   0.01267  Uiso   1.00
C43    C     0.19409   0.71649   0.86840   0.01267  Uiso   1.00
C44    C     0.08290   0.71590   0.75740   0.01267  Uiso   1.00
C45    C     0.71888   0.78688   0.52360   0.01267  Uiso   1.00
C46    C     0.72322   0.93182   0.47560   0.01267  Uiso   1.00
C47    C     0.84696   0.80496   0.46690   0.01267  Uiso   1.00
C48    C     0.31379   0.69379   0.30920   0.01267  Uiso   1.00
N49    N     0.88322   0.49002   0.56780   0.01267  Uiso   1.00
N50    N     0.70073   0.48573   0.56570   0.01267  Uiso   1.00
N51    N     0.10724   0.57604   0.69340   0.01267  Uiso   1.00
N52    N     0.29035   0.57735   0.87710   0.01267  Uiso   1.00
N53    N     0.84468   0.71148   0.49710   0.01267  Uiso   1.00
N54    N     0.64210   0.91970   0.51180   0.01267  Uiso   1.00
N55    N     0.43571   0.57471   0.34720   0.01267  Uiso   1.00
H56    H     0.99301   0.53528   0.03097   0.00000  Uiso   1.00
H57    H     0.50400   0.71400   0.91900   0.01267  Uiso   1.00
H58    H     0.47500   0.98700   0.25000   0.01267  Uiso   1.00
H59    H     0.44700   0.80900   0.24000   0.01267  Uiso   1.00
H60    H     0.39600   0.27200   0.24400   0.01267  Uiso   1.00
H61    H     0.79100   0.00300   0.22800   0.01267  Uiso   1.00
H62    H     0.79500   0.20900   0.43300   0.01267  Uiso   1.00
H63    H     0.75200   0.69400   0.05400   0.01267  Uiso   1.00
H64    H     0.77900   0.92500   0.94900   0.01267  Uiso   1.00
H65    H     0.01400   0.69400   0.96100   0.01267  Uiso   1.00
H66    H     0.76500   0.25100   0.86400   0.01267  Uiso   1.00
C67    C     0.49534   0.75474   0.00020   0.01267  Uiso   1.00
C68    C     0.47142   0.80462   0.18500   0.01267  Uiso   1.00
C69    C     0.47559   0.91439   0.18540   0.01267  Uiso   1.00
C70    C     0.49885   0.23125   0.27050   0.01267  Uiso   1.00
C71    C     0.71649   0.19409   0.36840   0.01267  Uiso   1.00
C72    C     0.71590   0.08290   0.25740   0.01267  Uiso   1.00
C73    C     0.78688   0.71888   0.02360   0.01267  Uiso   1.00
C74    C     0.93182   0.72322   0.97560   0.01267  Uiso   1.00
C75    C     0.80496   0.84696   0.96690   0.01267  Uiso   1.00
C76    C     0.69379   0.31379   0.80920   0.01267  Uiso   1.00
N77    N     0.49002   0.88322   0.06780   0.01267  Uiso   1.00
N78    N     0.48573   0.70073   0.06570   0.01267  Uiso   1.00
N79    N     0.57604   0.10724   0.19340   0.01267  Uiso   1.00
N80    N     0.57735   0.29035   0.37710   0.01267  Uiso   1.00
N81    N     0.71148   0.84468   0.99710   0.01267  Uiso   1.00
N82    N     0.91970   0.64210   0.01180   0.01267  Uiso   1.00
N83    N     0.57471   0.43571   0.84720   0.01267  Uiso   1.00
H84    H     0.28600   0.49600   0.58100   0.01267  Uiso   1.00
H85    H     0.01300   0.52500   0.25000   0.01267  Uiso   1.00
H86    H     0.19100   0.55300   0.26000   0.01267  Uiso   1.00
H87    H     0.72800   0.60400   0.25600   0.01267  Uiso   1.00
H88    H     0.99700   0.20900   0.27200   0.01267  Uiso   1.00
H89    H     0.79100   0.20500   0.06700   0.01267  Uiso   1.00
H90    H     0.30600   0.24800   0.44600   0.01267  Uiso   1.00
H91    H     0.07500   0.22100   0.55100   0.01267  Uiso   1.00
H92    H     0.30600   0.98600   0.53900   0.01267  Uiso   1.00
H93    H     0.74900   0.23500   0.63600   0.01267  Uiso   1.00
C94    C     0.24526   0.50466   0.49980   0.01267  Uiso   1.00
C95    C     0.19538   0.52858   0.31500   0.01267  Uiso   1.00
C96    C     0.08561   0.52441   0.31460   0.01267  Uiso   1.00
C97    C     0.76875   0.50115   0.22950   0.01267  Uiso   1.00
C98    C     0.80591   0.28351   0.13160   0.01267  Uiso   1.00
C99    C     0.91710   0.28410   0.24260   0.01267  Uiso   1.00
C100   C     0.28112   0.21312   0.47640   0.01267  Uiso   1.00
C101   C     0.27678   0.06818   0.52440   0.01267  Uiso   1.00
C102   C     0.15304   0.19504   0.53310   0.01267  Uiso   1.00
C103   C     0.68621   0.30621   0.69080   0.01267  Uiso   1.00
N104   N     0.11678   0.50998   0.43220   0.01267  Uiso   1.00
N105   N     0.29927   0.51427   0.43430   0.01267  Uiso   1.00
N106   N     0.89276   0.42396   0.30660   0.01267  Uiso   1.00
N107   N     0.70965   0.42265   0.12290   0.01267  Uiso   1.00
N108   N     0.15532   0.28852   0.50290   0.01267  Uiso   1.00
N109   N     0.35790   0.08030   0.48820   0.01267  Uiso   1.00
N110   N     0.56429   0.42529   0.65280   0.01267  Uiso   1.00
Ga111  Ga    0.50000   0.00000  -0.00000   0.01267  Uiso   1.00
Ga112  Ga    0.00000   0.50000   0.50000   0.01267  Uiso   1.00
Ga113  Ga    0.50000   0.50000   0.00000   0.01267  Uiso   1.00
Ga114  Ga    0.50000   0.50000   0.50000   0.01267  Uiso   1.00
H115   H     0.58100   0.41900   0.25000   0.01267  Uiso   1.00
C116   C     0.49770   0.50230   0.25000   0.01267  Uiso   1.00
H117   H     0.41900   0.58100   0.75000   0.01267  Uiso   1.00
C118   C     0.50230   0.49770   0.75000   0.01267  Uiso   1.00
