data_image0
_cell_length_a       11.154
_cell_length_b       7.792
_cell_length_c       12.375
_cell_angle_alpha    90
_cell_angle_beta     90
_cell_angle_gamma    90

_symmetry_space_group_name_H-M    "P 1"
_symmetry_int_tables_number       1

loop_
  _symmetry_equiv_pos_as_xyz
  'x, y, z'

loop_
  _atom_site_label
  _atom_site_occupancy
  _atom_site_fract_x
  _atom_site_fract_y
  _atom_site_fract_z
  _atom_site_thermal_displace_type
  _atom_site_B_iso_or_equiv
  _atom_site_type_symbol
  Ag1      1.0000 0.20124  0.85045  0.50000  Biso   1.000  Ag
  C1       1.0000 0.27380  0.57010  0.53430  Biso   1.000  C
  C2       1.0000 0.28550  0.58910  0.42650  Biso   1.000  C
  C3       1.0000 0.40280  0.63260  0.37560  Biso   1.000  C
  C4       1.0000 0.52120  0.35460  0.39820  Biso   1.000  C
  C5       1.0000 0.65260  0.38020  0.40550  Biso   1.000  C
  C6       1.0000 0.72050  0.47870  0.33920  Biso   1.000  C
  C7       1.0000 0.43580  0.44020  0.22810  Biso   1.000  C
  N1       1.0000 0.45940  0.47890  0.32810  Biso   1.000  N
  N2       1.0000 0.41660  0.40800  0.13840  Biso   1.000  N
  H1       1.0000 0.20200  0.53600  0.56000  Biso   1.000  H
  H2       1.0000 0.32600  0.59400  0.58900  Biso   1.000  H
  H3       1.0000 0.21600  0.56100  0.39000  Biso   1.000  H
  H4       1.0000 0.38200  0.71200  0.32200  Biso   1.000  H
  H5       1.0000 0.48200  0.64700  0.40600  Biso   1.000  H
  H6       1.0000 0.48500  0.35600  0.47200  Biso   1.000  H
  H7       1.0000 0.49300  0.22300  0.36800  Biso   1.000  H
  H8       1.0000 0.68500  0.30900  0.45900  Biso   1.000  H
  H9       1.0000 0.80700  0.47900  0.33900  Biso   1.000  H
  H10      1.0000 0.68100  0.53600  0.28100  Biso   1.000  H
  Ag2      1.0000 0.79876  0.14955  0.00000  Biso   1.000  Ag
  C8       1.0000 0.72620  0.42990  0.03430  Biso   1.000  C
  C9       1.0000 0.71450  0.41090  0.92650  Biso   1.000  C
  C10      1.0000 0.59720  0.36740  0.87560  Biso   1.000  C
  C11      1.0000 0.47880  0.64540  0.89820  Biso   1.000  C
  C12      1.0000 0.34740  0.61980  0.90550  Biso   1.000  C
  C13      1.0000 0.27950  0.52130  0.83920  Biso   1.000  C
  C14      1.0000 0.56420  0.55980  0.72810  Biso   1.000  C
  N3       1.0000 0.54060  0.52110  0.82810  Biso   1.000  N
  N4       1.0000 0.58340  0.59200  0.63840  Biso   1.000  N
  H11      1.0000 0.79800  0.46400  0.06000  Biso   1.000  H
  H12      1.0000 0.67400  0.40600  0.08900  Biso   1.000  H
  H13      1.0000 0.78400  0.43900  0.89000  Biso   1.000  H
  H14      1.0000 0.61800  0.28800  0.82200  Biso   1.000  H
  H15      1.0000 0.51800  0.35300  0.90600  Biso   1.000  H
  H16      1.0000 0.51500  0.64400  0.97200  Biso   1.000  H
  H17      1.0000 0.50700  0.77700  0.86800  Biso   1.000  H
  H18      1.0000 0.31500  0.69100  0.95900  Biso   1.000  H
  H19      1.0000 0.19300  0.52100  0.83900  Biso   1.000  H
  H20      1.0000 0.31900  0.46400  0.78100  Biso   1.000  H
  Ag3      1.0000 0.70124  0.64955  0.50000  Biso   1.000  Ag
  C15      1.0000 0.77380  0.92990  0.53430  Biso   1.000  C
  C16      1.0000 0.78550  0.91090  0.42650  Biso   1.000  C
  C17      1.0000 0.90280  0.86740  0.37560  Biso   1.000  C
  C18      1.0000 0.02120  0.14540  0.39820  Biso   1.000  C
  C19      1.0000 0.15260  0.11980  0.40550  Biso   1.000  C
  C20      1.0000 0.22050  0.02130  0.33920  Biso   1.000  C
  C21      1.0000 0.93580  0.05980  0.22810  Biso   1.000  C
  N5       1.0000 0.95940  0.02110  0.32810  Biso   1.000  N
  N6       1.0000 0.91660  0.09200  0.13840  Biso   1.000  N
  H21      1.0000 0.70200  0.96400  0.56000  Biso   1.000  H
  H22      1.0000 0.82600  0.90600  0.58900  Biso   1.000  H
  H23      1.0000 0.71600  0.93900  0.39000  Biso   1.000  H
  H24      1.0000 0.88200  0.78800  0.32200  Biso   1.000  H
  H25      1.0000 0.98200  0.85300  0.40600  Biso   1.000  H
  H26      1.0000 0.98500  0.14400  0.47200  Biso   1.000  H
  H27      1.0000 0.99300  0.27700  0.36800  Biso   1.000  H
  H28      1.0000 0.18500  0.19100  0.45900  Biso   1.000  H
  H29      1.0000 0.30700  0.02100  0.33900  Biso   1.000  H
  H30      1.0000 0.18100  0.96400  0.28100  Biso   1.000  H
  Ag4      1.0000 0.29876  0.35045  0.00000  Biso   1.000  Ag
  C22      1.0000 0.22620  0.07010  0.03430  Biso   1.000  C
  C23      1.0000 0.21450  0.08910  0.92650  Biso   1.000  C
  C24      1.0000 0.09720  0.13260  0.87560  Biso   1.000  C
  C25      1.0000 0.97880  0.85460  0.89820  Biso   1.000  C
  C26      1.0000 0.84740  0.88020  0.90550  Biso   1.000  C
  C27      1.0000 0.77950  0.97870  0.83920  Biso   1.000  C
  C28      1.0000 0.06420  0.94020  0.72810  Biso   1.000  C
  N7       1.0000 0.04060  0.97890  0.82810  Biso   1.000  N
  N8       1.0000 0.08340  0.90800  0.63840  Biso   1.000  N
  H31      1.0000 0.29800  0.03600  0.06000  Biso   1.000  H
  H32      1.0000 0.17400  0.09400  0.08900  Biso   1.000  H
  H33      1.0000 0.28400  0.06100  0.89000  Biso   1.000  H
  H34      1.0000 0.11800  0.21200  0.82200  Biso   1.000  H
  H35      1.0000 0.01800  0.14700  0.90600  Biso   1.000  H
  H36      1.0000 0.01500  0.85600  0.97200  Biso   1.000  H
  H37      1.0000 0.00700  0.72300  0.86800  Biso   1.000  H
  H38      1.0000 0.81500  0.80900  0.95900  Biso   1.000  H
  H39      1.0000 0.69300  0.97900  0.83900  Biso   1.000  H
  H40      1.0000 0.81900  0.03600  0.78100  Biso   1.000  H
