data_image0
_cell_length_a       9.5095
_cell_length_b       19.84
_cell_length_c       21.035
_cell_angle_alpha    90
_cell_angle_beta     90
_cell_angle_gamma    90

_symmetry_space_group_name_H-M    "P 1"
_symmetry_int_tables_number       1

loop_
  _symmetry_equiv_pos_as_xyz
  'x, y, z'

loop_
  _atom_site_label
  _atom_site_occupancy
  _atom_site_fract_x
  _atom_site_fract_y
  _atom_site_fract_z
  _atom_site_thermal_displace_type
  _atom_site_B_iso_or_equiv
  _atom_site_type_symbol
  Cd1      1.0000 0.50754  0.55346  0.42614  Biso   1.000  Cd
  N1       1.0000 0.48300  0.53803  0.31789  Biso   1.000  N
  N2       1.0000 0.44310  0.55940  0.21755  Biso   1.000  N
  N3       1.0000 0.56000  0.56616  0.11603  Biso   1.000  N
  N4       1.0000 0.76800  0.55277  0.07328  Biso   1.000  N
  O1       1.0000 0.97110  0.18115  0.39812  Biso   1.000  O
  O2       1.0000 0.80600  0.11891  0.44272  Biso   1.000  O
  O3       1.0000 0.72150  0.45827  0.40205  Biso   1.000  O
  O4       1.0000 0.52100  0.44353  0.45464  Biso   1.000  O
  S1       1.0000 0.81767  0.31384  0.41213  Biso   1.000  S
  C1       1.0000 0.65820  0.34819  0.43311  Biso   1.000  C
  C2       1.0000 0.56670  0.30010  0.45273  Biso   1.000  C
  H1       1.0000 0.47530  0.30920  0.46580  Biso   1.000  H
  C3       1.0000 0.62490  0.23470  0.45120  Biso   1.000  C
  H2       1.0000 0.57610  0.19620  0.46340  Biso   1.000  H
  C4       1.0000 0.75880  0.23396  0.43012  Biso   1.000  C
  C5       1.0000 0.85380  0.17445  0.42251  Biso   1.000  C
  C6       1.0000 0.63540  0.42222  0.42909  Biso   1.000  C
  C7       1.0000 0.40390  0.48720  0.29210  Biso   1.000  C
  H3       1.0000 0.37240  0.44950  0.31410  Biso   1.000  H
  C8       1.0000 0.37840  0.49980  0.23050  Biso   1.000  C
  H4       1.0000 0.32700  0.47320  0.20240  Biso   1.000  H
  C9       1.0000 0.50450  0.58050  0.27107  Biso   1.000  C
  H5       1.0000 0.55590  0.62020  0.27470  Biso   1.000  H
  C10      1.0000 0.44760  0.59300  0.15604  Biso   1.000  C
  H6       1.0000 0.46240  0.64090  0.16240  Biso   1.000  H
  H7       1.0000 0.35810  0.58710  0.13460  Biso   1.000  H
  C11      1.0000 0.55360  0.50830  0.08093  Biso   1.000  C
  H8       1.0000 0.47660  0.47990  0.07610  Biso   1.000  H
  C12      1.0000 0.68170  0.50090  0.05495  Biso   1.000  C
  H9       1.0000 0.70810  0.46570  0.02830  Biso   1.000  H
  C13      1.0000 0.68940  0.59130  0.11022  Biso   1.000  C
  H10      1.0000 0.72020  0.63070  0.12960  Biso   1.000  H
  Cd2      1.0000 0.49246  0.05346  0.07386  Biso   1.000  Cd
  N5       1.0000 0.51700  0.03803  0.18211  Biso   1.000  N
  N6       1.0000 0.55690  0.05940  0.28245  Biso   1.000  N
  N7       1.0000 0.44000  0.06616  0.38397  Biso   1.000  N
  N8       1.0000 0.23200  0.05277  0.42672  Biso   1.000  N
  O5       1.0000 0.02890  0.68115  0.10188  Biso   1.000  O
  O6       1.0000 0.19400  0.61891  0.05728  Biso   1.000  O
  O7       1.0000 0.27850  0.95827  0.09795  Biso   1.000  O
  O8       1.0000 0.47900  0.94353  0.04536  Biso   1.000  O
  S2       1.0000 0.18233  0.81384  0.08787  Biso   1.000  S
  C14      1.0000 0.34180  0.84819  0.06689  Biso   1.000  C
  C15      1.0000 0.43330  0.80010  0.04727  Biso   1.000  C
  H11      1.0000 0.52470  0.80920  0.03420  Biso   1.000  H
  C16      1.0000 0.37510  0.73470  0.04880  Biso   1.000  C
  H12      1.0000 0.42390  0.69620  0.03660  Biso   1.000  H
  C17      1.0000 0.24120  0.73396  0.06988  Biso   1.000  C
  C18      1.0000 0.14620  0.67445  0.07749  Biso   1.000  C
  C19      1.0000 0.36460  0.92222  0.07091  Biso   1.000  C
  C20      1.0000 0.59610  0.98720  0.20790  Biso   1.000  C
  H13      1.0000 0.62760  0.94950  0.18590  Biso   1.000  H
  C21      1.0000 0.62160  0.99980  0.26950  Biso   1.000  C
  H14      1.0000 0.67300  0.97320  0.29760  Biso   1.000  H
  C22      1.0000 0.49550  0.08050  0.22893  Biso   1.000  C
  H15      1.0000 0.44410  0.12020  0.22530  Biso   1.000  H
  C23      1.0000 0.55240  0.09300  0.34396  Biso   1.000  C
  H16      1.0000 0.53760  0.14090  0.33760  Biso   1.000  H
  H17      1.0000 0.64190  0.08710  0.36540  Biso   1.000  H
  C24      1.0000 0.44640  0.00830  0.41907  Biso   1.000  C
  H18      1.0000 0.52340  0.97990  0.42390  Biso   1.000  H
  C25      1.0000 0.31830  0.00090  0.44505  Biso   1.000  C
  H19      1.0000 0.29190  0.96570  0.47170  Biso   1.000  H
  C26      1.0000 0.31060  0.09130  0.38978  Biso   1.000  C
  H20      1.0000 0.27980  0.13070  0.37040  Biso   1.000  H
  Cd3      1.0000 0.00754  0.55346  0.07386  Biso   1.000  Cd
  N9       1.0000 0.98300  0.53803  0.18211  Biso   1.000  N
  N10      1.0000 0.94310  0.55940  0.28245  Biso   1.000  N
  N11      1.0000 0.06000  0.56616  0.38397  Biso   1.000  N
  N12      1.0000 0.26800  0.55277  0.42672  Biso   1.000  N
  O9       1.0000 0.47110  0.18115  0.10188  Biso   1.000  O
  O10      1.0000 0.30600  0.11891  0.05728  Biso   1.000  O
  O11      1.0000 0.22150  0.45827  0.09795  Biso   1.000  O
  O12      1.0000 0.02100  0.44353  0.04536  Biso   1.000  O
  S3       1.0000 0.31767  0.31384  0.08787  Biso   1.000  S
  C27      1.0000 0.15820  0.34819  0.06689  Biso   1.000  C
  C28      1.0000 0.06670  0.30010  0.04727  Biso   1.000  C
  H21      1.0000 0.97530  0.30920  0.03420  Biso   1.000  H
  C29      1.0000 0.12490  0.23470  0.04880  Biso   1.000  C
  H22      1.0000 0.07610  0.19620  0.03660  Biso   1.000  H
  C30      1.0000 0.25880  0.23396  0.06988  Biso   1.000  C
  C31      1.0000 0.35380  0.17445  0.07749  Biso   1.000  C
  C32      1.0000 0.13540  0.42222  0.07091  Biso   1.000  C
  C33      1.0000 0.90390  0.48720  0.20790  Biso   1.000  C
  H23      1.0000 0.87240  0.44950  0.18590  Biso   1.000  H
  C34      1.0000 0.87840  0.49980  0.26950  Biso   1.000  C
  H24      1.0000 0.82700  0.47320  0.29760  Biso   1.000  H
  C35      1.0000 0.00450  0.58050  0.22893  Biso   1.000  C
  H25      1.0000 0.05590  0.62020  0.22530  Biso   1.000  H
  C36      1.0000 0.94760  0.59300  0.34396  Biso   1.000  C
  H26      1.0000 0.96240  0.64090  0.33760  Biso   1.000  H
  H27      1.0000 0.85810  0.58710  0.36540  Biso   1.000  H
  C37      1.0000 0.05360  0.50830  0.41907  Biso   1.000  C
  H28      1.0000 0.97660  0.47990  0.42390  Biso   1.000  H
  C38      1.0000 0.18170  0.50090  0.44505  Biso   1.000  C
  H29      1.0000 0.20810  0.46570  0.47170  Biso   1.000  H
  C39      1.0000 0.18940  0.59130  0.38978  Biso   1.000  C
  H30      1.0000 0.22020  0.63070  0.37040  Biso   1.000  H
  Cd4      1.0000 0.99246  0.05346  0.42614  Biso   1.000  Cd
  N13      1.0000 0.01700  0.03803  0.31789  Biso   1.000  N
  N14      1.0000 0.05690  0.05940  0.21755  Biso   1.000  N
  N15      1.0000 0.94000  0.06616  0.11603  Biso   1.000  N
  N16      1.0000 0.73200  0.05277  0.07328  Biso   1.000  N
  O13      1.0000 0.52890  0.68115  0.39812  Biso   1.000  O
  O14      1.0000 0.69400  0.61891  0.44272  Biso   1.000  O
  O15      1.0000 0.77850  0.95827  0.40205  Biso   1.000  O
  O16      1.0000 0.97900  0.94353  0.45464  Biso   1.000  O
  S4       1.0000 0.68233  0.81384  0.41213  Biso   1.000  S
  C40      1.0000 0.84180  0.84819  0.43311  Biso   1.000  C
  C41      1.0000 0.93330  0.80010  0.45273  Biso   1.000  C
  H31      1.0000 0.02470  0.80920  0.46580  Biso   1.000  H
  C42      1.0000 0.87510  0.73470  0.45120  Biso   1.000  C
  H32      1.0000 0.92390  0.69620  0.46340  Biso   1.000  H
  C43      1.0000 0.74120  0.73396  0.43012  Biso   1.000  C
  C44      1.0000 0.64620  0.67445  0.42251  Biso   1.000  C
  C45      1.0000 0.86460  0.92222  0.42909  Biso   1.000  C
  C46      1.0000 0.09610  0.98720  0.29210  Biso   1.000  C
  H33      1.0000 0.12760  0.94950  0.31410  Biso   1.000  H
  C47      1.0000 0.12160  0.99980  0.23050  Biso   1.000  C
  H34      1.0000 0.17300  0.97320  0.20240  Biso   1.000  H
  C48      1.0000 0.99550  0.08050  0.27107  Biso   1.000  C
  H35      1.0000 0.94410  0.12020  0.27470  Biso   1.000  H
  C49      1.0000 0.05240  0.09300  0.15604  Biso   1.000  C
  H36      1.0000 0.03760  0.14090  0.16240  Biso   1.000  H
  H37      1.0000 0.14190  0.08710  0.13460  Biso   1.000  H
  C50      1.0000 0.94640  0.00830  0.08093  Biso   1.000  C
  H38      1.0000 0.02340  0.97990  0.07610  Biso   1.000  H
  C51      1.0000 0.81830  0.00090  0.05495  Biso   1.000  C
  H39      1.0000 0.79190  0.96570  0.02830  Biso   1.000  H
  C52      1.0000 0.81060  0.09130  0.11022  Biso   1.000  C
  H40      1.0000 0.77980  0.13070  0.12960  Biso   1.000  H
  Cd5      1.0000 0.99246  0.44654  0.92614  Biso   1.000  Cd
  N17      1.0000 0.01700  0.46197  0.81789  Biso   1.000  N
  N18      1.0000 0.05690  0.44060  0.71755  Biso   1.000  N
  N19      1.0000 0.94000  0.43384  0.61603  Biso   1.000  N
  N20      1.0000 0.73200  0.44723  0.57328  Biso   1.000  N
  O17      1.0000 0.52890  0.81885  0.89812  Biso   1.000  O
  O18      1.0000 0.69400  0.88109  0.94272  Biso   1.000  O
  O19      1.0000 0.77850  0.54173  0.90205  Biso   1.000  O
  O20      1.0000 0.97900  0.55647  0.95464  Biso   1.000  O
  S5       1.0000 0.68233  0.68616  0.91213  Biso   1.000  S
  C53      1.0000 0.84180  0.65181  0.93311  Biso   1.000  C
  C54      1.0000 0.93330  0.69990  0.95273  Biso   1.000  C
  H41      1.0000 0.02470  0.69080  0.96580  Biso   1.000  H
  C55      1.0000 0.87510  0.76530  0.95120  Biso   1.000  C
  H42      1.0000 0.92390  0.80380  0.96340  Biso   1.000  H
  C56      1.0000 0.74120  0.76604  0.93012  Biso   1.000  C
  C57      1.0000 0.64620  0.82555  0.92251  Biso   1.000  C
  C58      1.0000 0.86460  0.57778  0.92909  Biso   1.000  C
  C59      1.0000 0.09610  0.51280  0.79210  Biso   1.000  C
  H43      1.0000 0.12760  0.55050  0.81410  Biso   1.000  H
  C60      1.0000 0.12160  0.50020  0.73050  Biso   1.000  C
  H44      1.0000 0.17300  0.52680  0.70240  Biso   1.000  H
  C61      1.0000 0.99550  0.41950  0.77107  Biso   1.000  C
  H45      1.0000 0.94410  0.37980  0.77470  Biso   1.000  H
  C62      1.0000 0.05240  0.40700  0.65604  Biso   1.000  C
  H46      1.0000 0.03760  0.35910  0.66240  Biso   1.000  H
  H47      1.0000 0.14190  0.41290  0.63460  Biso   1.000  H
  C63      1.0000 0.94640  0.49170  0.58093  Biso   1.000  C
  H48      1.0000 0.02340  0.52010  0.57610  Biso   1.000  H
  C64      1.0000 0.81830  0.49910  0.55495  Biso   1.000  C
  H49      1.0000 0.79190  0.53430  0.52830  Biso   1.000  H
  C65      1.0000 0.81060  0.40870  0.61022  Biso   1.000  C
  H50      1.0000 0.77980  0.36930  0.62960  Biso   1.000  H
  Cd6      1.0000 0.00754  0.94654  0.57386  Biso   1.000  Cd
  N21      1.0000 0.98300  0.96197  0.68211  Biso   1.000  N
  N22      1.0000 0.94310  0.94060  0.78245  Biso   1.000  N
  N23      1.0000 0.06000  0.93384  0.88397  Biso   1.000  N
  N24      1.0000 0.26800  0.94723  0.92672  Biso   1.000  N
  O21      1.0000 0.47110  0.31885  0.60188  Biso   1.000  O
  O22      1.0000 0.30600  0.38109  0.55728  Biso   1.000  O
  O23      1.0000 0.22150  0.04173  0.59795  Biso   1.000  O
  O24      1.0000 0.02100  0.05647  0.54536  Biso   1.000  O
  S6       1.0000 0.31767  0.18616  0.58787  Biso   1.000  S
  C66      1.0000 0.15820  0.15181  0.56689  Biso   1.000  C
  C67      1.0000 0.06670  0.19990  0.54727  Biso   1.000  C
  H51      1.0000 0.97530  0.19080  0.53420  Biso   1.000  H
  C68      1.0000 0.12490  0.26530  0.54880  Biso   1.000  C
  H52      1.0000 0.07610  0.30380  0.53660  Biso   1.000  H
  C69      1.0000 0.25880  0.26604  0.56988  Biso   1.000  C
  C70      1.0000 0.35380  0.32555  0.57749  Biso   1.000  C
  C71      1.0000 0.13540  0.07778  0.57091  Biso   1.000  C
  C72      1.0000 0.90390  0.01280  0.70790  Biso   1.000  C
  H53      1.0000 0.87240  0.05050  0.68590  Biso   1.000  H
  C73      1.0000 0.87840  0.00020  0.76950  Biso   1.000  C
  H54      1.0000 0.82700  0.02680  0.79760  Biso   1.000  H
  C74      1.0000 0.00450  0.91950  0.72893  Biso   1.000  C
  H55      1.0000 0.05590  0.87980  0.72530  Biso   1.000  H
  C75      1.0000 0.94760  0.90700  0.84396  Biso   1.000  C
  H56      1.0000 0.96240  0.85910  0.83760  Biso   1.000  H
  H57      1.0000 0.85810  0.91290  0.86540  Biso   1.000  H
  C76      1.0000 0.05360  0.99170  0.91907  Biso   1.000  C
  H58      1.0000 0.97660  0.02010  0.92390  Biso   1.000  H
  C77      1.0000 0.18170  0.99910  0.94505  Biso   1.000  C
  H59      1.0000 0.20810  0.03430  0.97170  Biso   1.000  H
  C78      1.0000 0.18940  0.90870  0.88978  Biso   1.000  C
  H60      1.0000 0.22020  0.86930  0.87040  Biso   1.000  H
  Cd7      1.0000 0.49246  0.44654  0.57386  Biso   1.000  Cd
  N25      1.0000 0.51700  0.46197  0.68211  Biso   1.000  N
  N26      1.0000 0.55690  0.44060  0.78245  Biso   1.000  N
  N27      1.0000 0.44000  0.43384  0.88397  Biso   1.000  N
  N28      1.0000 0.23200  0.44723  0.92672  Biso   1.000  N
  O25      1.0000 0.02890  0.81885  0.60188  Biso   1.000  O
  O26      1.0000 0.19400  0.88109  0.55728  Biso   1.000  O
  O27      1.0000 0.27850  0.54173  0.59795  Biso   1.000  O
  O28      1.0000 0.47900  0.55647  0.54536  Biso   1.000  O
  S7       1.0000 0.18233  0.68616  0.58787  Biso   1.000  S
  C79      1.0000 0.34180  0.65181  0.56689  Biso   1.000  C
  C80      1.0000 0.43330  0.69990  0.54727  Biso   1.000  C
  H61      1.0000 0.52470  0.69080  0.53420  Biso   1.000  H
  C81      1.0000 0.37510  0.76530  0.54880  Biso   1.000  C
  H62      1.0000 0.42390  0.80380  0.53660  Biso   1.000  H
  C82      1.0000 0.24120  0.76604  0.56988  Biso   1.000  C
  C83      1.0000 0.14620  0.82555  0.57749  Biso   1.000  C
  C84      1.0000 0.36460  0.57778  0.57091  Biso   1.000  C
  C85      1.0000 0.59610  0.51280  0.70790  Biso   1.000  C
  H63      1.0000 0.62760  0.55050  0.68590  Biso   1.000  H
  C86      1.0000 0.62160  0.50020  0.76950  Biso   1.000  C
  H64      1.0000 0.67300  0.52680  0.79760  Biso   1.000  H
  C87      1.0000 0.49550  0.41950  0.72893  Biso   1.000  C
  H65      1.0000 0.44410  0.37980  0.72530  Biso   1.000  H
  C88      1.0000 0.55240  0.40700  0.84396  Biso   1.000  C
  H66      1.0000 0.53760  0.35910  0.83760  Biso   1.000  H
  H67      1.0000 0.64190  0.41290  0.86540  Biso   1.000  H
  C89      1.0000 0.44640  0.49170  0.91907  Biso   1.000  C
  H68      1.0000 0.52340  0.52010  0.92390  Biso   1.000  H
  C90      1.0000 0.31830  0.49910  0.94505  Biso   1.000  C
  H69      1.0000 0.29190  0.53430  0.97170  Biso   1.000  H
  C91      1.0000 0.31060  0.40870  0.88978  Biso   1.000  C
  H70      1.0000 0.27980  0.36930  0.87040  Biso   1.000  H
  Cd8      1.0000 0.50754  0.94654  0.92614  Biso   1.000  Cd
  N29      1.0000 0.48300  0.96197  0.81789  Biso   1.000  N
  N30      1.0000 0.44310  0.94060  0.71755  Biso   1.000  N
  N31      1.0000 0.56000  0.93384  0.61603  Biso   1.000  N
  N32      1.0000 0.76800  0.94723  0.57328  Biso   1.000  N
  O29      1.0000 0.97110  0.31885  0.89812  Biso   1.000  O
  O30      1.0000 0.80600  0.38109  0.94272  Biso   1.000  O
  O31      1.0000 0.72150  0.04173  0.90205  Biso   1.000  O
  O32      1.0000 0.52100  0.05647  0.95464  Biso   1.000  O
  S8       1.0000 0.81767  0.18616  0.91213  Biso   1.000  S
  C92      1.0000 0.65820  0.15181  0.93311  Biso   1.000  C
  C93      1.0000 0.56670  0.19990  0.95273  Biso   1.000  C
  H71      1.0000 0.47530  0.19080  0.96580  Biso   1.000  H
  C94      1.0000 0.62490  0.26530  0.95120  Biso   1.000  C
  H72      1.0000 0.57610  0.30380  0.96340  Biso   1.000  H
  C95      1.0000 0.75880  0.26604  0.93012  Biso   1.000  C
  C96      1.0000 0.85380  0.32555  0.92251  Biso   1.000  C
  C97      1.0000 0.63540  0.07778  0.92909  Biso   1.000  C
  C98      1.0000 0.40390  0.01280  0.79210  Biso   1.000  C
  H73      1.0000 0.37240  0.05050  0.81410  Biso   1.000  H
  C99      1.0000 0.37840  0.00020  0.73050  Biso   1.000  C
  H74      1.0000 0.32700  0.02680  0.70240  Biso   1.000  H
  C100     1.0000 0.50450  0.91950  0.77107  Biso   1.000  C
  H75      1.0000 0.55590  0.87980  0.77470  Biso   1.000  H
  C101     1.0000 0.44760  0.90700  0.65604  Biso   1.000  C
  H76      1.0000 0.46240  0.85910  0.66240  Biso   1.000  H
  H77      1.0000 0.35810  0.91290  0.63460  Biso   1.000  H
  C102     1.0000 0.55360  0.99170  0.58093  Biso   1.000  C
  H78      1.0000 0.47660  0.02010  0.57610  Biso   1.000  H
  C103     1.0000 0.68170  0.99910  0.55495  Biso   1.000  C
  H79      1.0000 0.70810  0.03430  0.52830  Biso   1.000  H
  C104     1.0000 0.68940  0.90870  0.61022  Biso   1.000  C
  H80      1.0000 0.72020  0.86930  0.62960  Biso   1.000  H
