data_image0
_cell_length_a       14.583
_cell_length_b       23.241
_cell_length_c       15.6338
_cell_angle_alpha    90
_cell_angle_beta     106.99
_cell_angle_gamma    90

_symmetry_space_group_name_H-M    "P 1"
_symmetry_int_tables_number       1

loop_
  _symmetry_equiv_pos_as_xyz
  'x, y, z'

loop_
  _atom_site_label
  _atom_site_occupancy
  _atom_site_fract_x
  _atom_site_fract_y
  _atom_site_fract_z
  _atom_site_thermal_displace_type
  _atom_site_B_iso_or_equiv
  _atom_site_type_symbol
  Cd1      1.0000 0.23637  0.43763  0.58375  Biso   1.000  Cd
  Cd2      1.0000 0.25806  0.30106  0.69640  Biso   1.000  Cd
  C1       1.0000 0.15620  0.53600  0.13220  Biso   1.000  C
  C2       1.0000 0.23710  0.50890  0.18690  Biso   1.000  C
  H1       1.0000 0.29000  0.50200  0.16650  Biso   1.000  H
  C3       1.0000 0.23800  0.49210  0.27270  Biso   1.000  C
  H2       1.0000 0.29020  0.47130  0.30730  Biso   1.000  H
  C4       1.0000 0.16650  0.50480  0.30710  Biso   1.000  C
  C5       1.0000 0.08700  0.53330  0.25210  Biso   1.000  C
  H3       1.0000 0.03590  0.54250  0.27380  Biso   1.000  H
  C6       1.0000 0.08340  0.54780  0.16630  Biso   1.000  C
  H4       1.0000 0.02920  0.56640  0.13060  Biso   1.000  H
  C7       1.0000 0.16850  0.48790  0.39980  Biso   1.000  C
  C8       1.0000 0.18570  0.50760  0.99120  Biso   1.000  C
  C9       1.0000 0.22680  0.52430  0.92570  Biso   1.000  C
  H5       1.0000 0.23590  0.56320  0.91690  Biso   1.000  H
  C10      1.0000 0.25390  0.48470  0.87440  Biso   1.000  C
  H6       1.0000 0.28100  0.49690  0.83060  Biso   1.000  H
  C11      1.0000 0.24170  0.42630  0.88600  Biso   1.000  C
  C12      1.0000 0.20180  0.41090  0.94920  Biso   1.000  C
  H7       1.0000 0.19450  0.37190  0.95860  Biso   1.000  H
  C13      1.0000 0.17050  0.45000  0.00180  Biso   1.000  C
  H8       1.0000 0.14010  0.43760  0.04310  Biso   1.000  H
  C14      1.0000 0.26690  0.38270  0.82500  Biso   1.000  C
  C15      1.0000 0.87510  0.72080  0.88080  Biso   1.000  C
  C16      1.0000 0.95300  0.67740  0.92020  Biso   1.000  C
  C17      1.0000 0.96090  0.62730  0.87580  Biso   1.000  C
  H9       1.0000 0.91990  0.62110  0.81870  Biso   1.000  H
  C18      1.0000 0.02830  0.58640  0.91440  Biso   1.000  C
  H10      1.0000 0.03240  0.55290  0.88310  Biso   1.000  H
  C19      1.0000 0.08940  0.59440  0.99850  Biso   1.000  C
  C20      1.0000 0.08590  0.64620  0.03950  Biso   1.000  C
  H11      1.0000 0.13090  0.65370  0.09420  Biso   1.000  H
  C21      1.0000 0.02020  0.68620  0.00360  Biso   1.000  C
  H12      1.0000 0.01900  0.72040  0.03430  Biso   1.000  H
  C22      1.0000 0.84290  0.29340  0.66340  Biso   1.000  C
  C23      1.0000 0.82440  0.31370  0.57740  Biso   1.000  C
  H13      1.0000 0.76400  0.30910  0.53670  Biso   1.000  H
  C24      1.0000 0.89640  0.34100  0.55210  Biso   1.000  C
  H14      1.0000 0.88390  0.35520  0.49420  Biso   1.000  H
  C25      1.0000 0.98680  0.34750  0.61170  Biso   1.000  C
  C26      1.0000 0.00190  0.32660  0.69670  Biso   1.000  C
  H15      1.0000 0.06210  0.33090  0.73780  Biso   1.000  H
  C27      1.0000 0.93140  0.29950  0.72320  Biso   1.000  C
  H16      1.0000 0.94380  0.28550  0.78120  Biso   1.000  H
  C28      1.0000 0.06090  0.37861  0.58270  Biso   1.000  C
  C29      1.0000 0.78270  0.21160  0.73080  Biso   1.000  C
  C30      1.0000 0.85270  0.17330  0.71960  Biso   1.000  C
  H17      1.0000 0.89070  0.18340  0.68340  Biso   1.000  H
  C31      1.0000 0.86520  0.12050  0.76210  Biso   1.000  C
  H18      1.0000 0.91430  0.09640  0.75750  Biso   1.000  H
  C32      1.0000 0.80650  0.10370  0.81070  Biso   1.000  C
  C33      1.0000 0.73900  0.14110  0.82410  Biso   1.000  C
  H19      1.0000 0.70040  0.12950  0.85890  Biso   1.000  H
  C34      1.0000 0.72750  0.19470  0.78730  Biso   1.000  C
  H20      1.0000 0.68350  0.22010  0.79940  Biso   1.000  H
  C35      1.0000 0.81680  0.04440  0.85110  Biso   1.000  C
  C36      1.0000 0.67630  0.29150  0.66690  Biso   1.000  C
  C37      1.0000 0.59290  0.25930  0.63180  Biso   1.000  C
  H21      1.0000 0.59710  0.22030  0.61990  Biso   1.000  H
  C38      1.0000 0.50310  0.28560  0.61440  Biso   1.000  C
  H22      1.0000 0.44750  0.26380  0.59380  Biso   1.000  H
  C39      1.0000 0.49710  0.34310  0.62790  Biso   1.000  C
  C40      1.0000 0.57970  0.37540  0.66070  Biso   1.000  C
  H23      1.0000 0.57570  0.41460  0.67110  Biso   1.000  H
  C41      1.0000 0.66800  0.34920  0.67780  Biso   1.000  C
  H24      1.0000 0.72320  0.37140  0.69720  Biso   1.000  H
  C42      1.0000 0.40140  0.37060  0.61030  Biso   1.000  C
  N1       1.0000 0.15370  0.55012  0.04320  Biso   1.000  N
  N2       1.0000 0.76670  0.26527  0.68920  Biso   1.000  N
  O1       1.0000 0.11090  0.51543  0.43320  Biso   1.000  O
  O2       1.0000 0.22370  0.44960  0.43880  Biso   1.000  O
  O3       1.0000 0.31280  0.39780  0.77390  Biso   1.000  O
  O4       1.0000 0.23770  0.33120  0.82830  Biso   1.000  O
  O5       1.0000 0.85010  0.75425  0.93230  Biso   1.000  O
  O6       1.0000 0.83700  0.72015  0.79860  Biso   1.000  O
  O7       1.0000 0.04030  0.40536  0.51240  Biso   1.000  O
  O8       1.0000 0.14690  0.37612  0.63470  Biso   1.000  O
  O9       1.0000 0.89120  0.01696  0.86420  Biso   1.000  O
  O10      1.0000 0.74050  0.02532  0.86670  Biso   1.000  O
  O11      1.0000 0.32780  0.34112  0.59540  Biso   1.000  O
  O12      1.0000 0.39680  0.42356  0.61130  Biso   1.000  O
  Cd3      1.0000 0.76363  0.93763  0.91625  Biso   1.000  Cd
  Cd4      1.0000 0.74194  0.80106  0.80360  Biso   1.000  Cd
  C43      1.0000 0.84380  0.03600  0.36780  Biso   1.000  C
  C44      1.0000 0.76290  0.00890  0.31310  Biso   1.000  C
  H25      1.0000 0.71000  0.00200  0.33350  Biso   1.000  H
  C45      1.0000 0.76200  0.99210  0.22730  Biso   1.000  C
  H26      1.0000 0.70980  0.97130  0.19270  Biso   1.000  H
  C46      1.0000 0.83350  0.00480  0.19290  Biso   1.000  C
  C47      1.0000 0.91300  0.03330  0.24790  Biso   1.000  C
  H27      1.0000 0.96410  0.04250  0.22620  Biso   1.000  H
  C48      1.0000 0.91660  0.04780  0.33370  Biso   1.000  C
  H28      1.0000 0.97080  0.06640  0.36940  Biso   1.000  H
  C49      1.0000 0.83150  0.98790  0.10020  Biso   1.000  C
  C50      1.0000 0.81430  0.00760  0.50880  Biso   1.000  C
  C51      1.0000 0.77320  0.02430  0.57430  Biso   1.000  C
  H29      1.0000 0.76410  0.06320  0.58310  Biso   1.000  H
  C52      1.0000 0.74610  0.98470  0.62560  Biso   1.000  C
  H30      1.0000 0.71900  0.99690  0.66940  Biso   1.000  H
  C53      1.0000 0.75830  0.92630  0.61400  Biso   1.000  C
  C54      1.0000 0.79820  0.91090  0.55080  Biso   1.000  C
  H31      1.0000 0.80550  0.87190  0.54140  Biso   1.000  H
  C55      1.0000 0.82950  0.95000  0.49820  Biso   1.000  C
  H32      1.0000 0.85990  0.93760  0.45690  Biso   1.000  H
  C56      1.0000 0.73310  0.88270  0.67500  Biso   1.000  C
  C57      1.0000 0.12490  0.22080  0.61920  Biso   1.000  C
  C58      1.0000 0.04700  0.17740  0.57980  Biso   1.000  C
  C59      1.0000 0.03910  0.12730  0.62420  Biso   1.000  C
  H33      1.0000 0.08010  0.12110  0.68130  Biso   1.000  H
  C60      1.0000 0.97170  0.08640  0.58560  Biso   1.000  C
  H34      1.0000 0.96760  0.05290  0.61690  Biso   1.000  H
  C61      1.0000 0.91060  0.09440  0.50150  Biso   1.000  C
  C62      1.0000 0.91410  0.14620  0.46050  Biso   1.000  C
  H35      1.0000 0.86910  0.15370  0.40580  Biso   1.000  H
  C63      1.0000 0.97980  0.18620  0.49640  Biso   1.000  C
  H36      1.0000 0.98100  0.22040  0.46570  Biso   1.000  H
  C64      1.0000 0.15710  0.79340  0.83660  Biso   1.000  C
  C65      1.0000 0.17560  0.81370  0.92260  Biso   1.000  C
  H37      1.0000 0.23600  0.80910  0.96330  Biso   1.000  H
  C66      1.0000 0.10360  0.84100  0.94790  Biso   1.000  C
  H38      1.0000 0.11610  0.85520  0.00580  Biso   1.000  H
  C67      1.0000 0.01320  0.84750  0.88830  Biso   1.000  C
  C68      1.0000 0.99810  0.82660  0.80330  Biso   1.000  C
  H39      1.0000 0.93790  0.83090  0.76220  Biso   1.000  H
  C69      1.0000 0.06860  0.79950  0.77680  Biso   1.000  C
  H40      1.0000 0.05620  0.78550  0.71880  Biso   1.000  H
  C70      1.0000 0.93910  0.87861  0.91730  Biso   1.000  C
  C71      1.0000 0.21730  0.71160  0.76920  Biso   1.000  C
  C72      1.0000 0.14730  0.67330  0.78040  Biso   1.000  C
  H41      1.0000 0.10930  0.68340  0.81660  Biso   1.000  H
  C73      1.0000 0.13480  0.62050  0.73790  Biso   1.000  C
  H42      1.0000 0.08570  0.59640  0.74250  Biso   1.000  H
  C74      1.0000 0.19350  0.60370  0.68930  Biso   1.000  C
  C75      1.0000 0.26100  0.64110  0.67590  Biso   1.000  C
  H43      1.0000 0.29960  0.62950  0.64110  Biso   1.000  H
  C76      1.0000 0.27250  0.69470  0.71270  Biso   1.000  C
  H44      1.0000 0.31650  0.72010  0.70060  Biso   1.000  H
  C77      1.0000 0.18320  0.54440  0.64890  Biso   1.000  C
  C78      1.0000 0.32370  0.79150  0.83310  Biso   1.000  C
  C79      1.0000 0.40710  0.75930  0.86820  Biso   1.000  C
  H45      1.0000 0.40290  0.72030  0.88010  Biso   1.000  H
  C80      1.0000 0.49690  0.78560  0.88560  Biso   1.000  C
  H46      1.0000 0.55250  0.76380  0.90620  Biso   1.000  H
  C81      1.0000 0.50290  0.84310  0.87210  Biso   1.000  C
  C82      1.0000 0.42030  0.87540  0.83930  Biso   1.000  C
  H47      1.0000 0.42430  0.91460  0.82890  Biso   1.000  H
  C83      1.0000 0.33200  0.84920  0.82220  Biso   1.000  C
  H48      1.0000 0.27680  0.87140  0.80280  Biso   1.000  H
  C84      1.0000 0.59860  0.87060  0.88970  Biso   1.000  C
  N3       1.0000 0.84630  0.05012  0.45680  Biso   1.000  N
  N4       1.0000 0.23330  0.76527  0.81080  Biso   1.000  N
  O13      1.0000 0.88910  0.01543  0.06680  Biso   1.000  O
  O14      1.0000 0.77630  0.94960  0.06120  Biso   1.000  O
  O15      1.0000 0.68720  0.89780  0.72610  Biso   1.000  O
  O16      1.0000 0.76230  0.83120  0.67170  Biso   1.000  O
  O17      1.0000 0.14990  0.25425  0.56770  Biso   1.000  O
  O18      1.0000 0.16300  0.22015  0.70140  Biso   1.000  O
  O19      1.0000 0.95970  0.90536  0.98760  Biso   1.000  O
  O20      1.0000 0.85310  0.87612  0.86530  Biso   1.000  O
  O21      1.0000 0.10880  0.51696  0.63580  Biso   1.000  O
  O22      1.0000 0.25950  0.52532  0.63330  Biso   1.000  O
  O23      1.0000 0.67220  0.84112  0.90460  Biso   1.000  O
  O24      1.0000 0.60320  0.92356  0.88870  Biso   1.000  O
  Cd5      1.0000 0.76363  0.56237  0.41625  Biso   1.000  Cd
  Cd6      1.0000 0.74194  0.69894  0.30360  Biso   1.000  Cd
  C85      1.0000 0.84380  0.46400  0.86780  Biso   1.000  C
  C86      1.0000 0.76290  0.49110  0.81310  Biso   1.000  C
  H49      1.0000 0.71000  0.49800  0.83350  Biso   1.000  H
  C87      1.0000 0.76200  0.50790  0.72730  Biso   1.000  C
  H50      1.0000 0.70980  0.52870  0.69270  Biso   1.000  H
  C88      1.0000 0.83350  0.49520  0.69290  Biso   1.000  C
  C89      1.0000 0.91300  0.46670  0.74790  Biso   1.000  C
  H51      1.0000 0.96410  0.45750  0.72620  Biso   1.000  H
  C90      1.0000 0.91660  0.45220  0.83370  Biso   1.000  C
  H52      1.0000 0.97080  0.43360  0.86940  Biso   1.000  H
  C91      1.0000 0.83150  0.51210  0.60020  Biso   1.000  C
  C92      1.0000 0.81430  0.49240  0.00880  Biso   1.000  C
  C93      1.0000 0.77320  0.47570  0.07430  Biso   1.000  C
  H53      1.0000 0.76410  0.43680  0.08310  Biso   1.000  H
  C94      1.0000 0.74610  0.51530  0.12560  Biso   1.000  C
  H54      1.0000 0.71900  0.50310  0.16940  Biso   1.000  H
  C95      1.0000 0.75830  0.57370  0.11400  Biso   1.000  C
  C96      1.0000 0.79820  0.58910  0.05080  Biso   1.000  C
  H55      1.0000 0.80550  0.62810  0.04140  Biso   1.000  H
  C97      1.0000 0.82950  0.55000  0.99820  Biso   1.000  C
  H56      1.0000 0.85990  0.56240  0.95690  Biso   1.000  H
  C98      1.0000 0.73310  0.61730  0.17500  Biso   1.000  C
  C99      1.0000 0.12490  0.27920  0.11920  Biso   1.000  C
  C100     1.0000 0.04700  0.32260  0.07980  Biso   1.000  C
  C101     1.0000 0.03910  0.37270  0.12420  Biso   1.000  C
  H57      1.0000 0.08010  0.37890  0.18130  Biso   1.000  H
  C102     1.0000 0.97170  0.41360  0.08560  Biso   1.000  C
  H58      1.0000 0.96760  0.44710  0.11690  Biso   1.000  H
  C103     1.0000 0.91060  0.40560  0.00150  Biso   1.000  C
  C104     1.0000 0.91410  0.35380  0.96050  Biso   1.000  C
  H59      1.0000 0.86910  0.34630  0.90580  Biso   1.000  H
  C105     1.0000 0.97980  0.31380  0.99640  Biso   1.000  C
  H60      1.0000 0.98100  0.27960  0.96570  Biso   1.000  H
  C106     1.0000 0.15710  0.70660  0.33660  Biso   1.000  C
  C107     1.0000 0.17560  0.68630  0.42260  Biso   1.000  C
  H61      1.0000 0.23600  0.69090  0.46330  Biso   1.000  H
  C108     1.0000 0.10360  0.65900  0.44790  Biso   1.000  C
  H62      1.0000 0.11610  0.64480  0.50580  Biso   1.000  H
  C109     1.0000 0.01320  0.65250  0.38830  Biso   1.000  C
  C110     1.0000 0.99810  0.67340  0.30330  Biso   1.000  C
  H63      1.0000 0.93790  0.66910  0.26220  Biso   1.000  H
  C111     1.0000 0.06860  0.70050  0.27680  Biso   1.000  C
  H64      1.0000 0.05620  0.71450  0.21880  Biso   1.000  H
  C112     1.0000 0.93910  0.62139  0.41730  Biso   1.000  C
  C113     1.0000 0.21730  0.78840  0.26920  Biso   1.000  C
  C114     1.0000 0.14730  0.82670  0.28040  Biso   1.000  C
  H65      1.0000 0.10930  0.81660  0.31660  Biso   1.000  H
  C115     1.0000 0.13480  0.87950  0.23790  Biso   1.000  C
  H66      1.0000 0.08570  0.90360  0.24250  Biso   1.000  H
  C116     1.0000 0.19350  0.89630  0.18930  Biso   1.000  C
  C117     1.0000 0.26100  0.85890  0.17590  Biso   1.000  C
  H67      1.0000 0.29960  0.87050  0.14110  Biso   1.000  H
  C118     1.0000 0.27250  0.80530  0.21270  Biso   1.000  C
  H68      1.0000 0.31650  0.77990  0.20060  Biso   1.000  H
  C119     1.0000 0.18320  0.95560  0.14890  Biso   1.000  C
  C120     1.0000 0.32370  0.70850  0.33310  Biso   1.000  C
  C121     1.0000 0.40710  0.74070  0.36820  Biso   1.000  C
  H69      1.0000 0.40290  0.77970  0.38010  Biso   1.000  H
  C122     1.0000 0.49690  0.71440  0.38560  Biso   1.000  C
  H70      1.0000 0.55250  0.73620  0.40620  Biso   1.000  H
  C123     1.0000 0.50290  0.65690  0.37210  Biso   1.000  C
  C124     1.0000 0.42030  0.62460  0.33930  Biso   1.000  C
  H71      1.0000 0.42430  0.58540  0.32890  Biso   1.000  H
  C125     1.0000 0.33200  0.65080  0.32220  Biso   1.000  C
  H72      1.0000 0.27680  0.62860  0.30280  Biso   1.000  H
  C126     1.0000 0.59860  0.62940  0.38970  Biso   1.000  C
  N5       1.0000 0.84630  0.44988  0.95680  Biso   1.000  N
  N6       1.0000 0.23330  0.73473  0.31080  Biso   1.000  N
  O25      1.0000 0.88910  0.48457  0.56680  Biso   1.000  O
  O26      1.0000 0.77630  0.55040  0.56120  Biso   1.000  O
  O27      1.0000 0.68720  0.60220  0.22610  Biso   1.000  O
  O28      1.0000 0.76230  0.66880  0.17170  Biso   1.000  O
  O29      1.0000 0.14990  0.24575  0.06770  Biso   1.000  O
  O30      1.0000 0.16300  0.27985  0.20140  Biso   1.000  O
  O31      1.0000 0.95970  0.59464  0.48760  Biso   1.000  O
  O32      1.0000 0.85310  0.62388  0.36530  Biso   1.000  O
  O33      1.0000 0.10880  0.98304  0.13580  Biso   1.000  O
  O34      1.0000 0.25950  0.97468  0.13330  Biso   1.000  O
  O35      1.0000 0.67220  0.65888  0.40460  Biso   1.000  O
  O36      1.0000 0.60320  0.57644  0.38870  Biso   1.000  O
  Cd7      1.0000 0.23637  0.06237  0.08375  Biso   1.000  Cd
  Cd8      1.0000 0.25806  0.19894  0.19640  Biso   1.000  Cd
  C127     1.0000 0.15620  0.96400  0.63220  Biso   1.000  C
  C128     1.0000 0.23710  0.99110  0.68690  Biso   1.000  C
  H73      1.0000 0.29000  0.99800  0.66650  Biso   1.000  H
  C129     1.0000 0.23800  0.00790  0.77270  Biso   1.000  C
  H74      1.0000 0.29020  0.02870  0.80730  Biso   1.000  H
  C130     1.0000 0.16650  0.99520  0.80710  Biso   1.000  C
  C131     1.0000 0.08700  0.96670  0.75210  Biso   1.000  C
  H75      1.0000 0.03590  0.95750  0.77380  Biso   1.000  H
  C132     1.0000 0.08340  0.95220  0.66630  Biso   1.000  C
  H76      1.0000 0.02920  0.93360  0.63060  Biso   1.000  H
  C133     1.0000 0.16850  0.01210  0.89980  Biso   1.000  C
  C134     1.0000 0.18570  0.99240  0.49120  Biso   1.000  C
  C135     1.0000 0.22680  0.97570  0.42570  Biso   1.000  C
  H77      1.0000 0.23590  0.93680  0.41690  Biso   1.000  H
  C136     1.0000 0.25390  0.01530  0.37440  Biso   1.000  C
  H78      1.0000 0.28100  0.00310  0.33060  Biso   1.000  H
  C137     1.0000 0.24170  0.07370  0.38600  Biso   1.000  C
  C138     1.0000 0.20180  0.08910  0.44920  Biso   1.000  C
  H79      1.0000 0.19450  0.12810  0.45860  Biso   1.000  H
  C139     1.0000 0.17050  0.05000  0.50180  Biso   1.000  C
  H80      1.0000 0.14010  0.06240  0.54310  Biso   1.000  H
  C140     1.0000 0.26690  0.11730  0.32500  Biso   1.000  C
  C141     1.0000 0.87510  0.77920  0.38080  Biso   1.000  C
  C142     1.0000 0.95300  0.82260  0.42020  Biso   1.000  C
  C143     1.0000 0.96090  0.87270  0.37580  Biso   1.000  C
  H81      1.0000 0.91990  0.87890  0.31870  Biso   1.000  H
  C144     1.0000 0.02830  0.91360  0.41440  Biso   1.000  C
  H82      1.0000 0.03240  0.94710  0.38310  Biso   1.000  H
  C145     1.0000 0.08940  0.90560  0.49850  Biso   1.000  C
  C146     1.0000 0.08590  0.85380  0.53950  Biso   1.000  C
  H83      1.0000 0.13090  0.84630  0.59420  Biso   1.000  H
  C147     1.0000 0.02020  0.81380  0.50360  Biso   1.000  C
  H84      1.0000 0.01900  0.77960  0.53430  Biso   1.000  H
  C148     1.0000 0.84290  0.20660  0.16340  Biso   1.000  C
  C149     1.0000 0.82440  0.18630  0.07740  Biso   1.000  C
  H85      1.0000 0.76400  0.19090  0.03670  Biso   1.000  H
  C150     1.0000 0.89640  0.15900  0.05210  Biso   1.000  C
  H86      1.0000 0.88390  0.14480  0.99420  Biso   1.000  H
  C151     1.0000 0.98680  0.15250  0.11170  Biso   1.000  C
  C152     1.0000 0.00190  0.17340  0.19670  Biso   1.000  C
  H87      1.0000 0.06210  0.16910  0.23780  Biso   1.000  H
  C153     1.0000 0.93140  0.20050  0.22320  Biso   1.000  C
  H88      1.0000 0.94380  0.21450  0.28120  Biso   1.000  H
  C154     1.0000 0.06090  0.12139  0.08270  Biso   1.000  C
  C155     1.0000 0.78270  0.28840  0.23080  Biso   1.000  C
  C156     1.0000 0.85270  0.32670  0.21960  Biso   1.000  C
  H89      1.0000 0.89070  0.31660  0.18340  Biso   1.000  H
  C157     1.0000 0.86520  0.37950  0.26210  Biso   1.000  C
  H90      1.0000 0.91430  0.40360  0.25750  Biso   1.000  H
  C158     1.0000 0.80650  0.39630  0.31070  Biso   1.000  C
  C159     1.0000 0.73900  0.35890  0.32410  Biso   1.000  C
  H91      1.0000 0.70040  0.37050  0.35890  Biso   1.000  H
  C160     1.0000 0.72750  0.30530  0.28730  Biso   1.000  C
  H92      1.0000 0.68350  0.27990  0.29940  Biso   1.000  H
  C161     1.0000 0.81680  0.45560  0.35110  Biso   1.000  C
  C162     1.0000 0.67630  0.20850  0.16690  Biso   1.000  C
  C163     1.0000 0.59290  0.24070  0.13180  Biso   1.000  C
  H93      1.0000 0.59710  0.27970  0.11990  Biso   1.000  H
  C164     1.0000 0.50310  0.21440  0.11440  Biso   1.000  C
  H94      1.0000 0.44750  0.23620  0.09380  Biso   1.000  H
  C165     1.0000 0.49710  0.15690  0.12790  Biso   1.000  C
  C166     1.0000 0.57970  0.12460  0.16070  Biso   1.000  C
  H95      1.0000 0.57570  0.08540  0.17110  Biso   1.000  H
  C167     1.0000 0.66800  0.15080  0.17780  Biso   1.000  C
  H96      1.0000 0.72320  0.12860  0.19720  Biso   1.000  H
  C168     1.0000 0.40140  0.12940  0.11030  Biso   1.000  C
  N7       1.0000 0.15370  0.94988  0.54320  Biso   1.000  N
  N8       1.0000 0.76670  0.23473  0.18920  Biso   1.000  N
  O37      1.0000 0.11090  0.98457  0.93320  Biso   1.000  O
  O38      1.0000 0.22370  0.05040  0.93880  Biso   1.000  O
  O39      1.0000 0.31280  0.10220  0.27390  Biso   1.000  O
  O40      1.0000 0.23770  0.16880  0.32830  Biso   1.000  O
  O41      1.0000 0.85010  0.74575  0.43230  Biso   1.000  O
  O42      1.0000 0.83700  0.77985  0.29860  Biso   1.000  O
  O43      1.0000 0.04030  0.09464  0.01240  Biso   1.000  O
  O44      1.0000 0.14690  0.12388  0.13470  Biso   1.000  O
  O45      1.0000 0.89120  0.48304  0.36420  Biso   1.000  O
  O46      1.0000 0.74050  0.47468  0.36670  Biso   1.000  O
  O47      1.0000 0.32780  0.15888  0.09540  Biso   1.000  O
  O48      1.0000 0.39680  0.07644  0.11130  Biso   1.000  O
  Cd9      1.0000 0.00000  0.50000  0.50000  Biso   1.000  Cd
  Cd10     1.0000 0.00000  0.00000  0.00000  Biso   1.000  Cd
