data_image0
_cell_length_a       14.5196
_cell_length_b       23.367
_cell_length_c       15.6042
_cell_angle_alpha    90
_cell_angle_beta     107.475
_cell_angle_gamma    90

_symmetry_space_group_name_H-M    "P 1"
_symmetry_int_tables_number       1

loop_
  _symmetry_equiv_pos_as_xyz
  'x, y, z'

loop_
  _atom_site_label
  _atom_site_occupancy
  _atom_site_fract_x
  _atom_site_fract_y
  _atom_site_fract_z
  _atom_site_thermal_displace_type
  _atom_site_B_iso_or_equiv
  _atom_site_type_symbol
  Cd1      1.0000 0.74343  0.05809  0.08387  Biso   1.000  Cd
  O1       1.0000 0.72380  0.05031  0.93600  Biso   1.000  O
  O2       1.0000 0.76240  0.96842  0.12360  Biso   1.000  O
  O3       1.0000 0.81660  0.08250  0.26070  Biso   1.000  O
  O4       1.0000 0.83310  0.15293  0.09420  Biso   1.000  O
  O5       1.0000 0.90590  0.06962  0.10610  Biso   1.000  O
  O6       1.0000 0.65240  0.12135  0.13000  Biso   1.000  O
  C1       1.0000 0.66540  0.01160  0.89690  Biso   1.000  C
  C2       1.0000 0.68900  0.95230  0.14420  Biso   1.000  C
  C3       1.0000 0.66300  0.99470  0.80310  Biso   1.000  C
  O7       1.0000 0.61090  0.98528  0.93070  Biso   1.000  O
  C4       1.0000 0.69360  0.89400  0.18260  Biso   1.000  C
  O8       1.0000 0.61610  0.98345  0.13460  Biso   1.000  O
  C5       1.0000 0.73810  0.00710  0.76810  Biso   1.000  C
  C6       1.0000 0.58390  0.96510  0.74990  Biso   1.000  C
  C7       1.0000 0.76010  0.85450  0.17070  Biso   1.000  C
  C8       1.0000 0.63460  0.87800  0.23300  Biso   1.000  C
  C9       1.0000 0.73340  0.99030  0.68310  Biso   1.000  C
  H1       1.0000 0.79190  0.02700  0.80280  Biso   1.000  H
  H2       1.0000 0.53330  0.95580  0.77250  Biso   1.000  H
  C10      1.0000 0.57950  0.94920  0.66370  Biso   1.000  C
  O9       1.0000 0.53880  0.09382  0.00870  Biso   1.000  O
  C11      1.0000 0.76790  0.80190  0.20820  Biso   1.000  C
  H3       1.0000 0.80000  0.86440  0.13640  Biso   1.000  H
  H4       1.0000 0.58780  0.90330  0.23960  Biso   1.000  H
  C12      1.0000 0.64350  0.82510  0.27400  Biso   1.000  C
  C13      1.0000 0.65350  0.96140  0.62880  Biso   1.000  C
  H5       1.0000 0.78480  0.99850  0.66110  Biso   1.000  H
  H6       1.0000 0.52540  0.92980  0.62840  Biso   1.000  H
  C14      1.0000 0.71140  0.78680  0.26300  Biso   1.000  C
  H7       1.0000 0.81110  0.77560  0.19730  Biso   1.000  H
  H8       1.0000 0.60390  0.81530  0.30880  Biso   1.000  H
  N1       1.0000 0.64890  0.94570  0.53890  Biso   1.000  N
  N2       1.0000 0.72510  0.73310  0.30790  Biso   1.000  N
  C15      1.0000 0.68350  0.98570  0.48650  Biso   1.000  C
  C16      1.0000 0.58320  0.90260  0.49440  Biso   1.000  C
  C17      1.0000 0.81730  0.70620  0.33220  Biso   1.000  C
  C18      1.0000 0.65020  0.70790  0.33450  Biso   1.000  C
  C19      1.0000 0.72780  0.96540  0.42490  Biso   1.000  C
  C20      1.0000 0.67150  0.04350  0.49360  Biso   1.000  C
  C21      1.0000 0.51920  0.91230  0.40960  Biso   1.000  C
  C22      1.0000 0.57880  0.85090  0.53470  Biso   1.000  C
  C23      1.0000 0.90030  0.73690  0.36600  Biso   1.000  C
  C24      1.0000 0.82180  0.64660  0.32150  Biso   1.000  C
  C25      1.0000 0.55810  0.70070  0.27550  Biso   1.000  C
  C26      1.0000 0.66790  0.68760  0.42220  Biso   1.000  C
  H9       1.0000 0.73720  0.92630  0.42040  Biso   1.000  H
  C27      1.0000 0.75840  0.00330  0.36970  Biso   1.000  C
  C28      1.0000 0.70190  0.08170  0.43900  Biso   1.000  C
  H10      1.0000 0.64290  0.05750  0.53530  Biso   1.000  H
  H11      1.0000 0.52330  0.94600  0.37950  Biso   1.000  H
  C29      1.0000 0.44920  0.87200  0.36950  Biso   1.000  C
  C30      1.0000 0.50960  0.81130  0.49560  Biso   1.000  C
  H12      1.0000 0.62380  0.84260  0.58970  Biso   1.000  H
  H13      1.0000 0.89680  0.77590  0.37670  Biso   1.000  H
  C31      1.0000 0.98960  0.71080  0.38460  Biso   1.000  C
  C32      1.0000 0.90980  0.62070  0.34250  Biso   1.000  C
  H14      1.0000 0.76550  0.62520  0.30040  Biso   1.000  H
  H15      1.0000 0.54410  0.71450  0.21710  Biso   1.000  H
  C33      1.0000 0.48700  0.67350  0.30180  Biso   1.000  C
  C34      1.0000 0.59780  0.66060  0.44900  Biso   1.000  C
  H16      1.0000 0.72870  0.69260  0.46320  Biso   1.000  H
  H17      1.0000 0.78730  0.98940  0.32820  Biso   1.000  H
  C35      1.0000 0.74550  0.06170  0.37700  Biso   1.000  C
  H18      1.0000 0.69280  0.12080  0.44420  Biso   1.000  H
  H19      1.0000 0.40680  0.87900  0.31260  Biso   1.000  H
  C36      1.0000 0.44220  0.82170  0.41350  Biso   1.000  C
  H20      1.0000 0.50790  0.77680  0.52480  Biso   1.000  H
  H21      1.0000 0.04570  0.73250  0.40470  Biso   1.000  H
  C37      1.0000 0.99540  0.65180  0.37310  Biso   1.000  C
  H22      1.0000 0.91290  0.58120  0.33630  Biso   1.000  H
  H23      1.0000 0.42590  0.66870  0.26110  Biso   1.000  H
  C38      1.0000 0.50670  0.65290  0.38990  Biso   1.000  C
  H24      1.0000 0.61170  0.64740  0.50770  Biso   1.000  H
  C39      1.0000 0.77480  0.10210  0.31480  Biso   1.000  C
  C40      1.0000 0.36320  0.77970  0.37290  Biso   1.000  C
  C41      1.0000 0.09070  0.62210  0.39170  Biso   1.000  C
  C42      1.0000 0.43520  0.62100  0.41920  Biso   1.000  C
  O10      1.0000 0.75240  0.15370  0.31960  Biso   1.000  O
  O11      1.0000 0.32030  0.78060  0.29130  Biso   1.000  O
  O12      1.0000 0.34020  0.74440  0.42320  Biso   1.000  O
  Cd2      1.0000 0.76650  0.19378  0.19489  Biso   1.000  Cd
  Cd3      1.0000 0.25657  0.55809  0.41613  Biso   1.000  Cd
  O13      1.0000 0.27620  0.55031  0.56400  Biso   1.000  O
  O14      1.0000 0.23760  0.46842  0.37640  Biso   1.000  O
  O15      1.0000 0.18340  0.58250  0.23930  Biso   1.000  O
  O16      1.0000 0.16690  0.65293  0.40580  Biso   1.000  O
  O17      1.0000 0.09410  0.56962  0.39390  Biso   1.000  O
  O18      1.0000 0.34760  0.62135  0.37000  Biso   1.000  O
  C43      1.0000 0.33460  0.51160  0.60310  Biso   1.000  C
  C44      1.0000 0.31100  0.45230  0.35580  Biso   1.000  C
  C45      1.0000 0.33700  0.49470  0.69690  Biso   1.000  C
  O19      1.0000 0.38910  0.48528  0.56930  Biso   1.000  O
  C46      1.0000 0.30640  0.39400  0.31740  Biso   1.000  C
  O20      1.0000 0.38390  0.48345  0.36540  Biso   1.000  O
  C47      1.0000 0.26190  0.50710  0.73190  Biso   1.000  C
  C48      1.0000 0.41610  0.46510  0.75010  Biso   1.000  C
  C49      1.0000 0.23990  0.35450  0.32930  Biso   1.000  C
  C50      1.0000 0.36540  0.37800  0.26700  Biso   1.000  C
  C51      1.0000 0.26660  0.49030  0.81690  Biso   1.000  C
  H25      1.0000 0.20810  0.52700  0.69720  Biso   1.000  H
  H26      1.0000 0.46670  0.45580  0.72750  Biso   1.000  H
  C52      1.0000 0.42050  0.44920  0.83630  Biso   1.000  C
  O21      1.0000 0.46120  0.59382  0.49130  Biso   1.000  O
  C53      1.0000 0.23210  0.30190  0.29180  Biso   1.000  C
  H27      1.0000 0.20000  0.36440  0.36360  Biso   1.000  H
  H28      1.0000 0.41220  0.40330  0.26040  Biso   1.000  H
  C54      1.0000 0.35650  0.32510  0.22600  Biso   1.000  C
  C55      1.0000 0.34650  0.46140  0.87120  Biso   1.000  C
  H29      1.0000 0.21520  0.49850  0.83890  Biso   1.000  H
  H30      1.0000 0.47460  0.42980  0.87160  Biso   1.000  H
  C56      1.0000 0.28860  0.28680  0.23700  Biso   1.000  C
  H31      1.0000 0.18890  0.27560  0.30270  Biso   1.000  H
  H32      1.0000 0.39610  0.31530  0.19120  Biso   1.000  H
  N3       1.0000 0.35110  0.44570  0.96110  Biso   1.000  N
  N4       1.0000 0.27490  0.23310  0.19210  Biso   1.000  N
  C57      1.0000 0.31650  0.48570  0.01350  Biso   1.000  C
  C58      1.0000 0.41680  0.40260  0.00560  Biso   1.000  C
  C59      1.0000 0.18270  0.20620  0.16780  Biso   1.000  C
  C60      1.0000 0.34980  0.20790  0.16550  Biso   1.000  C
  C61      1.0000 0.27220  0.46540  0.07510  Biso   1.000  C
  C62      1.0000 0.32850  0.54350  0.00640  Biso   1.000  C
  C63      1.0000 0.48080  0.41230  0.09040  Biso   1.000  C
  C64      1.0000 0.42120  0.35090  0.96530  Biso   1.000  C
  C65      1.0000 0.09970  0.23690  0.13400  Biso   1.000  C
  C66      1.0000 0.17820  0.14660  0.17850  Biso   1.000  C
  C67      1.0000 0.44190  0.20070  0.22450  Biso   1.000  C
  C68      1.0000 0.33210  0.18760  0.07780  Biso   1.000  C
  H33      1.0000 0.26280  0.42630  0.07960  Biso   1.000  H
  C69      1.0000 0.24160  0.50330  0.13030  Biso   1.000  C
  C70      1.0000 0.29810  0.58170  0.06100  Biso   1.000  C
  H34      1.0000 0.35710  0.55750  0.96470  Biso   1.000  H
  H35      1.0000 0.47670  0.44600  0.12050  Biso   1.000  H
  C71      1.0000 0.55080  0.37200  0.13050  Biso   1.000  C
  C72      1.0000 0.49040  0.31130  0.00440  Biso   1.000  C
  H36      1.0000 0.37620  0.34260  0.91030  Biso   1.000  H
  H37      1.0000 0.10320  0.27590  0.12330  Biso   1.000  H
  C73      1.0000 0.01040  0.21080  0.11540  Biso   1.000  C
  C74      1.0000 0.09020  0.12070  0.15750  Biso   1.000  C
  H38      1.0000 0.23450  0.12520  0.19960  Biso   1.000  H
  H39      1.0000 0.45590  0.21450  0.28290  Biso   1.000  H
  C75      1.0000 0.51300  0.17350  0.19820  Biso   1.000  C
  C76      1.0000 0.40220  0.16060  0.05100  Biso   1.000  C
  H40      1.0000 0.27130  0.19260  0.03680  Biso   1.000  H
  H41      1.0000 0.21270  0.48940  0.17180  Biso   1.000  H
  C77      1.0000 0.25450  0.56170  0.12300  Biso   1.000  C
  H42      1.0000 0.30720  0.62080  0.05580  Biso   1.000  H
  H43      1.0000 0.59320  0.37900  0.18740  Biso   1.000  H
  C78      1.0000 0.55780  0.32170  0.08650  Biso   1.000  C
  H44      1.0000 0.49210  0.27680  0.97520  Biso   1.000  H
  H45      1.0000 0.95430  0.23250  0.09530  Biso   1.000  H
  C79      1.0000 0.00460  0.15180  0.12690  Biso   1.000  C
  H46      1.0000 0.08710  0.08120  0.16370  Biso   1.000  H
  H47      1.0000 0.57410  0.16870  0.23890  Biso   1.000  H
  C80      1.0000 0.49330  0.15290  0.11010  Biso   1.000  C
  H48      1.0000 0.38830  0.14740  0.99230  Biso   1.000  H
  C81      1.0000 0.22520  0.60210  0.18520  Biso   1.000  C
  C82      1.0000 0.63680  0.27970  0.12710  Biso   1.000  C
  C83      1.0000 0.90930  0.12210  0.10830  Biso   1.000  C
  C84      1.0000 0.56480  0.12100  0.08080  Biso   1.000  C
  O22      1.0000 0.24760  0.65370  0.18040  Biso   1.000  O
  O23      1.0000 0.67970  0.28060  0.20870  Biso   1.000  O
  O24      1.0000 0.65980  0.24440  0.07680  Biso   1.000  O
  Cd4      1.0000 0.23350  0.69378  0.30511  Biso   1.000  Cd
  Cd5      1.0000 0.25657  0.94191  0.91613  Biso   1.000  Cd
  O25      1.0000 0.27620  0.94969  0.06400  Biso   1.000  O
  O26      1.0000 0.23760  0.03158  0.87640  Biso   1.000  O
  O27      1.0000 0.18340  0.91750  0.73930  Biso   1.000  O
  O28      1.0000 0.16690  0.84707  0.90580  Biso   1.000  O
  O29      1.0000 0.09410  0.93038  0.89390  Biso   1.000  O
  O30      1.0000 0.34760  0.87865  0.87000  Biso   1.000  O
  C85      1.0000 0.33460  0.98840  0.10310  Biso   1.000  C
  C86      1.0000 0.31100  0.04770  0.85580  Biso   1.000  C
  C87      1.0000 0.33700  0.00530  0.19690  Biso   1.000  C
  O31      1.0000 0.38910  0.01472  0.06930  Biso   1.000  O
  C88      1.0000 0.30640  0.10600  0.81740  Biso   1.000  C
  O32      1.0000 0.38390  0.01655  0.86540  Biso   1.000  O
  C89      1.0000 0.26190  0.99290  0.23190  Biso   1.000  C
  C90      1.0000 0.41610  0.03490  0.25010  Biso   1.000  C
  C91      1.0000 0.23990  0.14550  0.82930  Biso   1.000  C
  C92      1.0000 0.36540  0.12200  0.76700  Biso   1.000  C
  C93      1.0000 0.26660  0.00970  0.31690  Biso   1.000  C
  H49      1.0000 0.20810  0.97300  0.19720  Biso   1.000  H
  H50      1.0000 0.46670  0.04420  0.22750  Biso   1.000  H
  C94      1.0000 0.42050  0.05080  0.33630  Biso   1.000  C
  O33      1.0000 0.46120  0.90618  0.99130  Biso   1.000  O
  C95      1.0000 0.23210  0.19810  0.79180  Biso   1.000  C
  H51      1.0000 0.20000  0.13560  0.86360  Biso   1.000  H
  H52      1.0000 0.41220  0.09670  0.76040  Biso   1.000  H
  C96      1.0000 0.35650  0.17490  0.72600  Biso   1.000  C
  C97      1.0000 0.34650  0.03860  0.37120  Biso   1.000  C
  H53      1.0000 0.21520  0.00150  0.33890  Biso   1.000  H
  H54      1.0000 0.47460  0.07020  0.37160  Biso   1.000  H
  C98      1.0000 0.28860  0.21320  0.73700  Biso   1.000  C
  H55      1.0000 0.18890  0.22440  0.80270  Biso   1.000  H
  H56      1.0000 0.39610  0.18470  0.69120  Biso   1.000  H
  N5       1.0000 0.35110  0.05430  0.46110  Biso   1.000  N
  N6       1.0000 0.27490  0.26690  0.69210  Biso   1.000  N
  C99      1.0000 0.31650  0.01430  0.51350  Biso   1.000  C
  C100     1.0000 0.41680  0.09740  0.50560  Biso   1.000  C
  C101     1.0000 0.18270  0.29380  0.66780  Biso   1.000  C
  C102     1.0000 0.34980  0.29210  0.66550  Biso   1.000  C
  C103     1.0000 0.27220  0.03460  0.57510  Biso   1.000  C
  C104     1.0000 0.32850  0.95650  0.50640  Biso   1.000  C
  C105     1.0000 0.48080  0.08770  0.59040  Biso   1.000  C
  C106     1.0000 0.42120  0.14910  0.46530  Biso   1.000  C
  C107     1.0000 0.09970  0.26310  0.63400  Biso   1.000  C
  C108     1.0000 0.17820  0.35340  0.67850  Biso   1.000  C
  C109     1.0000 0.44190  0.29930  0.72450  Biso   1.000  C
  C110     1.0000 0.33210  0.31240  0.57780  Biso   1.000  C
  H57      1.0000 0.26280  0.07370  0.57960  Biso   1.000  H
  C111     1.0000 0.24160  0.99670  0.63030  Biso   1.000  C
  C112     1.0000 0.29810  0.91830  0.56100  Biso   1.000  C
  H58      1.0000 0.35710  0.94250  0.46470  Biso   1.000  H
  H59      1.0000 0.47670  0.05400  0.62050  Biso   1.000  H
  C113     1.0000 0.55080  0.12800  0.63050  Biso   1.000  C
  C114     1.0000 0.49040  0.18870  0.50440  Biso   1.000  C
  H60      1.0000 0.37620  0.15740  0.41030  Biso   1.000  H
  H61      1.0000 0.10320  0.22410  0.62330  Biso   1.000  H
  C115     1.0000 0.01040  0.28920  0.61540  Biso   1.000  C
  C116     1.0000 0.09020  0.37930  0.65750  Biso   1.000  C
  H62      1.0000 0.23450  0.37480  0.69960  Biso   1.000  H
  H63      1.0000 0.45590  0.28550  0.78290  Biso   1.000  H
  C117     1.0000 0.51300  0.32650  0.69820  Biso   1.000  C
  C118     1.0000 0.40220  0.33940  0.55100  Biso   1.000  C
  H64      1.0000 0.27130  0.30740  0.53680  Biso   1.000  H
  H65      1.0000 0.21270  0.01060  0.67180  Biso   1.000  H
  C119     1.0000 0.25450  0.93830  0.62300  Biso   1.000  C
  H66      1.0000 0.30720  0.87920  0.55580  Biso   1.000  H
  H67      1.0000 0.59320  0.12100  0.68740  Biso   1.000  H
  C120     1.0000 0.55780  0.17830  0.58650  Biso   1.000  C
  H68      1.0000 0.49210  0.22320  0.47520  Biso   1.000  H
  H69      1.0000 0.95430  0.26750  0.59530  Biso   1.000  H
  C121     1.0000 0.00460  0.34820  0.62690  Biso   1.000  C
  H70      1.0000 0.08710  0.41880  0.66370  Biso   1.000  H
  H71      1.0000 0.57410  0.33130  0.73890  Biso   1.000  H
  C122     1.0000 0.49330  0.34710  0.61010  Biso   1.000  C
  H72      1.0000 0.38830  0.35260  0.49230  Biso   1.000  H
  C123     1.0000 0.22520  0.89790  0.68520  Biso   1.000  C
  C124     1.0000 0.63680  0.22030  0.62710  Biso   1.000  C
  C125     1.0000 0.90930  0.37790  0.60830  Biso   1.000  C
  C126     1.0000 0.56480  0.37900  0.58080  Biso   1.000  C
  O34      1.0000 0.24760  0.84630  0.68040  Biso   1.000  O
  O35      1.0000 0.67970  0.21940  0.70870  Biso   1.000  O
  O36      1.0000 0.65980  0.25560  0.57680  Biso   1.000  O
  Cd6      1.0000 0.23350  0.80622  0.80511  Biso   1.000  Cd
  Cd7      1.0000 0.74343  0.44191  0.58387  Biso   1.000  Cd
  O37      1.0000 0.72380  0.44969  0.43600  Biso   1.000  O
  O38      1.0000 0.76240  0.53158  0.62360  Biso   1.000  O
  O39      1.0000 0.81660  0.41750  0.76070  Biso   1.000  O
  O40      1.0000 0.83310  0.34707  0.59420  Biso   1.000  O
  O41      1.0000 0.90590  0.43038  0.60610  Biso   1.000  O
  O42      1.0000 0.65240  0.37865  0.63000  Biso   1.000  O
  C127     1.0000 0.66540  0.48840  0.39690  Biso   1.000  C
  C128     1.0000 0.68900  0.54770  0.64420  Biso   1.000  C
  C129     1.0000 0.66300  0.50530  0.30310  Biso   1.000  C
  O43      1.0000 0.61090  0.51472  0.43070  Biso   1.000  O
  C130     1.0000 0.69360  0.60600  0.68260  Biso   1.000  C
  O44      1.0000 0.61610  0.51655  0.63460  Biso   1.000  O
  C131     1.0000 0.73810  0.49290  0.26810  Biso   1.000  C
  C132     1.0000 0.58390  0.53490  0.24990  Biso   1.000  C
  C133     1.0000 0.76010  0.64550  0.67070  Biso   1.000  C
  C134     1.0000 0.63460  0.62200  0.73300  Biso   1.000  C
  C135     1.0000 0.73340  0.50970  0.18310  Biso   1.000  C
  H73      1.0000 0.79190  0.47300  0.30280  Biso   1.000  H
  H74      1.0000 0.53330  0.54420  0.27250  Biso   1.000  H
  C136     1.0000 0.57950  0.55080  0.16370  Biso   1.000  C
  O45      1.0000 0.53880  0.40618  0.50870  Biso   1.000  O
  C137     1.0000 0.76790  0.69810  0.70820  Biso   1.000  C
  H75      1.0000 0.80000  0.63560  0.63640  Biso   1.000  H
  H76      1.0000 0.58780  0.59670  0.73960  Biso   1.000  H
  C138     1.0000 0.64350  0.67490  0.77400  Biso   1.000  C
  C139     1.0000 0.65350  0.53860  0.12880  Biso   1.000  C
  H77      1.0000 0.78480  0.50150  0.16110  Biso   1.000  H
  H78      1.0000 0.52540  0.57020  0.12840  Biso   1.000  H
  C140     1.0000 0.71140  0.71320  0.76300  Biso   1.000  C
  H79      1.0000 0.81110  0.72440  0.69730  Biso   1.000  H
  H80      1.0000 0.60390  0.68470  0.80880  Biso   1.000  H
  N7       1.0000 0.64890  0.55430  0.03890  Biso   1.000  N
  N8       1.0000 0.72510  0.76690  0.80790  Biso   1.000  N
  C141     1.0000 0.68350  0.51430  0.98650  Biso   1.000  C
  C142     1.0000 0.58320  0.59740  0.99440  Biso   1.000  C
  C143     1.0000 0.81730  0.79380  0.83220  Biso   1.000  C
  C144     1.0000 0.65020  0.79210  0.83450  Biso   1.000  C
  C145     1.0000 0.72780  0.53460  0.92490  Biso   1.000  C
  C146     1.0000 0.67150  0.45650  0.99360  Biso   1.000  C
  C147     1.0000 0.51920  0.58770  0.90960  Biso   1.000  C
  C148     1.0000 0.57880  0.64910  0.03470  Biso   1.000  C
  C149     1.0000 0.90030  0.76310  0.86600  Biso   1.000  C
  C150     1.0000 0.82180  0.85340  0.82150  Biso   1.000  C
  C151     1.0000 0.55810  0.79930  0.77550  Biso   1.000  C
  C152     1.0000 0.66790  0.81240  0.92220  Biso   1.000  C
  H81      1.0000 0.73720  0.57370  0.92040  Biso   1.000  H
  C153     1.0000 0.75840  0.49670  0.86970  Biso   1.000  C
  C154     1.0000 0.70190  0.41830  0.93900  Biso   1.000  C
  H82      1.0000 0.64290  0.44250  0.03530  Biso   1.000  H
  H83      1.0000 0.52330  0.55400  0.87950  Biso   1.000  H
  C155     1.0000 0.44920  0.62800  0.86950  Biso   1.000  C
  C156     1.0000 0.50960  0.68870  0.99560  Biso   1.000  C
  H84      1.0000 0.62380  0.65740  0.08970  Biso   1.000  H
  H85      1.0000 0.89680  0.72410  0.87670  Biso   1.000  H
  C157     1.0000 0.98960  0.78920  0.88460  Biso   1.000  C
  C158     1.0000 0.90980  0.87930  0.84250  Biso   1.000  C
  H86      1.0000 0.76550  0.87480  0.80040  Biso   1.000  H
  H87      1.0000 0.54410  0.78550  0.71710  Biso   1.000  H
  C159     1.0000 0.48700  0.82650  0.80180  Biso   1.000  C
  C160     1.0000 0.59780  0.83940  0.94900  Biso   1.000  C
  H88      1.0000 0.72870  0.80740  0.96320  Biso   1.000  H
  H89      1.0000 0.78730  0.51060  0.82820  Biso   1.000  H
  C161     1.0000 0.74550  0.43830  0.87700  Biso   1.000  C
  H90      1.0000 0.69280  0.37920  0.94420  Biso   1.000  H
  H91      1.0000 0.40680  0.62100  0.81260  Biso   1.000  H
  C162     1.0000 0.44220  0.67830  0.91350  Biso   1.000  C
  H92      1.0000 0.50790  0.72320  0.02480  Biso   1.000  H
  H93      1.0000 0.04570  0.76750  0.90470  Biso   1.000  H
  C163     1.0000 0.99540  0.84820  0.87310  Biso   1.000  C
  H94      1.0000 0.91290  0.91880  0.83630  Biso   1.000  H
  H95      1.0000 0.42590  0.83130  0.76110  Biso   1.000  H
  C164     1.0000 0.50670  0.84710  0.88990  Biso   1.000  C
  H96      1.0000 0.61170  0.85260  0.00770  Biso   1.000  H
  C165     1.0000 0.77480  0.39790  0.81480  Biso   1.000  C
  C166     1.0000 0.36320  0.72030  0.87290  Biso   1.000  C
  C167     1.0000 0.09070  0.87790  0.89170  Biso   1.000  C
  C168     1.0000 0.43520  0.87900  0.91920  Biso   1.000  C
  O46      1.0000 0.75240  0.34630  0.81960  Biso   1.000  O
  O47      1.0000 0.32030  0.71940  0.79130  Biso   1.000  O
  O48      1.0000 0.34020  0.75560  0.92320  Biso   1.000  O
  Cd8      1.0000 0.76650  0.30622  0.69489  Biso   1.000  Cd
  Cd9      1.0000 0.50000  0.00000  0.00000  Biso   1.000  Cd
  Cd10     1.0000 0.50000  0.50000  0.50000  Biso   1.000  Cd
