data_image0
_cell_length_a       14.3997
_cell_length_b       23.362
_cell_length_c       15.543
_cell_angle_alpha    90
_cell_angle_beta     106.309
_cell_angle_gamma    90

_symmetry_space_group_name_H-M    "P 1"
_symmetry_int_tables_number       1

loop_
  _symmetry_equiv_pos_as_xyz
  'x, y, z'

loop_
  _atom_site_label
  _atom_site_occupancy
  _atom_site_fract_x
  _atom_site_fract_y
  _atom_site_fract_z
  _atom_site_thermal_displace_type
  _atom_site_B_iso_or_equiv
  _atom_site_type_symbol
  Cd1      1.0000 0.25889  0.05907  0.92450  Biso   1.000  Cd
  C1       1.0000 0.41790  0.89970  0.51540  Biso   1.000  C
  C2       1.0000 0.48110  0.90830  0.59580  Biso   1.000  C
  H1       1.0000 0.47510  0.94180  0.62610  Biso   1.000  H
  C3       1.0000 0.55300  0.87190  0.63620  Biso   1.000  C
  H2       1.0000 0.59420  0.88130  0.69200  Biso   1.000  H
  C4       1.0000 0.56610  0.82230  0.59710  Biso   1.000  C
  C5       1.0000 0.50100  0.81260  0.51860  Biso   1.000  C
  H3       1.0000 0.50710  0.77830  0.49030  Biso   1.000  H
  C6       1.0000 0.42250  0.84900  0.47280  Biso   1.000  C
  H4       1.0000 0.37840  0.83900  0.41860  Biso   1.000  H
  C7       1.0000 0.64560  0.77640  0.62440  Biso   1.000  C
  C8       1.0000 0.34470  0.95740  0.37420  Biso   1.000  C
  C9       1.0000 0.41700  0.94520  0.34070  Biso   1.000  C
  H5       1.0000 0.47000  0.92460  0.37440  Biso   1.000  H
  C10      1.0000 0.41320  0.96360  0.25350  Biso   1.000  C
  H6       1.0000 0.46540  0.95690  0.23070  Biso   1.000  H
  C11      1.0000 0.33710  0.98990  0.20490  Biso   1.000  C
  C12      1.0000 0.26430  0.00110  0.23880  Biso   1.000  C
  H7       1.0000 0.21160  0.02210  0.20550  Biso   1.000  H
  C13      1.0000 0.26620  0.98190  0.32250  Biso   1.000  C
  H8       1.0000 0.21180  0.98610  0.34300  Biso   1.000  H
  C14      1.0000 0.33520  0.00820  0.11030  Biso   1.000  C
  C15      1.0000 0.31400  0.98380  0.51680  Biso   1.000  C
  C16      1.0000 0.26310  0.96350  0.57680  Biso   1.000  C
  H9       1.0000 0.24780  0.92500  0.57960  Biso   1.000  H
  C17      1.0000 0.23580  0.00660  0.63430  Biso   1.000  C
  H10      1.0000 0.20870  0.99470  0.67900  Biso   1.000  H
  C18      1.0000 0.24970  0.06440  0.62310  Biso   1.000  C
  C19      1.0000 0.29540  0.07710  0.56350  Biso   1.000  C
  H11      1.0000 0.30740  0.11570  0.55610  Biso   1.000  H
  C20      1.0000 0.32700  0.03900  0.51160  Biso   1.000  C
  H12      1.0000 0.35880  0.05260  0.47120  Biso   1.000  H
  C21      1.0000 0.21810  0.10220  0.68000  Biso   1.000  C
  C22      1.0000 0.64440  0.20890  0.83070  Biso   1.000  C
  C23      1.0000 0.66530  0.18540  0.91790  Biso   1.000  C
  H13      1.0000 0.72680  0.18810  0.95780  Biso   1.000  H
  C24      1.0000 0.59370  0.15930  0.94090  Biso   1.000  C
  H14      1.0000 0.60630  0.14480  0.99870  Biso   1.000  H
  C25      1.0000 0.50350  0.15280  0.88480  Biso   1.000  C
  C26      1.0000 0.48370  0.17450  0.79990  Biso   1.000  C
  H15      1.0000 0.42180  0.17070  0.76100  Biso   1.000  H
  C27      1.0000 0.55360  0.20170  0.77150  Biso   1.000  C
  H16      1.0000 0.54030  0.21530  0.71300  Biso   1.000  H
  C28      1.0000 0.42660  0.12050  0.91420  Biso   1.000  C
  C29      1.0000 0.70980  0.28570  0.75440  Biso   1.000  C
  C30      1.0000 0.63920  0.32650  0.76100  Biso   1.000  C
  H17      1.0000 0.59490  0.31750  0.79250  Biso   1.000  H
  C31      1.0000 0.63610  0.37780  0.72200  Biso   1.000  C
  H18      1.0000 0.58860  0.40350  0.72710  Biso   1.000  H
  C32      1.0000 0.69490  0.39350  0.67790  Biso   1.000  C
  C33      1.0000 0.76740  0.35530  0.66960  Biso   1.000  C
  H19      1.0000 0.81180  0.36730  0.64010  Biso   1.000  H
  C34      1.0000 0.77470  0.30000  0.70400  Biso   1.000  C
  H20      1.0000 0.81960  0.27380  0.69450  Biso   1.000  H
  C35      1.0000 0.69720  0.45150  0.63870  Biso   1.000  C
  C36      1.0000 0.81740  0.20490  0.82660  Biso   1.000  C
  C37      1.0000 0.89700  0.23650  0.86270  Biso   1.000  C
  H21      1.0000 0.89220  0.27550  0.87290  Biso   1.000  H
  C38      1.0000 0.98550  0.20990  0.88410  Biso   1.000  C
  H22      1.0000 0.04080  0.23210  0.90530  Biso   1.000  H
  C39      1.0000 0.99600  0.14980  0.87520  Biso   1.000  C
  C40      1.0000 0.91110  0.12130  0.83660  Biso   1.000  C
  H23      1.0000 0.91370  0.08190  0.82930  Biso   1.000  H
  C41      1.0000 0.82040  0.14840  0.80770  Biso   1.000  C
  H24      1.0000 0.76500  0.12850  0.77700  Biso   1.000  H
  C42      1.0000 0.08990  0.12350  0.89900  Biso   1.000  C
  N1       1.0000 0.35190  0.94260  0.46510  Biso   1.000  N
  N2       1.0000 0.72180  0.23310  0.80180  Biso   1.000  N
  O1       1.0000 0.68410  0.78450  0.71500  Biso   1.000  O
  O2       1.0000 0.66670  0.74440  0.57760  Biso   1.000  O
  O3       1.0000 0.39580  0.98550  0.07740  Biso   1.000  O
  O4       1.0000 0.27220  0.04480  0.06680  Biso   1.000  O
  O5       1.0000 0.18210  0.08470  0.74210  Biso   1.000  O
  O6       1.0000 0.24530  0.15630  0.67540  Biso   1.000  O
  O7       1.0000 0.44790  0.09260  0.98390  Biso   1.000  O
  O8       1.0000 0.34270  0.12070  0.86570  Biso   1.000  O
  O9       1.0000 0.62170  0.48100  0.62850  Biso   1.000  O
  O10      1.0000 0.77370  0.46960  0.61920  Biso   1.000  O
  O11      1.0000 0.09220  0.06960  0.90000  Biso   1.000  O
  O12      1.0000 0.16650  0.15180  0.91400  Biso   1.000  O
  Cd2      1.0000 0.74111  0.55907  0.57550  Biso   1.000  Cd
  C43      1.0000 0.58210  0.39970  0.98460  Biso   1.000  C
  C44      1.0000 0.51890  0.40830  0.90420  Biso   1.000  C
  H25      1.0000 0.52490  0.44180  0.87390  Biso   1.000  H
  C45      1.0000 0.44700  0.37190  0.86380  Biso   1.000  C
  H26      1.0000 0.40580  0.38130  0.80800  Biso   1.000  H
  C46      1.0000 0.43390  0.32230  0.90290  Biso   1.000  C
  C47      1.0000 0.49900  0.31260  0.98140  Biso   1.000  C
  H27      1.0000 0.49290  0.27830  0.00970  Biso   1.000  H
  C48      1.0000 0.57750  0.34900  0.02720  Biso   1.000  C
  H28      1.0000 0.62160  0.33900  0.08140  Biso   1.000  H
  C49      1.0000 0.35440  0.27640  0.87560  Biso   1.000  C
  C50      1.0000 0.65530  0.45740  0.12580  Biso   1.000  C
  C51      1.0000 0.58300  0.44520  0.15930  Biso   1.000  C
  H29      1.0000 0.53000  0.42460  0.12560  Biso   1.000  H
  C52      1.0000 0.58680  0.46360  0.24650  Biso   1.000  C
  H30      1.0000 0.53460  0.45690  0.26930  Biso   1.000  H
  C53      1.0000 0.66290  0.48990  0.29510  Biso   1.000  C
  C54      1.0000 0.73570  0.50110  0.26120  Biso   1.000  C
  H31      1.0000 0.78840  0.52210  0.29450  Biso   1.000  H
  C55      1.0000 0.73380  0.48190  0.17750  Biso   1.000  C
  H32      1.0000 0.78820  0.48610  0.15700  Biso   1.000  H
  C56      1.0000 0.66480  0.50820  0.38970  Biso   1.000  C
  C57      1.0000 0.68600  0.48380  0.98320  Biso   1.000  C
  C58      1.0000 0.73690  0.46350  0.92320  Biso   1.000  C
  H33      1.0000 0.75220  0.42500  0.92040  Biso   1.000  H
  C59      1.0000 0.76420  0.50660  0.86570  Biso   1.000  C
  H34      1.0000 0.79130  0.49470  0.82100  Biso   1.000  H
  C60      1.0000 0.75030  0.56440  0.87690  Biso   1.000  C
  C61      1.0000 0.70460  0.57710  0.93650  Biso   1.000  C
  H35      1.0000 0.69260  0.61570  0.94390  Biso   1.000  H
  C62      1.0000 0.67300  0.53900  0.98840  Biso   1.000  C
  H36      1.0000 0.64120  0.55260  0.02880  Biso   1.000  H
  C63      1.0000 0.78190  0.60220  0.82000  Biso   1.000  C
  C64      1.0000 0.35560  0.70890  0.66930  Biso   1.000  C
  C65      1.0000 0.33470  0.68540  0.58210  Biso   1.000  C
  H37      1.0000 0.27320  0.68810  0.54220  Biso   1.000  H
  C66      1.0000 0.40630  0.65930  0.55910  Biso   1.000  C
  H38      1.0000 0.39370  0.64480  0.50130  Biso   1.000  H
  C67      1.0000 0.49650  0.65280  0.61520  Biso   1.000  C
  C68      1.0000 0.51630  0.67450  0.70010  Biso   1.000  C
  H39      1.0000 0.57820  0.67070  0.73900  Biso   1.000  H
  C69      1.0000 0.44640  0.70170  0.72850  Biso   1.000  C
  H40      1.0000 0.45970  0.71530  0.78700  Biso   1.000  H
  C70      1.0000 0.57340  0.62050  0.58580  Biso   1.000  C
  C71      1.0000 0.29020  0.78570  0.74560  Biso   1.000  C
  C72      1.0000 0.36080  0.82650  0.73900  Biso   1.000  C
  H41      1.0000 0.40510  0.81750  0.70750  Biso   1.000  H
  C73      1.0000 0.36390  0.87780  0.77800  Biso   1.000  C
  H42      1.0000 0.41140  0.90350  0.77290  Biso   1.000  H
  C74      1.0000 0.30510  0.89350  0.82210  Biso   1.000  C
  C75      1.0000 0.23260  0.85530  0.83040  Biso   1.000  C
  H43      1.0000 0.18820  0.86730  0.85990  Biso   1.000  H
  C76      1.0000 0.22530  0.80000  0.79600  Biso   1.000  C
  H44      1.0000 0.18040  0.77380  0.80550  Biso   1.000  H
  C77      1.0000 0.30280  0.95150  0.86130  Biso   1.000  C
  C78      1.0000 0.18260  0.70490  0.67340  Biso   1.000  C
  C79      1.0000 0.10300  0.73650  0.63730  Biso   1.000  C
  H45      1.0000 0.10780  0.77550  0.62710  Biso   1.000  H
  C80      1.0000 0.01450  0.70990  0.61590  Biso   1.000  C
  H46      1.0000 0.95920  0.73210  0.59470  Biso   1.000  H
  C81      1.0000 0.00400  0.64980  0.62480  Biso   1.000  C
  C82      1.0000 0.08890  0.62130  0.66340  Biso   1.000  C
  H47      1.0000 0.08630  0.58190  0.67070  Biso   1.000  H
  C83      1.0000 0.17960  0.64840  0.69230  Biso   1.000  C
  H48      1.0000 0.23500  0.62850  0.72300  Biso   1.000  H
  C84      1.0000 0.91010  0.62350  0.60100  Biso   1.000  C
  N3       1.0000 0.64810  0.44260  0.03490  Biso   1.000  N
  N4       1.0000 0.27820  0.73310  0.69820  Biso   1.000  N
  O13      1.0000 0.31590  0.28450  0.78500  Biso   1.000  O
  O14      1.0000 0.33330  0.24440  0.92240  Biso   1.000  O
  O15      1.0000 0.60420  0.48550  0.42260  Biso   1.000  O
  O16      1.0000 0.72780  0.54480  0.43320  Biso   1.000  O
  O17      1.0000 0.81790  0.58470  0.75790  Biso   1.000  O
  O18      1.0000 0.75470  0.65630  0.82460  Biso   1.000  O
  O19      1.0000 0.55210  0.59260  0.51610  Biso   1.000  O
  O20      1.0000 0.65730  0.62070  0.63430  Biso   1.000  O
  O21      1.0000 0.37830  0.98100  0.87150  Biso   1.000  O
  O22      1.0000 0.22630  0.96960  0.88080  Biso   1.000  O
  O23      1.0000 0.90780  0.56960  0.60000  Biso   1.000  O
  O24      1.0000 0.83350  0.65180  0.58600  Biso   1.000  O
  Cd3      1.0000 0.74111  0.94093  0.07550  Biso   1.000  Cd
  C85      1.0000 0.58210  0.10030  0.48460  Biso   1.000  C
  C86      1.0000 0.51890  0.09170  0.40420  Biso   1.000  C
  H49      1.0000 0.52490  0.05820  0.37390  Biso   1.000  H
  C87      1.0000 0.44700  0.12810  0.36380  Biso   1.000  C
  H50      1.0000 0.40580  0.11870  0.30800  Biso   1.000  H
  C88      1.0000 0.43390  0.17770  0.40290  Biso   1.000  C
  C89      1.0000 0.49900  0.18740  0.48140  Biso   1.000  C
  H51      1.0000 0.49290  0.22170  0.50970  Biso   1.000  H
  C90      1.0000 0.57750  0.15100  0.52720  Biso   1.000  C
  H52      1.0000 0.62160  0.16100  0.58140  Biso   1.000  H
  C91      1.0000 0.35440  0.22360  0.37560  Biso   1.000  C
  C92      1.0000 0.65530  0.04260  0.62580  Biso   1.000  C
  C93      1.0000 0.58300  0.05480  0.65930  Biso   1.000  C
  H53      1.0000 0.53000  0.07540  0.62560  Biso   1.000  H
  C94      1.0000 0.58680  0.03640  0.74650  Biso   1.000  C
  H54      1.0000 0.53460  0.04310  0.76930  Biso   1.000  H
  C95      1.0000 0.66290  0.01010  0.79510  Biso   1.000  C
  C96      1.0000 0.73570  0.99890  0.76120  Biso   1.000  C
  H55      1.0000 0.78840  0.97790  0.79450  Biso   1.000  H
  C97      1.0000 0.73380  0.01810  0.67750  Biso   1.000  C
  H56      1.0000 0.78820  0.01390  0.65700  Biso   1.000  H
  C98      1.0000 0.66480  0.99180  0.88970  Biso   1.000  C
  C99      1.0000 0.68600  0.01620  0.48320  Biso   1.000  C
  C100     1.0000 0.73690  0.03650  0.42320  Biso   1.000  C
  H57      1.0000 0.75220  0.07500  0.42040  Biso   1.000  H
  C101     1.0000 0.76420  0.99340  0.36570  Biso   1.000  C
  H58      1.0000 0.79130  0.00530  0.32100  Biso   1.000  H
  C102     1.0000 0.75030  0.93560  0.37690  Biso   1.000  C
  C103     1.0000 0.70460  0.92290  0.43650  Biso   1.000  C
  H59      1.0000 0.69260  0.88430  0.44390  Biso   1.000  H
  C104     1.0000 0.67300  0.96100  0.48840  Biso   1.000  C
  H60      1.0000 0.64120  0.94740  0.52880  Biso   1.000  H
  C105     1.0000 0.78190  0.89780  0.32000  Biso   1.000  C
  C106     1.0000 0.35560  0.79110  0.16930  Biso   1.000  C
  C107     1.0000 0.33470  0.81460  0.08210  Biso   1.000  C
  H61      1.0000 0.27320  0.81190  0.04220  Biso   1.000  H
  C108     1.0000 0.40630  0.84070  0.05910  Biso   1.000  C
  H62      1.0000 0.39370  0.85520  0.00130  Biso   1.000  H
  C109     1.0000 0.49650  0.84720  0.11520  Biso   1.000  C
  C110     1.0000 0.51630  0.82550  0.20010  Biso   1.000  C
  H63      1.0000 0.57820  0.82930  0.23900  Biso   1.000  H
  C111     1.0000 0.44640  0.79830  0.22850  Biso   1.000  C
  H64      1.0000 0.45970  0.78470  0.28700  Biso   1.000  H
  C112     1.0000 0.57340  0.87950  0.08580  Biso   1.000  C
  C113     1.0000 0.29020  0.71430  0.24560  Biso   1.000  C
  C114     1.0000 0.36080  0.67350  0.23900  Biso   1.000  C
  H65      1.0000 0.40510  0.68250  0.20750  Biso   1.000  H
  C115     1.0000 0.36390  0.62220  0.27800  Biso   1.000  C
  H66      1.0000 0.41140  0.59650  0.27290  Biso   1.000  H
  C116     1.0000 0.30510  0.60650  0.32210  Biso   1.000  C
  C117     1.0000 0.23260  0.64470  0.33040  Biso   1.000  C
  H67      1.0000 0.18820  0.63270  0.35990  Biso   1.000  H
  C118     1.0000 0.22530  0.70000  0.29600  Biso   1.000  C
  H68      1.0000 0.18040  0.72620  0.30550  Biso   1.000  H
  C119     1.0000 0.30280  0.54850  0.36130  Biso   1.000  C
  C120     1.0000 0.18260  0.79510  0.17340  Biso   1.000  C
  C121     1.0000 0.10300  0.76350  0.13730  Biso   1.000  C
  H69      1.0000 0.10780  0.72450  0.12710  Biso   1.000  H
  C122     1.0000 0.01450  0.79010  0.11590  Biso   1.000  C
  H70      1.0000 0.95920  0.76790  0.09470  Biso   1.000  H
  C123     1.0000 0.00400  0.85020  0.12480  Biso   1.000  C
  C124     1.0000 0.08890  0.87870  0.16340  Biso   1.000  C
  H71      1.0000 0.08630  0.91810  0.17070  Biso   1.000  H
  C125     1.0000 0.17960  0.85160  0.19230  Biso   1.000  C
  H72      1.0000 0.23500  0.87150  0.22300  Biso   1.000  H
  C126     1.0000 0.91010  0.87650  0.10100  Biso   1.000  C
  N5       1.0000 0.64810  0.05740  0.53490  Biso   1.000  N
  N6       1.0000 0.27820  0.76690  0.19820  Biso   1.000  N
  O25      1.0000 0.31590  0.21550  0.28500  Biso   1.000  O
  O26      1.0000 0.33330  0.25560  0.42240  Biso   1.000  O
  O27      1.0000 0.60420  0.01450  0.92260  Biso   1.000  O
  O28      1.0000 0.72780  0.95520  0.93320  Biso   1.000  O
  O29      1.0000 0.81790  0.91530  0.25790  Biso   1.000  O
  O30      1.0000 0.75470  0.84370  0.32460  Biso   1.000  O
  O31      1.0000 0.55210  0.90740  0.01610  Biso   1.000  O
  O32      1.0000 0.65730  0.87930  0.13430  Biso   1.000  O
  O33      1.0000 0.37830  0.51900  0.37150  Biso   1.000  O
  O34      1.0000 0.22630  0.53040  0.38080  Biso   1.000  O
  O35      1.0000 0.90780  0.93040  0.10000  Biso   1.000  O
  O36      1.0000 0.83350  0.84820  0.08600  Biso   1.000  O
  Cd4      1.0000 0.25889  0.44093  0.42450  Biso   1.000  Cd
  C127     1.0000 0.41790  0.60030  0.01540  Biso   1.000  C
  C128     1.0000 0.48110  0.59170  0.09580  Biso   1.000  C
  H73      1.0000 0.47510  0.55820  0.12610  Biso   1.000  H
  C129     1.0000 0.55300  0.62810  0.13620  Biso   1.000  C
  H74      1.0000 0.59420  0.61870  0.19200  Biso   1.000  H
  C130     1.0000 0.56610  0.67770  0.09710  Biso   1.000  C
  C131     1.0000 0.50100  0.68740  0.01860  Biso   1.000  C
  H75      1.0000 0.50710  0.72170  0.99030  Biso   1.000  H
  C132     1.0000 0.42250  0.65100  0.97280  Biso   1.000  C
  H76      1.0000 0.37840  0.66100  0.91860  Biso   1.000  H
  C133     1.0000 0.64560  0.72360  0.12440  Biso   1.000  C
  C134     1.0000 0.34470  0.54260  0.87420  Biso   1.000  C
  C135     1.0000 0.41700  0.55480  0.84070  Biso   1.000  C
  H77      1.0000 0.47000  0.57540  0.87440  Biso   1.000  H
  C136     1.0000 0.41320  0.53640  0.75350  Biso   1.000  C
  H78      1.0000 0.46540  0.54310  0.73070  Biso   1.000  H
  C137     1.0000 0.33710  0.51010  0.70490  Biso   1.000  C
  C138     1.0000 0.26430  0.49890  0.73880  Biso   1.000  C
  H79      1.0000 0.21160  0.47790  0.70550  Biso   1.000  H
  C139     1.0000 0.26620  0.51810  0.82250  Biso   1.000  C
  H80      1.0000 0.21180  0.51390  0.84300  Biso   1.000  H
  C140     1.0000 0.33520  0.49180  0.61030  Biso   1.000  C
  C141     1.0000 0.31400  0.51620  0.01680  Biso   1.000  C
  C142     1.0000 0.26310  0.53650  0.07680  Biso   1.000  C
  H81      1.0000 0.24780  0.57500  0.07960  Biso   1.000  H
  C143     1.0000 0.23580  0.49340  0.13430  Biso   1.000  C
  H82      1.0000 0.20870  0.50530  0.17900  Biso   1.000  H
  C144     1.0000 0.24970  0.43560  0.12310  Biso   1.000  C
  C145     1.0000 0.29540  0.42290  0.06350  Biso   1.000  C
  H83      1.0000 0.30740  0.38430  0.05610  Biso   1.000  H
  C146     1.0000 0.32700  0.46100  0.01160  Biso   1.000  C
  H84      1.0000 0.35880  0.44740  0.97120  Biso   1.000  H
  C147     1.0000 0.21810  0.39780  0.18000  Biso   1.000  C
  C148     1.0000 0.64440  0.29110  0.33070  Biso   1.000  C
  C149     1.0000 0.66530  0.31460  0.41790  Biso   1.000  C
  H85      1.0000 0.72680  0.31190  0.45780  Biso   1.000  H
  C150     1.0000 0.59370  0.34070  0.44090  Biso   1.000  C
  H86      1.0000 0.60630  0.35520  0.49870  Biso   1.000  H
  C151     1.0000 0.50350  0.34720  0.38480  Biso   1.000  C
  C152     1.0000 0.48370  0.32550  0.29990  Biso   1.000  C
  H87      1.0000 0.42180  0.32930  0.26100  Biso   1.000  H
  C153     1.0000 0.55360  0.29830  0.27150  Biso   1.000  C
  H88      1.0000 0.54030  0.28470  0.21300  Biso   1.000  H
  C154     1.0000 0.42660  0.37950  0.41420  Biso   1.000  C
  C155     1.0000 0.70980  0.21430  0.25440  Biso   1.000  C
  C156     1.0000 0.63920  0.17350  0.26100  Biso   1.000  C
  H89      1.0000 0.59490  0.18250  0.29250  Biso   1.000  H
  C157     1.0000 0.63610  0.12220  0.22200  Biso   1.000  C
  H90      1.0000 0.58860  0.09650  0.22710  Biso   1.000  H
  C158     1.0000 0.69490  0.10650  0.17790  Biso   1.000  C
  C159     1.0000 0.76740  0.14470  0.16960  Biso   1.000  C
  H91      1.0000 0.81180  0.13270  0.14010  Biso   1.000  H
  C160     1.0000 0.77470  0.20000  0.20400  Biso   1.000  C
  H92      1.0000 0.81960  0.22620  0.19450  Biso   1.000  H
  C161     1.0000 0.69720  0.04850  0.13870  Biso   1.000  C
  C162     1.0000 0.81740  0.29510  0.32660  Biso   1.000  C
  C163     1.0000 0.89700  0.26350  0.36270  Biso   1.000  C
  H93      1.0000 0.89220  0.22450  0.37290  Biso   1.000  H
  C164     1.0000 0.98550  0.29010  0.38410  Biso   1.000  C
  H94      1.0000 0.04080  0.26790  0.40530  Biso   1.000  H
  C165     1.0000 0.99600  0.35020  0.37520  Biso   1.000  C
  C166     1.0000 0.91110  0.37870  0.33660  Biso   1.000  C
  H95      1.0000 0.91370  0.41810  0.32930  Biso   1.000  H
  C167     1.0000 0.82040  0.35160  0.30770  Biso   1.000  C
  H96      1.0000 0.76500  0.37150  0.27700  Biso   1.000  H
  C168     1.0000 0.08990  0.37650  0.39900  Biso   1.000  C
  N7       1.0000 0.35190  0.55740  0.96510  Biso   1.000  N
  N8       1.0000 0.72180  0.26690  0.30180  Biso   1.000  N
  O37      1.0000 0.68410  0.71550  0.21500  Biso   1.000  O
  O38      1.0000 0.66670  0.75560  0.07760  Biso   1.000  O
  O39      1.0000 0.39580  0.51450  0.57740  Biso   1.000  O
  O40      1.0000 0.27220  0.45520  0.56680  Biso   1.000  O
  O41      1.0000 0.18210  0.41530  0.24210  Biso   1.000  O
  O42      1.0000 0.24530  0.34370  0.17540  Biso   1.000  O
  O43      1.0000 0.44790  0.40740  0.48390  Biso   1.000  O
  O44      1.0000 0.34270  0.37930  0.36570  Biso   1.000  O
  O45      1.0000 0.62170  0.01900  0.12850  Biso   1.000  O
  O46      1.0000 0.77370  0.03040  0.11920  Biso   1.000  O
  O47      1.0000 0.09220  0.43040  0.40000  Biso   1.000  O
  O48      1.0000 0.16650  0.34820  0.41400  Biso   1.000  O
  Cd5      1.0000 0.50000  0.00000  0.00000  Biso   1.000  Cd
  Cd6      1.0000 0.50000  0.50000  0.50000  Biso   1.000  Cd
