data_image0
_cell_length_a       9.663
_cell_length_b       9.663
_cell_length_c       20.224
_cell_angle_alpha    90
_cell_angle_beta     90
_cell_angle_gamma    120

_symmetry_space_group_name_H-M    "P 1"
_symmetry_int_tables_number       1

loop_
  _symmetry_equiv_pos_as_xyz
  'x, y, z'

loop_
  _atom_site_label
  _atom_site_occupancy
  _atom_site_fract_x
  _atom_site_fract_y
  _atom_site_fract_z
  _atom_site_thermal_displace_type
  _atom_site_B_iso_or_equiv
  _atom_site_type_symbol
  Zn1      1.0000 0.93547  0.50641  0.41623  Biso   1.000  Zn
  N1       1.0000 0.34800  0.83030  0.51356  Biso   1.000  N
  N2       1.0000 0.40840  0.81230  0.45320  Biso   1.000  N
  N3       1.0000 0.14190  0.68310  0.44900  Biso   1.000  N
  N4       1.0000 0.08670  0.74590  0.55670  Biso   1.000  N
  H1       1.0000 0.98770  0.65190  0.56240  Biso   1.000  H
  H2       1.0000 0.11910  0.78900  0.59790  Biso   1.000  H
  N5       1.0000 0.21650  0.42000  0.28900  Biso   1.000  N
  N6       1.0000 0.03010  0.42630  0.35050  Biso   1.000  N
  N7       1.0000 0.96060  0.27420  0.32250  Biso   1.000  N
  N8       1.0000 0.05950  0.15020  0.25060  Biso   1.000  N
  H3       1.0000 0.95510  0.07660  0.23410  Biso   1.000  H
  H4       1.0000 0.11670  0.16490  0.21260  Biso   1.000  H
  C1       1.0000 0.19000  0.75160  0.50900  Biso   1.000  C
  C2       1.0000 0.28240  0.72470  0.41750  Biso   1.000  C
  C3       1.0000 0.29330  0.67930  0.34680  Biso   1.000  C
  H5       1.0000 0.27360  0.74840  0.31670  Biso   1.000  H
  H6       1.0000 0.40350  0.70120  0.33860  Biso   1.000  H
  C4       1.0000 0.17990  0.50980  0.33010  Biso   1.000  C
  C5       1.0000 0.07670  0.27900  0.28640  Biso   1.000  C
  Zn2      1.0000 0.49359  0.42906  0.74956  Biso   1.000  Zn
  N9       1.0000 0.16970  0.51770  0.84689  Biso   1.000  N
  N10      1.0000 0.18770  0.59610  0.78653  Biso   1.000  N
  N11      1.0000 0.31690  0.45880  0.78233  Biso   1.000  N
  N12      1.0000 0.25410  0.34080  0.89003  Biso   1.000  N
  H7       1.0000 0.34810  0.33580  0.89573  Biso   1.000  H
  H8       1.0000 0.21100  0.33010  0.93123  Biso   1.000  H
  N13      1.0000 0.58000  0.79650  0.62233  Biso   1.000  N
  N14      1.0000 0.57370  0.60380  0.68383  Biso   1.000  N
  N15      1.0000 0.72580  0.68640  0.65583  Biso   1.000  N
  N16      1.0000 0.84980  0.90930  0.58393  Biso   1.000  N
  H9       1.0000 0.92340  0.87850  0.56743  Biso   1.000  H
  H10      1.0000 0.83510  0.95180  0.54593  Biso   1.000  H
  C6       1.0000 0.24840  0.43840  0.84233  Biso   1.000  C
  C7       1.0000 0.27530  0.55770  0.75083  Biso   1.000  C
  C8       1.0000 0.32070  0.61400  0.68013  Biso   1.000  C
  H11      1.0000 0.25160  0.52520  0.65003  Biso   1.000  H
  H12      1.0000 0.29880  0.70230  0.67193  Biso   1.000  H
  C9       1.0000 0.49020  0.67010  0.66343  Biso   1.000  C
  C10      1.0000 0.72100  0.79770  0.61973  Biso   1.000  C
  Zn3      1.0000 0.57094  0.06453  0.08290  Biso   1.000  Zn
  N17      1.0000 0.48230  0.65200  0.18023  Biso   1.000  N
  N18      1.0000 0.40390  0.59160  0.11987  Biso   1.000  N
  N19      1.0000 0.54120  0.85810  0.11567  Biso   1.000  N
  N20      1.0000 0.65920  0.91330  0.22337  Biso   1.000  N
  H13      1.0000 0.66420  0.01230  0.22907  Biso   1.000  H
  H14      1.0000 0.66990  0.88090  0.26457  Biso   1.000  H
  N21      1.0000 0.20350  0.78350  0.95567  Biso   1.000  N
  N22      1.0000 0.39620  0.96990  0.01717  Biso   1.000  N
  N23      1.0000 0.31360  0.03940  0.98917  Biso   1.000  N
  N24      1.0000 0.09070  0.94050  0.91727  Biso   1.000  N
  H15      1.0000 0.12150  0.04490  0.90077  Biso   1.000  H
  H16      1.0000 0.04820  0.88330  0.87927  Biso   1.000  H
  C11      1.0000 0.56160  0.81000  0.17567  Biso   1.000  C
  C12      1.0000 0.44230  0.71760  0.08417  Biso   1.000  C
  C13      1.0000 0.38600  0.70670  0.01347  Biso   1.000  C
  H17      1.0000 0.47480  0.72640  0.98337  Biso   1.000  H
  H18      1.0000 0.29770  0.59650  0.00527  Biso   1.000  H
  C14      1.0000 0.32990  0.82010  0.99677  Biso   1.000  C
  C15      1.0000 0.20230  0.92330  0.95307  Biso   1.000  C
  Zn4      1.0000 0.50641  0.93547  0.58377  Biso   1.000  Zn
  N25      1.0000 0.83030  0.34800  0.48644  Biso   1.000  N
  N26      1.0000 0.81230  0.40840  0.54680  Biso   1.000  N
  N27      1.0000 0.68310  0.14190  0.55100  Biso   1.000  N
  N28      1.0000 0.74590  0.08670  0.44330  Biso   1.000  N
  H19      1.0000 0.65190  0.98770  0.43760  Biso   1.000  H
  H20      1.0000 0.78900  0.11910  0.40210  Biso   1.000  H
  N29      1.0000 0.42000  0.21650  0.71100  Biso   1.000  N
  N30      1.0000 0.42630  0.03010  0.64950  Biso   1.000  N
  N31      1.0000 0.27420  0.96060  0.67750  Biso   1.000  N
  N32      1.0000 0.15020  0.05950  0.74940  Biso   1.000  N
  H21      1.0000 0.07660  0.95510  0.76590  Biso   1.000  H
  H22      1.0000 0.16490  0.11670  0.78740  Biso   1.000  H
  C16      1.0000 0.75160  0.19000  0.49100  Biso   1.000  C
  C17      1.0000 0.72470  0.28240  0.58250  Biso   1.000  C
  C18      1.0000 0.67930  0.29330  0.65320  Biso   1.000  C
  H23      1.0000 0.74840  0.27360  0.68330  Biso   1.000  H
  H24      1.0000 0.70120  0.40350  0.66140  Biso   1.000  H
  C19      1.0000 0.50980  0.17990  0.66990  Biso   1.000  C
  C20      1.0000 0.27900  0.07670  0.71360  Biso   1.000  C
  Zn5      1.0000 0.42906  0.49359  0.25044  Biso   1.000  Zn
  N33      1.0000 0.51770  0.16970  0.15311  Biso   1.000  N
  N34      1.0000 0.59610  0.18770  0.21347  Biso   1.000  N
  N35      1.0000 0.45880  0.31690  0.21767  Biso   1.000  N
  N36      1.0000 0.34080  0.25410  0.10997  Biso   1.000  N
  H25      1.0000 0.33580  0.34810  0.10427  Biso   1.000  H
  H26      1.0000 0.33010  0.21100  0.06877  Biso   1.000  H
  N37      1.0000 0.79650  0.58000  0.37767  Biso   1.000  N
  N38      1.0000 0.60380  0.57370  0.31617  Biso   1.000  N
  N39      1.0000 0.68640  0.72580  0.34417  Biso   1.000  N
  N40      1.0000 0.90930  0.84980  0.41607  Biso   1.000  N
  H27      1.0000 0.87850  0.92340  0.43257  Biso   1.000  H
  H28      1.0000 0.95180  0.83510  0.45407  Biso   1.000  H
  C21      1.0000 0.43840  0.24840  0.15767  Biso   1.000  C
  C22      1.0000 0.55770  0.27530  0.24917  Biso   1.000  C
  C23      1.0000 0.61400  0.32070  0.31987  Biso   1.000  C
  H29      1.0000 0.52520  0.25160  0.34997  Biso   1.000  H
  H30      1.0000 0.70230  0.29880  0.32807  Biso   1.000  H
  C24      1.0000 0.67010  0.49020  0.33657  Biso   1.000  C
  C25      1.0000 0.79770  0.72100  0.38027  Biso   1.000  C
  Zn6      1.0000 0.06453  0.57094  0.91710  Biso   1.000  Zn
  N41      1.0000 0.65200  0.48230  0.81977  Biso   1.000  N
  N42      1.0000 0.59160  0.40390  0.88013  Biso   1.000  N
  N43      1.0000 0.85810  0.54120  0.88433  Biso   1.000  N
  N44      1.0000 0.91330  0.65920  0.77663  Biso   1.000  N
  H31      1.0000 0.01230  0.66420  0.77093  Biso   1.000  H
  H32      1.0000 0.88090  0.66990  0.73543  Biso   1.000  H
  N45      1.0000 0.78350  0.20350  0.04433  Biso   1.000  N
  N46      1.0000 0.96990  0.39620  0.98283  Biso   1.000  N
  N47      1.0000 0.03940  0.31360  0.01083  Biso   1.000  N
  N48      1.0000 0.94050  0.09070  0.08273  Biso   1.000  N
  H33      1.0000 0.04490  0.12150  0.09923  Biso   1.000  H
  H34      1.0000 0.88330  0.04820  0.12073  Biso   1.000  H
  C26      1.0000 0.81000  0.56160  0.82433  Biso   1.000  C
  C27      1.0000 0.71760  0.44230  0.91583  Biso   1.000  C
  C28      1.0000 0.70670  0.38600  0.98653  Biso   1.000  C
  H35      1.0000 0.72640  0.47480  0.01663  Biso   1.000  H
  H36      1.0000 0.59650  0.29770  0.99473  Biso   1.000  H
  C29      1.0000 0.82010  0.32990  0.00323  Biso   1.000  C
  C30      1.0000 0.92330  0.20230  0.04693  Biso   1.000  C
