data_image0
_cell_length_a       9.6896
_cell_length_b       9.6896
_cell_length_c       20.153
_cell_angle_alpha    90
_cell_angle_beta     90
_cell_angle_gamma    120

_symmetry_space_group_name_H-M    "P 1"
_symmetry_int_tables_number       1

loop_
  _symmetry_equiv_pos_as_xyz
  'x, y, z'

loop_
  _atom_site_label
  _atom_site_occupancy
  _atom_site_fract_x
  _atom_site_fract_y
  _atom_site_fract_z
  _atom_site_thermal_displace_type
  _atom_site_B_iso_or_equiv
  _atom_site_type_symbol
  Zn1      1.0000 0.93674  0.50690  0.41598  Biso   1.000  Zn
  N1       1.0000 0.34850  0.83150  0.51349  Biso   1.000  N
  N2       1.0000 0.40900  0.81350  0.45329  Biso   1.000  N
  N3       1.0000 0.14290  0.68250  0.44901  Biso   1.000  N
  N4       1.0000 0.08820  0.74570  0.55686  Biso   1.000  N
  H1       1.0000 0.98740  0.65340  0.56130  Biso   1.000  H
  H2       1.0000 0.12000  0.78470  0.59860  Biso   1.000  H
  N5       1.0000 0.21680  0.41990  0.28902  Biso   1.000  N
  N6       1.0000 0.03150  0.42690  0.35025  Biso   1.000  N
  N7       1.0000 0.96290  0.27590  0.32220  Biso   1.000  N
  N8       1.0000 0.05930  0.15050  0.24970  Biso   1.000  N
  H3       1.0000 0.95810  0.08360  0.22900  Biso   1.000  H
  H4       1.0000 0.12490  0.16480  0.21470  Biso   1.000  H
  C1       1.0000 0.19020  0.75120  0.50930  Biso   1.000  C
  C2       1.0000 0.28290  0.72410  0.41780  Biso   1.000  C
  C3       1.0000 0.29390  0.67810  0.34710  Biso   1.000  C
  H5       1.0000 0.27450  0.74700  0.31680  Biso   1.000  H
  H6       1.0000 0.40390  0.70010  0.33910  Biso   1.000  H
  C4       1.0000 0.18100  0.50860  0.33010  Biso   1.000  C
  C5       1.0000 0.07680  0.27860  0.28610  Biso   1.000  C
  Zn2      1.0000 0.49310  0.42984  0.74931  Biso   1.000  Zn
  N9       1.0000 0.16850  0.51700  0.84682  Biso   1.000  N
  N10      1.0000 0.18650  0.59550  0.78662  Biso   1.000  N
  N11      1.0000 0.31750  0.46040  0.78234  Biso   1.000  N
  N12      1.0000 0.25430  0.34250  0.89019  Biso   1.000  N
  H7       1.0000 0.34660  0.33400  0.89463  Biso   1.000  H
  H8       1.0000 0.21530  0.33530  0.93193  Biso   1.000  H
  N13      1.0000 0.58010  0.79690  0.62235  Biso   1.000  N
  N14      1.0000 0.57310  0.60460  0.68358  Biso   1.000  N
  N15      1.0000 0.72410  0.68700  0.65553  Biso   1.000  N
  N16      1.0000 0.84950  0.90880  0.58303  Biso   1.000  N
  H9       1.0000 0.91640  0.87450  0.56233  Biso   1.000  H
  H10      1.0000 0.83520  0.96010  0.54803  Biso   1.000  H
  C6       1.0000 0.24880  0.43900  0.84263  Biso   1.000  C
  C7       1.0000 0.27590  0.55880  0.75113  Biso   1.000  C
  C8       1.0000 0.32190  0.61580  0.68043  Biso   1.000  C
  H11      1.0000 0.25300  0.52750  0.65013  Biso   1.000  H
  H12      1.0000 0.29990  0.70380  0.67243  Biso   1.000  H
  C9       1.0000 0.49140  0.67240  0.66343  Biso   1.000  C
  C10      1.0000 0.72140  0.79820  0.61943  Biso   1.000  C
  Zn3      1.0000 0.57016  0.06326  0.08265  Biso   1.000  Zn
  N17      1.0000 0.48300  0.65150  0.18016  Biso   1.000  N
  N18      1.0000 0.40450  0.59100  0.11996  Biso   1.000  N
  N19      1.0000 0.53960  0.85710  0.11568  Biso   1.000  N
  N20      1.0000 0.65750  0.91180  0.22353  Biso   1.000  N
  H13      1.0000 0.66600  0.01260  0.22797  Biso   1.000  H
  H14      1.0000 0.66470  0.88000  0.26527  Biso   1.000  H
  N21      1.0000 0.20310  0.78320  0.95569  Biso   1.000  N
  N22      1.0000 0.39540  0.96850  0.01692  Biso   1.000  N
  N23      1.0000 0.31300  0.03710  0.98887  Biso   1.000  N
  N24      1.0000 0.09120  0.94070  0.91637  Biso   1.000  N
  H15      1.0000 0.12550  0.04190  0.89567  Biso   1.000  H
  H16      1.0000 0.03990  0.87510  0.88137  Biso   1.000  H
  C11      1.0000 0.56100  0.80980  0.17597  Biso   1.000  C
  C12      1.0000 0.44120  0.71710  0.08447  Biso   1.000  C
  C13      1.0000 0.38420  0.70610  0.01377  Biso   1.000  C
  H17      1.0000 0.47250  0.72550  0.98347  Biso   1.000  H
  H18      1.0000 0.29620  0.59610  0.00577  Biso   1.000  H
  C14      1.0000 0.32760  0.81900  0.99677  Biso   1.000  C
  C15      1.0000 0.20180  0.92320  0.95277  Biso   1.000  C
  Zn4      1.0000 0.50690  0.93674  0.58402  Biso   1.000  Zn
  N25      1.0000 0.83150  0.34850  0.48651  Biso   1.000  N
  N26      1.0000 0.81350  0.40900  0.54671  Biso   1.000  N
  N27      1.0000 0.68250  0.14290  0.55099  Biso   1.000  N
  N28      1.0000 0.74570  0.08820  0.44314  Biso   1.000  N
  H19      1.0000 0.65340  0.98740  0.43870  Biso   1.000  H
  H20      1.0000 0.78470  0.12000  0.40140  Biso   1.000  H
  N29      1.0000 0.41990  0.21680  0.71098  Biso   1.000  N
  N30      1.0000 0.42690  0.03150  0.64975  Biso   1.000  N
  N31      1.0000 0.27590  0.96290  0.67780  Biso   1.000  N
  N32      1.0000 0.15050  0.05930  0.75030  Biso   1.000  N
  H21      1.0000 0.08360  0.95810  0.77100  Biso   1.000  H
  H22      1.0000 0.16480  0.12490  0.78530  Biso   1.000  H
  C16      1.0000 0.75120  0.19020  0.49070  Biso   1.000  C
  C17      1.0000 0.72410  0.28290  0.58220  Biso   1.000  C
  C18      1.0000 0.67810  0.29390  0.65290  Biso   1.000  C
  H23      1.0000 0.74700  0.27450  0.68320  Biso   1.000  H
  H24      1.0000 0.70010  0.40390  0.66090  Biso   1.000  H
  C19      1.0000 0.50860  0.18100  0.66990  Biso   1.000  C
  C20      1.0000 0.27860  0.07680  0.71390  Biso   1.000  C
  Zn5      1.0000 0.42984  0.49310  0.25069  Biso   1.000  Zn
  N33      1.0000 0.51700  0.16850  0.15318  Biso   1.000  N
  N34      1.0000 0.59550  0.18650  0.21338  Biso   1.000  N
  N35      1.0000 0.46040  0.31750  0.21766  Biso   1.000  N
  N36      1.0000 0.34250  0.25430  0.10981  Biso   1.000  N
  H25      1.0000 0.33400  0.34660  0.10537  Biso   1.000  H
  H26      1.0000 0.33530  0.21530  0.06807  Biso   1.000  H
  N37      1.0000 0.79690  0.58010  0.37765  Biso   1.000  N
  N38      1.0000 0.60460  0.57310  0.31642  Biso   1.000  N
  N39      1.0000 0.68700  0.72410  0.34447  Biso   1.000  N
  N40      1.0000 0.90880  0.84950  0.41697  Biso   1.000  N
  H27      1.0000 0.87450  0.91640  0.43767  Biso   1.000  H
  H28      1.0000 0.96010  0.83520  0.45197  Biso   1.000  H
  C21      1.0000 0.43900  0.24880  0.15737  Biso   1.000  C
  C22      1.0000 0.55880  0.27590  0.24887  Biso   1.000  C
  C23      1.0000 0.61580  0.32190  0.31957  Biso   1.000  C
  H29      1.0000 0.52750  0.25300  0.34987  Biso   1.000  H
  H30      1.0000 0.70380  0.29990  0.32757  Biso   1.000  H
  C24      1.0000 0.67240  0.49140  0.33657  Biso   1.000  C
  C25      1.0000 0.79820  0.72140  0.38057  Biso   1.000  C
  Zn6      1.0000 0.06326  0.57016  0.91735  Biso   1.000  Zn
  N41      1.0000 0.65150  0.48300  0.81984  Biso   1.000  N
  N42      1.0000 0.59100  0.40450  0.88004  Biso   1.000  N
  N43      1.0000 0.85710  0.53960  0.88432  Biso   1.000  N
  N44      1.0000 0.91180  0.65750  0.77647  Biso   1.000  N
  H31      1.0000 0.01260  0.66600  0.77203  Biso   1.000  H
  H32      1.0000 0.88000  0.66470  0.73473  Biso   1.000  H
  N45      1.0000 0.78320  0.20310  0.04431  Biso   1.000  N
  N46      1.0000 0.96850  0.39540  0.98308  Biso   1.000  N
  N47      1.0000 0.03710  0.31300  0.01113  Biso   1.000  N
  N48      1.0000 0.94070  0.09120  0.08363  Biso   1.000  N
  H33      1.0000 0.04190  0.12550  0.10433  Biso   1.000  H
  H34      1.0000 0.87510  0.03990  0.11863  Biso   1.000  H
  C26      1.0000 0.80980  0.56100  0.82403  Biso   1.000  C
  C27      1.0000 0.71710  0.44120  0.91553  Biso   1.000  C
  C28      1.0000 0.70610  0.38420  0.98623  Biso   1.000  C
  H35      1.0000 0.72550  0.47250  0.01653  Biso   1.000  H
  H36      1.0000 0.59610  0.29620  0.99423  Biso   1.000  H
  C29      1.0000 0.81900  0.32760  0.00323  Biso   1.000  C
  C30      1.0000 0.92320  0.20180  0.04723  Biso   1.000  C
