data_image0
_cell_length_a       11.4766
_cell_length_b       11.4766
_cell_length_c       30.5554
_cell_angle_alpha    90
_cell_angle_beta     90
_cell_angle_gamma    90

_symmetry_space_group_name_H-M    "P 1"
_symmetry_int_tables_number       1

loop_
  _symmetry_equiv_pos_as_xyz
  'x, y, z'

loop_
  _atom_site_label
  _atom_site_occupancy
  _atom_site_fract_x
  _atom_site_fract_y
  _atom_site_fract_z
  _atom_site_thermal_displace_type
  _atom_site_B_iso_or_equiv
  _atom_site_type_symbol
  C1       1.0000 0.10070  0.01760  0.32851  Biso   1.000  C
  H1       1.0000 0.10090  0.10030  0.32720  Biso   1.000  H
  C2       1.0000 0.90760  0.97020  0.42760  Biso   1.000  C
  H2       1.0000 0.89870  0.88790  0.42680  Biso   1.000  H
  C3       1.0000 0.84920  0.03440  0.45824  Biso   1.000  C
  H3       1.0000 0.80100  0.99410  0.47850  Biso   1.000  H
  N1       1.0000 0.85580  0.15100  0.46155  Biso   1.000  N
  C4       1.0000 0.15730  0.95480  0.29700  Biso   1.000  C
  H4       1.0000 0.19540  0.99580  0.27410  Biso   1.000  H
  N2       1.0000 0.16150  0.83830  0.29695  Biso   1.000  N
  C5       1.0000 0.04400  0.84000  0.36162  Biso   1.000  C
  H5       1.0000 0.00400  0.79670  0.38340  Biso   1.000  H
  C6       1.0000 0.92890  0.20210  0.43371  Biso   1.000  C
  H6       1.0000 0.93950  0.28390  0.43610  Biso   1.000  H
  C7       1.0000 0.98980  0.14430  0.40183  Biso   1.000  C
  H7       1.0000 0.03900  0.18700  0.38260  Biso   1.000  H
  C8       1.0000 0.98090  0.02610  0.39719  Biso   1.000  C
  C9       1.0000 0.10390  0.78290  0.32862  Biso   1.000  C
  H8       1.0000 0.10390  0.70020  0.32850  Biso   1.000  H
  C10      1.0000 0.04280  0.96150  0.36256  Biso   1.000  C
  C11      1.0000 0.39930  0.48240  0.32851  Biso   1.000  C
  H9       1.0000 0.39910  0.39970  0.32720  Biso   1.000  H
  C12      1.0000 0.59240  0.52980  0.42760  Biso   1.000  C
  H10      1.0000 0.60130  0.61210  0.42680  Biso   1.000  H
  C13      1.0000 0.65080  0.46560  0.45824  Biso   1.000  C
  H11      1.0000 0.69900  0.50590  0.47850  Biso   1.000  H
  N3       1.0000 0.64420  0.34900  0.46155  Biso   1.000  N
  C14      1.0000 0.34270  0.54520  0.29700  Biso   1.000  C
  H12      1.0000 0.30460  0.50420  0.27410  Biso   1.000  H
  N4       1.0000 0.33850  0.66170  0.29695  Biso   1.000  N
  C15      1.0000 0.45600  0.66000  0.36162  Biso   1.000  C
  H13      1.0000 0.49600  0.70330  0.38340  Biso   1.000  H
  C16      1.0000 0.57110  0.29790  0.43371  Biso   1.000  C
  H14      1.0000 0.56050  0.21610  0.43610  Biso   1.000  H
  C17      1.0000 0.51020  0.35570  0.40183  Biso   1.000  C
  H15      1.0000 0.46100  0.31300  0.38260  Biso   1.000  H
  C18      1.0000 0.51910  0.47390  0.39719  Biso   1.000  C
  C19      1.0000 0.39610  0.71710  0.32862  Biso   1.000  C
  H16      1.0000 0.39610  0.79980  0.32850  Biso   1.000  H
  C20      1.0000 0.45720  0.53850  0.36256  Biso   1.000  C
  C21      1.0000 0.51760  0.60070  0.17149  Biso   1.000  C
  H17      1.0000 0.60030  0.60090  0.17280  Biso   1.000  H
  C22      1.0000 0.47020  0.40760  0.07240  Biso   1.000  C
  H18      1.0000 0.38790  0.39870  0.07320  Biso   1.000  H
  C23      1.0000 0.53440  0.34920  0.04176  Biso   1.000  C
  H19      1.0000 0.49410  0.30100  0.02150  Biso   1.000  H
  N5       1.0000 0.65100  0.35580  0.03845  Biso   1.000  N
  C24      1.0000 0.45480  0.65730  0.20300  Biso   1.000  C
  H20      1.0000 0.49580  0.69540  0.22590  Biso   1.000  H
  N6       1.0000 0.33830  0.66150  0.20305  Biso   1.000  N
  C25      1.0000 0.34000  0.54400  0.13838  Biso   1.000  C
  H21      1.0000 0.29670  0.50400  0.11660  Biso   1.000  H
  C26      1.0000 0.70210  0.42890  0.06629  Biso   1.000  C
  H22      1.0000 0.78390  0.43950  0.06390  Biso   1.000  H
  C27      1.0000 0.64430  0.48980  0.09817  Biso   1.000  C
  H23      1.0000 0.68700  0.53900  0.11740  Biso   1.000  H
  C28      1.0000 0.52610  0.48090  0.10281  Biso   1.000  C
  C29      1.0000 0.28290  0.60390  0.17138  Biso   1.000  C
  H24      1.0000 0.20020  0.60390  0.17150  Biso   1.000  H
  C30      1.0000 0.46150  0.54280  0.13744  Biso   1.000  C
  C31      1.0000 0.98240  0.89930  0.17149  Biso   1.000  C
  H25      1.0000 0.89970  0.89910  0.17280  Biso   1.000  H
  C32      1.0000 0.02980  0.09240  0.07240  Biso   1.000  C
  H26      1.0000 0.11210  0.10130  0.07320  Biso   1.000  H
  C33      1.0000 0.96560  0.15080  0.04176  Biso   1.000  C
  H27      1.0000 0.00590  0.19900  0.02150  Biso   1.000  H
  N7       1.0000 0.84900  0.14420  0.03845  Biso   1.000  N
  C34      1.0000 0.04520  0.84270  0.20300  Biso   1.000  C
  H28      1.0000 0.00420  0.80460  0.22590  Biso   1.000  H
  N8       1.0000 0.16170  0.83850  0.20305  Biso   1.000  N
  C35      1.0000 0.16000  0.95600  0.13838  Biso   1.000  C
  H29      1.0000 0.20330  0.99600  0.11660  Biso   1.000  H
  C36      1.0000 0.79790  0.07110  0.06629  Biso   1.000  C
  H30      1.0000 0.71610  0.06050  0.06390  Biso   1.000  H
  C37      1.0000 0.85570  0.01020  0.09817  Biso   1.000  C
  H31      1.0000 0.81300  0.96100  0.11740  Biso   1.000  H
  C38      1.0000 0.97390  0.01910  0.10281  Biso   1.000  C
  C39      1.0000 0.21710  0.89610  0.17138  Biso   1.000  C
  H32      1.0000 0.29980  0.89610  0.17150  Biso   1.000  H
  C40      1.0000 0.03850  0.95720  0.13744  Biso   1.000  C
  C41      1.0000 0.51760  0.89930  0.67149  Biso   1.000  C
  H33      1.0000 0.60030  0.89910  0.67280  Biso   1.000  H
  C42      1.0000 0.47020  0.09240  0.57240  Biso   1.000  C
  H34      1.0000 0.38790  0.10130  0.57320  Biso   1.000  H
  C43      1.0000 0.53440  0.15080  0.54176  Biso   1.000  C
  H35      1.0000 0.49410  0.19900  0.52150  Biso   1.000  H
  N9       1.0000 0.65100  0.14420  0.53845  Biso   1.000  N
  C44      1.0000 0.45480  0.84270  0.70300  Biso   1.000  C
  H36      1.0000 0.49580  0.80460  0.72590  Biso   1.000  H
  N10      1.0000 0.33830  0.83850  0.70305  Biso   1.000  N
  C45      1.0000 0.34000  0.95600  0.63838  Biso   1.000  C
  H37      1.0000 0.29670  0.99600  0.61660  Biso   1.000  H
  C46      1.0000 0.70210  0.07110  0.56629  Biso   1.000  C
  H38      1.0000 0.78390  0.06050  0.56390  Biso   1.000  H
  C47      1.0000 0.64430  0.01020  0.59817  Biso   1.000  C
  H39      1.0000 0.68700  0.96100  0.61740  Biso   1.000  H
  C48      1.0000 0.52610  0.01910  0.60281  Biso   1.000  C
  C49      1.0000 0.28290  0.89610  0.67138  Biso   1.000  C
  H40      1.0000 0.20020  0.89610  0.67150  Biso   1.000  H
  C50      1.0000 0.46150  0.95720  0.63744  Biso   1.000  C
  C51      1.0000 0.98240  0.60070  0.67149  Biso   1.000  C
  H41      1.0000 0.89970  0.60090  0.67280  Biso   1.000  H
  C52      1.0000 0.02980  0.40760  0.57240  Biso   1.000  C
  H42      1.0000 0.11210  0.39870  0.57320  Biso   1.000  H
  C53      1.0000 0.96560  0.34920  0.54176  Biso   1.000  C
  H43      1.0000 0.00590  0.30100  0.52150  Biso   1.000  H
  N11      1.0000 0.84900  0.35580  0.53845  Biso   1.000  N
  C54      1.0000 0.04520  0.65730  0.70300  Biso   1.000  C
  H44      1.0000 0.00420  0.69540  0.72590  Biso   1.000  H
  N12      1.0000 0.16170  0.66150  0.70305  Biso   1.000  N
  C55      1.0000 0.16000  0.54400  0.63838  Biso   1.000  C
  H45      1.0000 0.20330  0.50400  0.61660  Biso   1.000  H
  C56      1.0000 0.79790  0.42890  0.56629  Biso   1.000  C
  H46      1.0000 0.71610  0.43950  0.56390  Biso   1.000  H
  C57      1.0000 0.85570  0.48980  0.59817  Biso   1.000  C
  H47      1.0000 0.81300  0.53900  0.61740  Biso   1.000  H
  C58      1.0000 0.97390  0.48090  0.60281  Biso   1.000  C
  C59      1.0000 0.21710  0.60390  0.67138  Biso   1.000  C
  H48      1.0000 0.29980  0.60390  0.67150  Biso   1.000  H
  C60      1.0000 0.03850  0.54280  0.63744  Biso   1.000  C
  C61      1.0000 0.10070  0.48240  0.82851  Biso   1.000  C
  H49      1.0000 0.10090  0.39970  0.82720  Biso   1.000  H
  C62      1.0000 0.90760  0.52980  0.92760  Biso   1.000  C
  H50      1.0000 0.89870  0.61210  0.92680  Biso   1.000  H
  C63      1.0000 0.84920  0.46560  0.95824  Biso   1.000  C
  H51      1.0000 0.80100  0.50590  0.97850  Biso   1.000  H
  N13      1.0000 0.85580  0.34900  0.96155  Biso   1.000  N
  C64      1.0000 0.15730  0.54520  0.79700  Biso   1.000  C
  H52      1.0000 0.19540  0.50420  0.77410  Biso   1.000  H
  N14      1.0000 0.16150  0.66170  0.79695  Biso   1.000  N
  C65      1.0000 0.04400  0.66000  0.86162  Biso   1.000  C
  H53      1.0000 0.00400  0.70330  0.88340  Biso   1.000  H
  C66      1.0000 0.92890  0.29790  0.93371  Biso   1.000  C
  H54      1.0000 0.93950  0.21610  0.93610  Biso   1.000  H
  C67      1.0000 0.98980  0.35570  0.90183  Biso   1.000  C
  H55      1.0000 0.03900  0.31300  0.88260  Biso   1.000  H
  C68      1.0000 0.98090  0.47390  0.89719  Biso   1.000  C
  C69      1.0000 0.10390  0.71710  0.82862  Biso   1.000  C
  H56      1.0000 0.10390  0.79980  0.82850  Biso   1.000  H
  C70      1.0000 0.04280  0.53850  0.86256  Biso   1.000  C
  C71      1.0000 0.39930  0.01760  0.82851  Biso   1.000  C
  H57      1.0000 0.39910  0.10030  0.82720  Biso   1.000  H
  C72      1.0000 0.59240  0.97020  0.92760  Biso   1.000  C
  H58      1.0000 0.60130  0.88790  0.92680  Biso   1.000  H
  C73      1.0000 0.65080  0.03440  0.95824  Biso   1.000  C
  H59      1.0000 0.69900  0.99410  0.97850  Biso   1.000  H
  N15      1.0000 0.64420  0.15100  0.96155  Biso   1.000  N
  C74      1.0000 0.34270  0.95480  0.79700  Biso   1.000  C
  H60      1.0000 0.30460  0.99580  0.77410  Biso   1.000  H
  N16      1.0000 0.33850  0.83830  0.79695  Biso   1.000  N
  C75      1.0000 0.45600  0.84000  0.86162  Biso   1.000  C
  H61      1.0000 0.49600  0.79670  0.88340  Biso   1.000  H
  C76      1.0000 0.57110  0.20210  0.93371  Biso   1.000  C
  H62      1.0000 0.56050  0.28390  0.93610  Biso   1.000  H
  C77      1.0000 0.51020  0.14430  0.90183  Biso   1.000  C
  H63      1.0000 0.46100  0.18700  0.88260  Biso   1.000  H
  C78      1.0000 0.51910  0.02610  0.89719  Biso   1.000  C
  C79      1.0000 0.39610  0.78290  0.82862  Biso   1.000  C
  H64      1.0000 0.39610  0.70020  0.82850  Biso   1.000  H
  C80      1.0000 0.45720  0.96150  0.86256  Biso   1.000  C
  Cu1      1.0000 0.75000  0.25000  0.50000  Biso   1.000  Cu
  Cu2      1.0000 0.75000  0.25000  0.00000  Biso   1.000  Cu
  Cu3      1.0000 0.25000  0.75000  0.25000  Biso   1.000  Cu
  Cu4      1.0000 0.25000  0.75000  0.75000  Biso   1.000  Cu
  C81      1.0000 0.48240  0.10070  0.32851  Biso   1.000  C
  H65      1.0000 0.39970  0.10090  0.32720  Biso   1.000  H
  C82      1.0000 0.52980  0.90760  0.42760  Biso   1.000  C
  H66      1.0000 0.61210  0.89870  0.42680  Biso   1.000  H
  C83      1.0000 0.46560  0.84920  0.45824  Biso   1.000  C
  H67      1.0000 0.50590  0.80100  0.47850  Biso   1.000  H
  N17      1.0000 0.34900  0.85580  0.46155  Biso   1.000  N
  C84      1.0000 0.54520  0.15730  0.29700  Biso   1.000  C
  H68      1.0000 0.50420  0.19540  0.27410  Biso   1.000  H
  N18      1.0000 0.66170  0.16150  0.29695  Biso   1.000  N
  C85      1.0000 0.66000  0.04400  0.36162  Biso   1.000  C
  H69      1.0000 0.70330  0.00400  0.38340  Biso   1.000  H
  C86      1.0000 0.29790  0.92890  0.43371  Biso   1.000  C
  H70      1.0000 0.21610  0.93950  0.43610  Biso   1.000  H
  C87      1.0000 0.35570  0.98980  0.40183  Biso   1.000  C
  H71      1.0000 0.31300  0.03900  0.38260  Biso   1.000  H
  C88      1.0000 0.47390  0.98090  0.39719  Biso   1.000  C
  C89      1.0000 0.71710  0.10390  0.32862  Biso   1.000  C
  H72      1.0000 0.79980  0.10390  0.32850  Biso   1.000  H
  C90      1.0000 0.53850  0.04280  0.36256  Biso   1.000  C
  C91      1.0000 0.01760  0.39930  0.32851  Biso   1.000  C
  H73      1.0000 0.10030  0.39910  0.32720  Biso   1.000  H
  C92      1.0000 0.97020  0.59240  0.42760  Biso   1.000  C
  H74      1.0000 0.88790  0.60130  0.42680  Biso   1.000  H
  C93      1.0000 0.03440  0.65080  0.45824  Biso   1.000  C
  H75      1.0000 0.99410  0.69900  0.47850  Biso   1.000  H
  N19      1.0000 0.15100  0.64420  0.46155  Biso   1.000  N
  C94      1.0000 0.95480  0.34270  0.29700  Biso   1.000  C
  H76      1.0000 0.99580  0.30460  0.27410  Biso   1.000  H
  N20      1.0000 0.83830  0.33850  0.29695  Biso   1.000  N
  C95      1.0000 0.84000  0.45600  0.36162  Biso   1.000  C
  H77      1.0000 0.79670  0.49600  0.38340  Biso   1.000  H
  C96      1.0000 0.20210  0.57110  0.43371  Biso   1.000  C
  H78      1.0000 0.28390  0.56050  0.43610  Biso   1.000  H
  C97      1.0000 0.14430  0.51020  0.40183  Biso   1.000  C
  H79      1.0000 0.18700  0.46100  0.38260  Biso   1.000  H
  C98      1.0000 0.02610  0.51910  0.39719  Biso   1.000  C
  C99      1.0000 0.78290  0.39610  0.32862  Biso   1.000  C
  H80      1.0000 0.70020  0.39610  0.32850  Biso   1.000  H
  C100     1.0000 0.96150  0.45720  0.36256  Biso   1.000  C
  C101     1.0000 0.89930  0.51760  0.17149  Biso   1.000  C
  H81      1.0000 0.89910  0.60030  0.17280  Biso   1.000  H
  C102     1.0000 0.09240  0.47020  0.07240  Biso   1.000  C
  H82      1.0000 0.10130  0.38790  0.07320  Biso   1.000  H
  C103     1.0000 0.15080  0.53440  0.04176  Biso   1.000  C
  H83      1.0000 0.19900  0.49410  0.02150  Biso   1.000  H
  N21      1.0000 0.14420  0.65100  0.03845  Biso   1.000  N
  C104     1.0000 0.84270  0.45480  0.20300  Biso   1.000  C
  H84      1.0000 0.80460  0.49580  0.22590  Biso   1.000  H
  N22      1.0000 0.83850  0.33830  0.20305  Biso   1.000  N
  C105     1.0000 0.95600  0.34000  0.13838  Biso   1.000  C
  H85      1.0000 0.99600  0.29670  0.11660  Biso   1.000  H
  C106     1.0000 0.07110  0.70210  0.06629  Biso   1.000  C
  H86      1.0000 0.06050  0.78390  0.06390  Biso   1.000  H
  C107     1.0000 0.01020  0.64430  0.09817  Biso   1.000  C
  H87      1.0000 0.96100  0.68700  0.11740  Biso   1.000  H
  C108     1.0000 0.01910  0.52610  0.10281  Biso   1.000  C
  C109     1.0000 0.89610  0.28290  0.17138  Biso   1.000  C
  H88      1.0000 0.89610  0.20020  0.17150  Biso   1.000  H
  C110     1.0000 0.95720  0.46150  0.13744  Biso   1.000  C
  C111     1.0000 0.60070  0.98240  0.17149  Biso   1.000  C
  H89      1.0000 0.60090  0.89970  0.17280  Biso   1.000  H
  C112     1.0000 0.40760  0.02980  0.07240  Biso   1.000  C
  H90      1.0000 0.39870  0.11210  0.07320  Biso   1.000  H
  C113     1.0000 0.34920  0.96560  0.04176  Biso   1.000  C
  H91      1.0000 0.30100  0.00590  0.02150  Biso   1.000  H
  N23      1.0000 0.35580  0.84900  0.03845  Biso   1.000  N
  C114     1.0000 0.65730  0.04520  0.20300  Biso   1.000  C
  H92      1.0000 0.69540  0.00420  0.22590  Biso   1.000  H
  N24      1.0000 0.66150  0.16170  0.20305  Biso   1.000  N
  C115     1.0000 0.54400  0.16000  0.13838  Biso   1.000  C
  H93      1.0000 0.50400  0.20330  0.11660  Biso   1.000  H
  C116     1.0000 0.42890  0.79790  0.06629  Biso   1.000  C
  H94      1.0000 0.43950  0.71610  0.06390  Biso   1.000  H
  C117     1.0000 0.48980  0.85570  0.09817  Biso   1.000  C
  H95      1.0000 0.53900  0.81300  0.11740  Biso   1.000  H
  C118     1.0000 0.48090  0.97390  0.10281  Biso   1.000  C
  C119     1.0000 0.60390  0.21710  0.17138  Biso   1.000  C
  H96      1.0000 0.60390  0.29980  0.17150  Biso   1.000  H
  C120     1.0000 0.54280  0.03850  0.13744  Biso   1.000  C
  C121     1.0000 0.89930  0.98240  0.67149  Biso   1.000  C
  H97      1.0000 0.89910  0.89970  0.67280  Biso   1.000  H
  C122     1.0000 0.09240  0.02980  0.57240  Biso   1.000  C
  H98      1.0000 0.10130  0.11210  0.57320  Biso   1.000  H
  C123     1.0000 0.15080  0.96560  0.54176  Biso   1.000  C
  H99      1.0000 0.19900  0.00590  0.52150  Biso   1.000  H
  N25      1.0000 0.14420  0.84900  0.53845  Biso   1.000  N
  C124     1.0000 0.84270  0.04520  0.70300  Biso   1.000  C
  H100     1.0000 0.80460  0.00420  0.72590  Biso   1.000  H
  N26      1.0000 0.83850  0.16170  0.70305  Biso   1.000  N
  C125     1.0000 0.95600  0.16000  0.63838  Biso   1.000  C
  H101     1.0000 0.99600  0.20330  0.61660  Biso   1.000  H
  C126     1.0000 0.07110  0.79790  0.56629  Biso   1.000  C
  H102     1.0000 0.06050  0.71610  0.56390  Biso   1.000  H
  C127     1.0000 0.01020  0.85570  0.59817  Biso   1.000  C
  H103     1.0000 0.96100  0.81300  0.61740  Biso   1.000  H
  C128     1.0000 0.01910  0.97390  0.60281  Biso   1.000  C
  C129     1.0000 0.89610  0.21710  0.67138  Biso   1.000  C
  H104     1.0000 0.89610  0.29980  0.67150  Biso   1.000  H
  C130     1.0000 0.95720  0.03850  0.63744  Biso   1.000  C
  C131     1.0000 0.60070  0.51760  0.67149  Biso   1.000  C
  H105     1.0000 0.60090  0.60030  0.67280  Biso   1.000  H
  C132     1.0000 0.40760  0.47020  0.57240  Biso   1.000  C
  H106     1.0000 0.39870  0.38790  0.57320  Biso   1.000  H
  C133     1.0000 0.34920  0.53440  0.54176  Biso   1.000  C
  H107     1.0000 0.30100  0.49410  0.52150  Biso   1.000  H
  N27      1.0000 0.35580  0.65100  0.53845  Biso   1.000  N
  C134     1.0000 0.65730  0.45480  0.70300  Biso   1.000  C
  H108     1.0000 0.69540  0.49580  0.72590  Biso   1.000  H
  N28      1.0000 0.66150  0.33830  0.70305  Biso   1.000  N
  C135     1.0000 0.54400  0.34000  0.63838  Biso   1.000  C
  H109     1.0000 0.50400  0.29670  0.61660  Biso   1.000  H
  C136     1.0000 0.42890  0.70210  0.56629  Biso   1.000  C
  H110     1.0000 0.43950  0.78390  0.56390  Biso   1.000  H
  C137     1.0000 0.48980  0.64430  0.59817  Biso   1.000  C
  H111     1.0000 0.53900  0.68700  0.61740  Biso   1.000  H
  C138     1.0000 0.48090  0.52610  0.60281  Biso   1.000  C
  C139     1.0000 0.60390  0.28290  0.67138  Biso   1.000  C
  H112     1.0000 0.60390  0.20020  0.67150  Biso   1.000  H
  C140     1.0000 0.54280  0.46150  0.63744  Biso   1.000  C
  C141     1.0000 0.48240  0.39930  0.82851  Biso   1.000  C
  H113     1.0000 0.39970  0.39910  0.82720  Biso   1.000  H
  C142     1.0000 0.52980  0.59240  0.92760  Biso   1.000  C
  H114     1.0000 0.61210  0.60130  0.92680  Biso   1.000  H
  C143     1.0000 0.46560  0.65080  0.95824  Biso   1.000  C
  H115     1.0000 0.50590  0.69900  0.97850  Biso   1.000  H
  N29      1.0000 0.34900  0.64420  0.96155  Biso   1.000  N
  C144     1.0000 0.54520  0.34270  0.79700  Biso   1.000  C
  H116     1.0000 0.50420  0.30460  0.77410  Biso   1.000  H
  N30      1.0000 0.66170  0.33850  0.79695  Biso   1.000  N
  C145     1.0000 0.66000  0.45600  0.86162  Biso   1.000  C
  H117     1.0000 0.70330  0.49600  0.88340  Biso   1.000  H
  C146     1.0000 0.29790  0.57110  0.93371  Biso   1.000  C
  H118     1.0000 0.21610  0.56050  0.93610  Biso   1.000  H
  C147     1.0000 0.35570  0.51020  0.90183  Biso   1.000  C
  H119     1.0000 0.31300  0.46100  0.88260  Biso   1.000  H
  C148     1.0000 0.47390  0.51910  0.89719  Biso   1.000  C
  C149     1.0000 0.71710  0.39610  0.82862  Biso   1.000  C
  H120     1.0000 0.79980  0.39610  0.82850  Biso   1.000  H
  C150     1.0000 0.53850  0.45720  0.86256  Biso   1.000  C
  C151     1.0000 0.01760  0.10070  0.82851  Biso   1.000  C
  H121     1.0000 0.10030  0.10090  0.82720  Biso   1.000  H
  C152     1.0000 0.97020  0.90760  0.92760  Biso   1.000  C
  H122     1.0000 0.88790  0.89870  0.92680  Biso   1.000  H
  C153     1.0000 0.03440  0.84920  0.95824  Biso   1.000  C
  H123     1.0000 0.99410  0.80100  0.97850  Biso   1.000  H
  N31      1.0000 0.15100  0.85580  0.96155  Biso   1.000  N
  C154     1.0000 0.95480  0.15730  0.79700  Biso   1.000  C
  H124     1.0000 0.99580  0.19540  0.77410  Biso   1.000  H
  N32      1.0000 0.83830  0.16150  0.79695  Biso   1.000  N
  C155     1.0000 0.84000  0.04400  0.86162  Biso   1.000  C
  H125     1.0000 0.79670  0.00400  0.88340  Biso   1.000  H
  C156     1.0000 0.20210  0.92890  0.93371  Biso   1.000  C
  H126     1.0000 0.28390  0.93950  0.93610  Biso   1.000  H
  C157     1.0000 0.14430  0.98980  0.90183  Biso   1.000  C
  H127     1.0000 0.18700  0.03900  0.88260  Biso   1.000  H
  C158     1.0000 0.02610  0.98090  0.89719  Biso   1.000  C
  C159     1.0000 0.78290  0.10390  0.82862  Biso   1.000  C
  H128     1.0000 0.70020  0.10390  0.82850  Biso   1.000  H
  C160     1.0000 0.96150  0.04280  0.86256  Biso   1.000  C
  Cu5      1.0000 0.25000  0.75000  0.50000  Biso   1.000  Cu
  Cu6      1.0000 0.25000  0.75000  0.00000  Biso   1.000  Cu
  Cu7      1.0000 0.75000  0.25000  0.25000  Biso   1.000  Cu
  Cu8      1.0000 0.75000  0.25000  0.75000  Biso   1.000  Cu
