data_image0
_cell_length_a       11.5791
_cell_length_b       15.2623
_cell_length_c       19.2483
_cell_angle_alpha    70.394
_cell_angle_beta     76.587
_cell_angle_gamma    82.732

_symmetry_space_group_name_H-M    "P 1"
_symmetry_int_tables_number       1

loop_
  _symmetry_equiv_pos_as_xyz
  'x, y, z'

loop_
  _atom_site_label
  _atom_site_occupancy
  _atom_site_fract_x
  _atom_site_fract_y
  _atom_site_fract_z
  _atom_site_thermal_displace_type
  _atom_site_B_iso_or_equiv
  _atom_site_type_symbol
  C1       1.0000 0.86200  0.69820  0.31130  Biso   1.000  C
  H1       1.0000 0.78980  0.70510  0.29620  Biso   1.000  H
  C2       1.0000 0.94400  0.76670  0.27330  Biso   1.000  C
  H2       1.0000 0.92600  0.81820  0.23400  Biso   1.000  H
  C3       1.0000 0.05270  0.75730  0.29440  Biso   1.000  C
  C4       1.0000 0.07290  0.67990  0.35510  Biso   1.000  C
  H3       1.0000 0.14350  0.67180  0.37220  Biso   1.000  H
  C5       1.0000 0.98630  0.61520  0.38960  Biso   1.000  C
  H4       1.0000 0.00150  0.56350  0.42950  Biso   1.000  H
  C6       1.0000 0.14560  0.82680  0.25480  Biso   1.000  C
  C7       1.0000 0.15280  0.87950  0.17910  Biso   1.000  C
  H5       1.0000 0.09830  0.87240  0.15300  Biso   1.000  H
  C8       1.0000 0.24120  0.94250  0.14290  Biso   1.000  C
  H6       1.0000 0.24490  0.97790  0.09260  Biso   1.000  H
  C9       1.0000 0.32430  0.95330  0.18090  Biso   1.000  C
  C10      1.0000 0.31720  0.90010  0.25580  Biso   1.000  C
  H7       1.0000 0.37250  0.90640  0.28180  Biso   1.000  H
  C11      1.0000 0.22890  0.83780  0.29240  Biso   1.000  C
  H8       1.0000 0.22510  0.80280  0.34270  Biso   1.000  H
  C12      1.0000 0.41660  0.02230  0.14310  Biso   1.000  C
  C13      1.0000 0.56260  0.91410  0.08490  Biso   1.000  C
  H9       1.0000 0.61630  0.92540  0.03630  Biso   1.000  H
  H10      1.0000 0.49440  0.88430  0.08340  Biso   1.000  H
  C14      1.0000 0.62440  0.84960  0.14460  Biso   1.000  C
  H11      1.0000 0.69180  0.87880  0.14650  Biso   1.000  H
  H12      1.0000 0.65060  0.79300  0.13290  Biso   1.000  H
  H13      1.0000 0.57040  0.83570  0.19250  Biso   1.000  H
  C15      1.0000 0.58540  0.08050  0.07320  Biso   1.000  C
  H14      1.0000 0.66040  0.08580  0.04210  Biso   1.000  H
  C16      1.0000 0.42100  0.11090  0.14310  Biso   1.000  C
  C17      1.0000 0.33000  0.16630  0.17990  Biso   1.000  C
  C18      1.0000 0.29570  0.25790  0.14110  Biso   1.000  C
  H15      1.0000 0.33070  0.28460  0.09070  Biso   1.000  H
  C19      1.0000 0.21040  0.30900  0.17710  Biso   1.000  C
  H16      1.0000 0.18790  0.36930  0.15010  Biso   1.000  H
  C20      1.0000 0.15720  0.27190  0.25310  Biso   1.000  C
  C21      1.0000 0.19260  0.18040  0.29170  Biso   1.000  C
  H17      1.0000 0.15840  0.15410  0.34220  Biso   1.000  H
  C22      1.0000 0.27670  0.12890  0.25630  Biso   1.000  C
  H18      1.0000 0.29860  0.06850  0.28330  Biso   1.000  H
  C23      1.0000 0.06930  0.32700  0.29230  Biso   1.000  C
  C24      1.0000 0.99200  0.39340  0.25550  Biso   1.000  C
  H19      1.0000 0.99480  0.40470  0.20450  Biso   1.000  H
  C25      1.0000 0.90960  0.44320  0.29550  Biso   1.000  C
  H20      1.0000 0.85880  0.48810  0.26980  Biso   1.000  H
  C26      1.0000 0.97690  0.36690  0.40400  Biso   1.000  C
  H21      1.0000 0.97340  0.35770  0.45470  Biso   1.000  H
  C27      1.0000 0.06150  0.31490  0.36790  Biso   1.000  C
  H22      1.0000 0.11300  0.27190  0.39450  Biso   1.000  H
  C28      1.0000 0.58010  0.31990  0.94730  Biso   1.000  C
  C29      1.0000 0.53650  0.34340  0.87670  Biso   1.000  C
  C30      1.0000 0.60690  0.31770  0.81590  Biso   1.000  C
  H23      1.0000 0.67820  0.28290  0.82100  Biso   1.000  H
  C31      1.0000 0.56930  0.34450  0.74850  Biso   1.000  C
  H24      1.0000 0.61750  0.33010  0.70740  Biso   1.000  H
  C32      1.0000 0.46040  0.39260  0.74130  Biso   1.000  C
  C33      1.0000 0.38860  0.41350  0.80360  Biso   1.000  C
  H25      1.0000 0.31410  0.44350  0.79990  Biso   1.000  H
  C34      1.0000 0.42710  0.39020  0.87020  Biso   1.000  C
  H26      1.0000 0.37970  0.40580  0.91090  Biso   1.000  H
  C35      1.0000 0.42160  0.42530  0.66730  Biso   1.000  C
  C36      1.0000 0.76010  0.44260  0.02250  Biso   1.000  C
  C37      1.0000 0.88440  0.47380  0.01080  Biso   1.000  C
  C38      1.0000 0.97900  0.40730  0.01870  Biso   1.000  C
  H27      1.0000 0.96450  0.34470  0.03140  Biso   1.000  H
  C39      1.0000 0.90640  0.56740  0.99200  Biso   1.000  C
  H28      1.0000 0.84420  0.61260  0.98670  Biso   1.000  H
  C40      1.0000 0.52950  0.61450  0.82900  Biso   1.000  C
  C41      1.0000 0.58090  0.60150  0.75310  Biso   1.000  C
  C42      1.0000 0.68470  0.54510  0.74330  Biso   1.000  C
  H29      1.0000 0.72350  0.51700  0.78310  Biso   1.000  H
  C43      1.0000 0.72910  0.53140  0.67470  Biso   1.000  C
  H30      1.0000 0.79970  0.49590  0.66770  Biso   1.000  H
  C44      1.0000 0.66870  0.57040  0.61574  Biso   1.000  C
  C45      1.0000 0.56550  0.62650  0.62550  Biso   1.000  C
  H31      1.0000 0.52560  0.65360  0.58610  Biso   1.000  H
  C46      1.0000 0.52300  0.64140  0.69350  Biso   1.000  C
  H32      1.0000 0.45410  0.67900  0.69970  Biso   1.000  H
  C47      1.0000 0.71110  0.54910  0.54310  Biso   1.000  C
  C48      1.0000 0.66760  0.32300  0.51620  Biso   1.000  C
  C49      1.0000 0.56780  0.25700  0.55280  Biso   1.000  C
  H33      1.0000 0.57880  0.20910  0.52960  Biso   1.000  H
  H34      1.0000 0.49310  0.29080  0.54660  Biso   1.000  H
  H35      1.0000 0.56800  0.22930  0.60560  Biso   1.000  H
  Co1      1.0000 0.61505  0.26997  0.08187  Biso   1.000  Co
  Co2      1.0000 0.76856  0.50808  0.42199  Biso   1.000  Co
  N1       1.0000 0.52230  0.00390  0.09780  Biso   1.000  N
  N2       1.0000 0.52750  0.14750  0.09889  Biso   1.000  N
  N3       1.0000 0.90020  0.42950  0.36899  Biso   1.000  N
  N4       1.0000 0.88240  0.62300  0.36869  Biso   1.000  N
  O1       1.0000 0.52430  0.35671  0.99829  Biso   1.000  O
  O2       1.0000 0.66660  0.26234  0.96114  Biso   1.000  O
  O3       1.0000 0.31250  0.44503  0.66791  Biso   1.000  O
  O4       1.0000 0.50180  0.42955  0.60933  Biso   1.000  O
  O5       1.0000 0.55240  0.55034  0.88613  Biso   1.000  O
  O6       1.0000 0.46870  0.69060  0.82748  Biso   1.000  O
  O7       1.0000 0.64410  0.57773  0.49367  Biso   1.000  O
  O8       1.0000 0.80730  0.50496  0.52964  Biso   1.000  O
  O9       1.0000 0.68050  0.50427  0.00227  Biso   1.000  O
  O10      1.0000 0.74880  0.35650  0.05223  Biso   1.000  O
  O11      1.0000 0.64230  0.40722  0.47553  Biso   1.000  O
  O12      1.0000 0.76940  0.29460  0.52490  Biso   1.000  O
  C50      1.0000 0.13800  0.30180  0.68870  Biso   1.000  C
  H36      1.0000 0.21020  0.29490  0.70380  Biso   1.000  H
  C51      1.0000 0.05600  0.23330  0.72670  Biso   1.000  C
  H37      1.0000 0.07400  0.18180  0.76600  Biso   1.000  H
  C52      1.0000 0.94730  0.24270  0.70560  Biso   1.000  C
  C53      1.0000 0.92710  0.32010  0.64490  Biso   1.000  C
  H38      1.0000 0.85650  0.32820  0.62780  Biso   1.000  H
  C54      1.0000 0.01370  0.38480  0.61040  Biso   1.000  C
  H39      1.0000 0.99850  0.43650  0.57050  Biso   1.000  H
  C55      1.0000 0.85440  0.17320  0.74520  Biso   1.000  C
  C56      1.0000 0.84720  0.12050  0.82090  Biso   1.000  C
  H40      1.0000 0.90170  0.12760  0.84700  Biso   1.000  H
  C57      1.0000 0.75880  0.05750  0.85710  Biso   1.000  C
  H41      1.0000 0.75510  0.02210  0.90740  Biso   1.000  H
  C58      1.0000 0.67570  0.04670  0.81910  Biso   1.000  C
  C59      1.0000 0.68280  0.09990  0.74420  Biso   1.000  C
  H42      1.0000 0.62750  0.09360  0.71820  Biso   1.000  H
  C60      1.0000 0.77110  0.16220  0.70760  Biso   1.000  C
  H43      1.0000 0.77490  0.19720  0.65730  Biso   1.000  H
  C61      1.0000 0.58340  0.97770  0.85690  Biso   1.000  C
  C62      1.0000 0.43740  0.08590  0.91510  Biso   1.000  C
  H44      1.0000 0.38370  0.07460  0.96370  Biso   1.000  H
  H45      1.0000 0.50560  0.11570  0.91660  Biso   1.000  H
  C63      1.0000 0.37560  0.15040  0.85540  Biso   1.000  C
  H46      1.0000 0.30820  0.12120  0.85350  Biso   1.000  H
  H47      1.0000 0.34940  0.20700  0.86710  Biso   1.000  H
  H48      1.0000 0.42960  0.16430  0.80750  Biso   1.000  H
  C64      1.0000 0.41460  0.91950  0.92680  Biso   1.000  C
  H49      1.0000 0.33960  0.91420  0.95790  Biso   1.000  H
  C65      1.0000 0.57900  0.88910  0.85690  Biso   1.000  C
  C66      1.0000 0.67000  0.83370  0.82010  Biso   1.000  C
  C67      1.0000 0.70430  0.74210  0.85890  Biso   1.000  C
  H50      1.0000 0.66930  0.71540  0.90930  Biso   1.000  H
  C68      1.0000 0.78960  0.69100  0.82290  Biso   1.000  C
  H51      1.0000 0.81210  0.63070  0.84990  Biso   1.000  H
  C69      1.0000 0.84280  0.72810  0.74690  Biso   1.000  C
  C70      1.0000 0.80740  0.81960  0.70830  Biso   1.000  C
  H52      1.0000 0.84160  0.84590  0.65780  Biso   1.000  H
  C71      1.0000 0.72330  0.87110  0.74370  Biso   1.000  C
  H53      1.0000 0.70140  0.93150  0.71670  Biso   1.000  H
  C72      1.0000 0.93070  0.67300  0.70770  Biso   1.000  C
  C73      1.0000 0.00800  0.60660  0.74450  Biso   1.000  C
  H54      1.0000 0.00520  0.59530  0.79550  Biso   1.000  H
  C74      1.0000 0.09040  0.55680  0.70450  Biso   1.000  C
  H55      1.0000 0.14120  0.51190  0.73020  Biso   1.000  H
  C75      1.0000 0.02310  0.63310  0.59600  Biso   1.000  C
  H56      1.0000 0.02660  0.64230  0.54530  Biso   1.000  H
  C76      1.0000 0.93850  0.68510  0.63210  Biso   1.000  C
  H57      1.0000 0.88700  0.72810  0.60550  Biso   1.000  H
  C77      1.0000 0.41990  0.68010  0.05270  Biso   1.000  C
  C78      1.0000 0.46350  0.65660  0.12330  Biso   1.000  C
  C79      1.0000 0.39310  0.68230  0.18410  Biso   1.000  C
  H58      1.0000 0.32180  0.71710  0.17900  Biso   1.000  H
  C80      1.0000 0.43070  0.65550  0.25150  Biso   1.000  C
  H59      1.0000 0.38250  0.66990  0.29260  Biso   1.000  H
  C81      1.0000 0.53960  0.60740  0.25870  Biso   1.000  C
  C82      1.0000 0.61140  0.58650  0.19640  Biso   1.000  C
  H60      1.0000 0.68590  0.55650  0.20010  Biso   1.000  H
  C83      1.0000 0.57290  0.60980  0.12980  Biso   1.000  C
  H61      1.0000 0.62030  0.59420  0.08910  Biso   1.000  H
  C84      1.0000 0.57840  0.57470  0.33270  Biso   1.000  C
  C85      1.0000 0.23990  0.55740  0.97750  Biso   1.000  C
  C86      1.0000 0.11560  0.52620  0.98920  Biso   1.000  C
  C87      1.0000 0.02100  0.59270  0.98130  Biso   1.000  C
  H62      1.0000 0.03550  0.65530  0.96860  Biso   1.000  H
  C88      1.0000 0.09360  0.43260  0.00800  Biso   1.000  C
  H63      1.0000 0.15580  0.38740  0.01330  Biso   1.000  H
  C89      1.0000 0.47050  0.38550  0.17100  Biso   1.000  C
  C90      1.0000 0.41910  0.39850  0.24690  Biso   1.000  C
  C91      1.0000 0.31530  0.45490  0.25670  Biso   1.000  C
  H64      1.0000 0.27650  0.48300  0.21690  Biso   1.000  H
  C92      1.0000 0.27090  0.46860  0.32530  Biso   1.000  C
  H65      1.0000 0.20030  0.50410  0.33230  Biso   1.000  H
  C93      1.0000 0.33130  0.42960  0.38426  Biso   1.000  C
  C94      1.0000 0.43450  0.37350  0.37450  Biso   1.000  C
  H66      1.0000 0.47440  0.34640  0.41390  Biso   1.000  H
  C95      1.0000 0.47700  0.35860  0.30650  Biso   1.000  C
  H67      1.0000 0.54590  0.32100  0.30030  Biso   1.000  H
  C96      1.0000 0.28890  0.45090  0.45690  Biso   1.000  C
  C97      1.0000 0.33240  0.67700  0.48380  Biso   1.000  C
  C98      1.0000 0.43220  0.74300  0.44720  Biso   1.000  C
  H68      1.0000 0.42120  0.79090  0.47040  Biso   1.000  H
  H69      1.0000 0.50690  0.70920  0.45340  Biso   1.000  H
  H70      1.0000 0.43200  0.77070  0.39440  Biso   1.000  H
  Co3      1.0000 0.38495  0.73003  0.91813  Biso   1.000  Co
  Co4      1.0000 0.23144  0.49192  0.57801  Biso   1.000  Co
  N5       1.0000 0.47770  0.99610  0.90220  Biso   1.000  N
  N6       1.0000 0.47250  0.85250  0.90111  Biso   1.000  N
  N7       1.0000 0.09980  0.57050  0.63101  Biso   1.000  N
  N8       1.0000 0.11760  0.37700  0.63131  Biso   1.000  N
  O13      1.0000 0.47570  0.64329  0.00171  Biso   1.000  O
  O14      1.0000 0.33340  0.73766  0.03886  Biso   1.000  O
  O15      1.0000 0.68750  0.55497  0.33209  Biso   1.000  O
  O16      1.0000 0.49820  0.57045  0.39067  Biso   1.000  O
  O17      1.0000 0.44760  0.44966  0.11387  Biso   1.000  O
  O18      1.0000 0.53130  0.30940  0.17252  Biso   1.000  O
  O19      1.0000 0.35590  0.42227  0.50633  Biso   1.000  O
  O20      1.0000 0.19270  0.49504  0.47036  Biso   1.000  O
  O21      1.0000 0.31950  0.49573  0.99773  Biso   1.000  O
  O22      1.0000 0.25120  0.64350  0.94777  Biso   1.000  O
  O23      1.0000 0.35770  0.59278  0.52447  Biso   1.000  O
  O24      1.0000 0.23060  0.70540  0.47510  Biso   1.000  O
  Co5      1.0000 0.50000  0.50000  0.00000  Biso   1.000  Co
  Co6      1.0000 0.50000  0.50000  0.50000  Biso   1.000  Co
