data_image0
_cell_length_a       11.5784
_cell_length_b       15.3081
_cell_length_c       19.258
_cell_angle_alpha    70.388
_cell_angle_beta     76.659
_cell_angle_gamma    83.048

_symmetry_space_group_name_H-M    "P 1"
_symmetry_int_tables_number       1

loop_
  _symmetry_equiv_pos_as_xyz
  'x, y, z'

loop_
  _atom_site_label
  _atom_site_occupancy
  _atom_site_fract_x
  _atom_site_fract_y
  _atom_site_fract_z
  _atom_site_thermal_displace_type
  _atom_site_B_iso_or_equiv
  _atom_site_type_symbol
  C1       1.0000 0.86420  0.69530  0.31180  Biso   1.000  C
  H1       1.0000 0.79270  0.70160  0.29590  Biso   1.000  H
  C2       1.0000 0.94650  0.76520  0.27310  Biso   1.000  C
  H2       1.0000 0.92840  0.81650  0.23390  Biso   1.000  H
  C3       1.0000 0.05420  0.75610  0.29460  Biso   1.000  C
  C4       1.0000 0.07390  0.67940  0.35490  Biso   1.000  C
  H3       1.0000 0.14430  0.67150  0.37210  Biso   1.000  H
  C5       1.0000 0.98680  0.61400  0.38950  Biso   1.000  C
  H4       1.0000 0.00260  0.56230  0.42910  Biso   1.000  H
  C6       1.0000 0.14700  0.82510  0.25590  Biso   1.000  C
  C7       1.0000 0.15480  0.87750  0.18040  Biso   1.000  C
  H5       1.0000 0.10130  0.87010  0.15370  Biso   1.000  H
  C8       1.0000 0.24430  0.94160  0.14510  Biso   1.000  C
  H6       1.0000 0.25010  0.97590  0.09450  Biso   1.000  H
  C9       1.0000 0.32260  0.95450  0.18330  Biso   1.000  C
  C10      1.0000 0.31590  0.90190  0.25730  Biso   1.000  C
  H7       1.0000 0.37150  0.90890  0.28280  Biso   1.000  H
  C11      1.0000 0.22740  0.83800  0.29530  Biso   1.000  C
  H8       1.0000 0.22210  0.80460  0.34610  Biso   1.000  H
  C12      1.0000 0.41650  0.02330  0.14530  Biso   1.000  C
  C13      1.0000 0.56230  0.91610  0.08560  Biso   1.000  C
  H9       1.0000 0.61650  0.92820  0.03720  Biso   1.000  H
  H10      1.0000 0.49460  0.88600  0.08360  Biso   1.000  H
  C14      1.0000 0.62350  0.85220  0.14530  Biso   1.000  C
  H11      1.0000 0.68520  0.88410  0.15130  Biso   1.000  H
  H12      1.0000 0.65750  0.79890  0.13090  Biso   1.000  H
  H13      1.0000 0.56700  0.83270  0.19200  Biso   1.000  H
  C15      1.0000 0.58370  0.08340  0.07410  Biso   1.000  C
  H14      1.0000 0.65810  0.08970  0.04220  Biso   1.000  H
  C16      1.0000 0.42060  0.11300  0.14470  Biso   1.000  C
  C17      1.0000 0.33010  0.16840  0.18100  Biso   1.000  C
  C18      1.0000 0.29510  0.25730  0.14290  Biso   1.000  C
  H15      1.0000 0.32980  0.28410  0.09250  Biso   1.000  H
  C19      1.0000 0.20800  0.30790  0.17910  Biso   1.000  C
  H16      1.0000 0.18460  0.36760  0.15210  Biso   1.000  H
  C20      1.0000 0.15560  0.27080  0.25460  Biso   1.000  C
  C21      1.0000 0.19250  0.18120  0.29350  Biso   1.000  C
  H17      1.0000 0.15960  0.15540  0.34430  Biso   1.000  H
  C22      1.0000 0.27650  0.13010  0.25820  Biso   1.000  C
  H18      1.0000 0.29840  0.06990  0.28500  Biso   1.000  H
  C23      1.0000 0.06720  0.32660  0.29310  Biso   1.000  C
  C24      1.0000 0.98940  0.39090  0.25690  Biso   1.000  C
  H19      1.0000 0.99110  0.40040  0.20640  Biso   1.000  H
  C25      1.0000 0.90760  0.44210  0.29540  Biso   1.000  C
  H20      1.0000 0.85850  0.48730  0.26880  Biso   1.000  H
  C26      1.0000 0.97450  0.36640  0.40490  Biso   1.000  C
  H21      1.0000 0.97080  0.35780  0.45550  Biso   1.000  H
  C27      1.0000 0.05940  0.31460  0.36960  Biso   1.000  C
  H22      1.0000 0.11080  0.27210  0.39640  Biso   1.000  H
  C28      1.0000 0.57830  0.31930  0.94820  Biso   1.000  C
  C29      1.0000 0.53530  0.34280  0.87660  Biso   1.000  C
  C30      1.0000 0.60580  0.31640  0.81760  Biso   1.000  C
  H23      1.0000 0.67640  0.28130  0.82360  Biso   1.000  H
  C31      1.0000 0.56870  0.34380  0.74860  Biso   1.000  C
  H24      1.0000 0.61670  0.32990  0.70740  Biso   1.000  H
  C32      1.0000 0.45990  0.39180  0.74220  Biso   1.000  C
  C33      1.0000 0.38660  0.41290  0.80360  Biso   1.000  C
  H25      1.0000 0.31220  0.44250  0.79960  Biso   1.000  H
  C34      1.0000 0.42630  0.38920  0.87090  Biso   1.000  C
  H26      1.0000 0.37950  0.40460  0.91170  Biso   1.000  H
  C35      1.0000 0.42170  0.42350  0.66770  Biso   1.000  C
  C36      1.0000 0.75900  0.44210  0.02230  Biso   1.000  C
  C37      1.0000 0.88430  0.47270  0.01080  Biso   1.000  C
  C38      1.0000 0.97850  0.40680  0.01980  Biso   1.000  C
  H27      1.0000 0.96370  0.34420  0.03380  Biso   1.000  H
  C39      1.0000 0.90500  0.56710  0.99160  Biso   1.000  C
  H28      1.0000 0.84250  0.61160  0.98660  Biso   1.000  H
  C40      1.0000 0.53180  0.61220  0.82980  Biso   1.000  C
  C41      1.0000 0.58360  0.59850  0.75350  Biso   1.000  C
  C42      1.0000 0.68590  0.54480  0.74290  Biso   1.000  C
  H29      1.0000 0.72560  0.51790  0.78240  Biso   1.000  H
  C43      1.0000 0.73100  0.53000  0.67410  Biso   1.000  C
  H30      1.0000 0.80080  0.49400  0.66740  Biso   1.000  H
  C44      1.0000 0.66980  0.57010  0.61490  Biso   1.000  C
  C45      1.0000 0.56550  0.62490  0.62590  Biso   1.000  C
  H31      1.0000 0.52420  0.65060  0.58710  Biso   1.000  H
  C46      1.0000 0.52380  0.64110  0.69300  Biso   1.000  C
  H32      1.0000 0.45650  0.67980  0.69910  Biso   1.000  H
  C47      1.0000 0.71170  0.54830  0.54250  Biso   1.000  C
  C48      1.0000 0.66360  0.32290  0.51520  Biso   1.000  C
  C49      1.0000 0.56600  0.25620  0.55390  Biso   1.000  C
  H33      1.0000 0.57220  0.21110  0.52840  Biso   1.000  H
  H34      1.0000 0.49040  0.28960  0.55280  Biso   1.000  H
  H35      1.0000 0.57310  0.22530  0.60520  Biso   1.000  H
  Co1      1.0000 0.61332  0.27155  0.08228  Biso   1.000  Co
  Co2      1.0000 0.76733  0.50800  0.42177  Biso   1.000  Co
  N1       1.0000 0.52120  0.00510  0.09950  Biso   1.000  N
  N2       1.0000 0.52620  0.14910  0.10030  Biso   1.000  N
  N3       1.0000 0.89670  0.42900  0.36930  Biso   1.000  N
  N4       1.0000 0.88230  0.62090  0.36940  Biso   1.000  N
  O1       1.0000 0.52280  0.35640  0.99831  Biso   1.000  O
  O2       1.0000 0.66460  0.26280  0.96200  Biso   1.000  O
  O3       1.0000 0.31160  0.44410  0.66918  Biso   1.000  O
  O4       1.0000 0.50260  0.42880  0.60962  Biso   1.000  O
  O5       1.0000 0.55450  0.54900  0.88621  Biso   1.000  O
  O6       1.0000 0.46820  0.68660  0.82860  Biso   1.000  O
  O7       1.0000 0.64440  0.57770  0.49400  Biso   1.000  O
  O8       1.0000 0.80670  0.50350  0.52943  Biso   1.000  O
  O9       1.0000 0.68030  0.50310  0.00380  Biso   1.000  O
  O10      1.0000 0.74870  0.35610  0.05010  Biso   1.000  O
  O11      1.0000 0.64070  0.40800  0.47417  Biso   1.000  O
  O12      1.0000 0.76650  0.29440  0.52510  Biso   1.000  O
  C50      1.0000 0.13580  0.30470  0.68820  Biso   1.000  C
  H36      1.0000 0.20730  0.29840  0.70410  Biso   1.000  H
  C51      1.0000 0.05350  0.23480  0.72690  Biso   1.000  C
  H37      1.0000 0.07160  0.18350  0.76610  Biso   1.000  H
  C52      1.0000 0.94580  0.24390  0.70540  Biso   1.000  C
  C53      1.0000 0.92610  0.32060  0.64510  Biso   1.000  C
  H38      1.0000 0.85570  0.32850  0.62790  Biso   1.000  H
  C54      1.0000 0.01320  0.38600  0.61050  Biso   1.000  C
  H39      1.0000 0.99740  0.43770  0.57090  Biso   1.000  H
  C55      1.0000 0.85300  0.17490  0.74410  Biso   1.000  C
  C56      1.0000 0.84520  0.12250  0.81960  Biso   1.000  C
  H40      1.0000 0.89870  0.12990  0.84630  Biso   1.000  H
  C57      1.0000 0.75570  0.05840  0.85490  Biso   1.000  C
  H41      1.0000 0.74990  0.02410  0.90550  Biso   1.000  H
  C58      1.0000 0.67740  0.04550  0.81670  Biso   1.000  C
  C59      1.0000 0.68410  0.09810  0.74270  Biso   1.000  C
  H42      1.0000 0.62850  0.09110  0.71720  Biso   1.000  H
  C60      1.0000 0.77260  0.16200  0.70470  Biso   1.000  C
  H43      1.0000 0.77790  0.19540  0.65390  Biso   1.000  H
  C61      1.0000 0.58350  0.97670  0.85470  Biso   1.000  C
  C62      1.0000 0.43770  0.08390  0.91440  Biso   1.000  C
  H44      1.0000 0.38350  0.07180  0.96280  Biso   1.000  H
  H45      1.0000 0.50540  0.11400  0.91640  Biso   1.000  H
  C63      1.0000 0.37650  0.14780  0.85470  Biso   1.000  C
  H46      1.0000 0.31480  0.11590  0.84870  Biso   1.000  H
  H47      1.0000 0.34250  0.20110  0.86910  Biso   1.000  H
  H48      1.0000 0.43300  0.16730  0.80800  Biso   1.000  H
  C64      1.0000 0.41630  0.91660  0.92590  Biso   1.000  C
  H49      1.0000 0.34190  0.91030  0.95780  Biso   1.000  H
  C65      1.0000 0.57940  0.88700  0.85530  Biso   1.000  C
  C66      1.0000 0.66990  0.83160  0.81900  Biso   1.000  C
  C67      1.0000 0.70490  0.74270  0.85710  Biso   1.000  C
  H50      1.0000 0.67020  0.71590  0.90750  Biso   1.000  H
  C68      1.0000 0.79200  0.69210  0.82090  Biso   1.000  C
  H51      1.0000 0.81540  0.63240  0.84790  Biso   1.000  H
  C69      1.0000 0.84440  0.72920  0.74540  Biso   1.000  C
  C70      1.0000 0.80750  0.81880  0.70650  Biso   1.000  C
  H52      1.0000 0.84040  0.84460  0.65570  Biso   1.000  H
  C71      1.0000 0.72350  0.86990  0.74180  Biso   1.000  C
  H53      1.0000 0.70160  0.93010  0.71500  Biso   1.000  H
  C72      1.0000 0.93280  0.67340  0.70690  Biso   1.000  C
  C73      1.0000 0.01060  0.60910  0.74310  Biso   1.000  C
  H54      1.0000 0.00890  0.59960  0.79360  Biso   1.000  H
  C74      1.0000 0.09240  0.55790  0.70460  Biso   1.000  C
  H55      1.0000 0.14150  0.51270  0.73120  Biso   1.000  H
  C75      1.0000 0.02550  0.63360  0.59510  Biso   1.000  C
  H56      1.0000 0.02920  0.64220  0.54450  Biso   1.000  H
  C76      1.0000 0.94060  0.68540  0.63040  Biso   1.000  C
  H57      1.0000 0.88920  0.72790  0.60360  Biso   1.000  H
  C77      1.0000 0.42170  0.68070  0.05180  Biso   1.000  C
  C78      1.0000 0.46470  0.65720  0.12340  Biso   1.000  C
  C79      1.0000 0.39420  0.68360  0.18240  Biso   1.000  C
  H58      1.0000 0.32360  0.71870  0.17640  Biso   1.000  H
  C80      1.0000 0.43130  0.65620  0.25140  Biso   1.000  C
  H59      1.0000 0.38330  0.67010  0.29260  Biso   1.000  H
  C81      1.0000 0.54010  0.60820  0.25780  Biso   1.000  C
  C82      1.0000 0.61340  0.58710  0.19640  Biso   1.000  C
  H60      1.0000 0.68780  0.55750  0.20040  Biso   1.000  H
  C83      1.0000 0.57370  0.61080  0.12910  Biso   1.000  C
  H61      1.0000 0.62050  0.59540  0.08830  Biso   1.000  H
  C84      1.0000 0.57830  0.57650  0.33230  Biso   1.000  C
  C85      1.0000 0.24100  0.55790  0.97770  Biso   1.000  C
  C86      1.0000 0.11570  0.52730  0.98920  Biso   1.000  C
  C87      1.0000 0.02150  0.59320  0.98020  Biso   1.000  C
  H62      1.0000 0.03630  0.65580  0.96620  Biso   1.000  H
  C88      1.0000 0.09500  0.43290  0.00840  Biso   1.000  C
  H63      1.0000 0.15750  0.38840  0.01340  Biso   1.000  H
  C89      1.0000 0.46820  0.38780  0.17020  Biso   1.000  C
  C90      1.0000 0.41640  0.40150  0.24650  Biso   1.000  C
  C91      1.0000 0.31410  0.45520  0.25710  Biso   1.000  C
  H64      1.0000 0.27440  0.48210  0.21760  Biso   1.000  H
  C92      1.0000 0.26900  0.47000  0.32590  Biso   1.000  C
  H65      1.0000 0.19920  0.50600  0.33260  Biso   1.000  H
  C93      1.0000 0.33020  0.42990  0.38510  Biso   1.000  C
  C94      1.0000 0.43450  0.37510  0.37410  Biso   1.000  C
  H66      1.0000 0.47580  0.34940  0.41290  Biso   1.000  H
  C95      1.0000 0.47620  0.35890  0.30700  Biso   1.000  C
  H67      1.0000 0.54350  0.32020  0.30090  Biso   1.000  H
  C96      1.0000 0.28830  0.45170  0.45750  Biso   1.000  C
  C97      1.0000 0.33640  0.67710  0.48480  Biso   1.000  C
  C98      1.0000 0.43400  0.74380  0.44610  Biso   1.000  C
  H68      1.0000 0.42780  0.78890  0.47160  Biso   1.000  H
  H69      1.0000 0.50960  0.71040  0.44720  Biso   1.000  H
  H70      1.0000 0.42690  0.77470  0.39480  Biso   1.000  H
  Co3      1.0000 0.38668  0.72845  0.91772  Biso   1.000  Co
  Co4      1.0000 0.23267  0.49200  0.57823  Biso   1.000  Co
  N5       1.0000 0.47880  0.99490  0.90050  Biso   1.000  N
  N6       1.0000 0.47380  0.85090  0.89970  Biso   1.000  N
  N7       1.0000 0.10330  0.57100  0.63070  Biso   1.000  N
  N8       1.0000 0.11770  0.37910  0.63060  Biso   1.000  N
  O13      1.0000 0.47720  0.64360  0.00169  Biso   1.000  O
  O14      1.0000 0.33540  0.73720  0.03800  Biso   1.000  O
  O15      1.0000 0.68840  0.55590  0.33082  Biso   1.000  O
  O16      1.0000 0.49740  0.57120  0.39038  Biso   1.000  O
  O17      1.0000 0.44550  0.45100  0.11379  Biso   1.000  O
  O18      1.0000 0.53180  0.31340  0.17140  Biso   1.000  O
  O19      1.0000 0.35560  0.42230  0.50600  Biso   1.000  O
  O20      1.0000 0.19330  0.49650  0.47057  Biso   1.000  O
  O21      1.0000 0.31970  0.49690  0.99620  Biso   1.000  O
  O22      1.0000 0.25130  0.64390  0.94990  Biso   1.000  O
  O23      1.0000 0.35930  0.59200  0.52583  Biso   1.000  O
  O24      1.0000 0.23350  0.70560  0.47490  Biso   1.000  O
  Co5      1.0000 0.50000  0.50000  0.00000  Biso   1.000  Co
  Co6      1.0000 0.50000  0.50000  0.50000  Biso   1.000  Co
