data_image0
_cell_length_a       17.399
_cell_length_b       9.479
_cell_length_c       7.055
_cell_angle_alpha    90
_cell_angle_beta     108.026
_cell_angle_gamma    90

_symmetry_space_group_name_H-M    "P 1"
_symmetry_int_tables_number       1

loop_
  _symmetry_equiv_pos_as_xyz
  'x, y, z'

loop_
  _atom_site_label
  _atom_site_occupancy
  _atom_site_fract_x
  _atom_site_fract_y
  _atom_site_fract_z
  _atom_site_thermal_displace_type
  _atom_site_B_iso_or_equiv
  _atom_site_type_symbol
  P1       1.0000 0.73643  0.30095  0.68446  Biso   1.000  P
  P2       1.0000 0.00106  0.20465  0.00007  Biso   1.000  P
  O1       1.0000 0.73727  0.13740  0.68540  Biso   1.000  O
  O2       1.0000 0.99243  0.36270  0.98090  Biso   1.000  O
  O3       1.0000 0.82632  0.34470  0.77510  Biso   1.000  O
  O4       1.0000 0.70181  0.35410  0.47210  Biso   1.000  O
  O5       1.0000 0.04944  0.15650  0.20800  Biso   1.000  O
  O6       1.0000 0.68890  0.35150  0.81840  Biso   1.000  O
  O7       1.0000 0.03480  0.14660  0.84420  Biso   1.000  O
  O8       1.0000 0.91368  0.14450  0.95780  Biso   1.000  O
  H1       1.0000 0.88200  0.20900  0.89700  Biso   1.000  H
  P3       1.0000 0.23643  0.80095  0.68446  Biso   1.000  P
  P4       1.0000 0.50106  0.70465  0.00007  Biso   1.000  P
  O9       1.0000 0.23727  0.63740  0.68540  Biso   1.000  O
  O10      1.0000 0.49243  0.86270  0.98090  Biso   1.000  O
  O11      1.0000 0.32632  0.84470  0.77510  Biso   1.000  O
  O12      1.0000 0.20181  0.85410  0.47210  Biso   1.000  O
  O13      1.0000 0.54944  0.65650  0.20800  Biso   1.000  O
  O14      1.0000 0.18890  0.85150  0.81840  Biso   1.000  O
  O15      1.0000 0.53480  0.64660  0.84420  Biso   1.000  O
  O16      1.0000 0.41368  0.64450  0.95780  Biso   1.000  O
  H2       1.0000 0.38200  0.70900  0.89700  Biso   1.000  H
  P5       1.0000 0.73643  0.69905  0.68446  Biso   1.000  P
  P6       1.0000 0.00106  0.79535  0.00007  Biso   1.000  P
  O17      1.0000 0.73727  0.86260  0.68540  Biso   1.000  O
  O18      1.0000 0.99243  0.63730  0.98090  Biso   1.000  O
  O19      1.0000 0.82632  0.65530  0.77510  Biso   1.000  O
  O20      1.0000 0.70181  0.64590  0.47210  Biso   1.000  O
  O21      1.0000 0.04944  0.84350  0.20800  Biso   1.000  O
  O22      1.0000 0.68890  0.64850  0.81840  Biso   1.000  O
  O23      1.0000 0.03480  0.85340  0.84420  Biso   1.000  O
  O24      1.0000 0.91368  0.85550  0.95780  Biso   1.000  O
  H3       1.0000 0.88200  0.79100  0.89700  Biso   1.000  H
  P7       1.0000 0.23643  0.19905  0.68446  Biso   1.000  P
  P8       1.0000 0.50106  0.29535  0.00007  Biso   1.000  P
  O25      1.0000 0.23727  0.36260  0.68540  Biso   1.000  O
  O26      1.0000 0.49243  0.13730  0.98090  Biso   1.000  O
  O27      1.0000 0.32632  0.15530  0.77510  Biso   1.000  O
  O28      1.0000 0.20181  0.14590  0.47210  Biso   1.000  O
  O29      1.0000 0.54944  0.34350  0.20800  Biso   1.000  O
  O30      1.0000 0.18890  0.14850  0.81840  Biso   1.000  O
  O31      1.0000 0.53480  0.35340  0.84420  Biso   1.000  O
  O32      1.0000 0.41368  0.35550  0.95780  Biso   1.000  O
  H4       1.0000 0.38200  0.29100  0.89700  Biso   1.000  H
  V1       1.0000 0.65030  0.00000  0.56220  Biso   1.000  V
  V2       1.0000 0.15030  0.50000  0.56220  Biso   1.000  V
  V3       1.0000 0.90806  0.50000  0.83112  Biso   1.000  V
  V4       1.0000 0.63215  0.50000  0.31055  Biso   1.000  V
  V5       1.0000 0.60796  0.50000  0.79382  Biso   1.000  V
  O33      1.0000 0.66440  0.50000  0.11870  Biso   1.000  O
  O34      1.0000 0.57170  0.50000  0.55100  Biso   1.000  O
  V6       1.0000 0.40806  0.00000  0.83112  Biso   1.000  V
  V7       1.0000 0.13215  0.00000  0.31055  Biso   1.000  V
  V8       1.0000 0.10796  0.00000  0.79382  Biso   1.000  V
  O35      1.0000 0.16440  0.00000  0.11870  Biso   1.000  O
  O36      1.0000 0.07170  0.00000  0.55100  Biso   1.000  O
