data_image0
_cell_length_a       7.025
_cell_length_b       9.47
_cell_length_c       16.57
_cell_angle_alpha    90
_cell_angle_beta     96.03
_cell_angle_gamma    90

_symmetry_space_group_name_H-M    "P 1"
_symmetry_int_tables_number       1

loop_
  _symmetry_equiv_pos_as_xyz
  'x, y, z'

loop_
  _atom_site_label
  _atom_site_occupancy
  _atom_site_fract_x
  _atom_site_fract_y
  _atom_site_fract_z
  _atom_site_thermal_displace_type
  _atom_site_B_iso_or_equiv
  _atom_site_type_symbol
  P1       1.0000 0.56130  0.19880  0.51130  Biso   1.000  P
  P2       1.0000 0.50840  0.29490  0.77580  Biso   1.000  P
  O1       1.0000 0.56320  0.15410  0.60110  Biso   1.000  O
  O2       1.0000 0.52060  0.13550  0.76830  Biso   1.000  O
  O3       1.0000 0.56010  0.36210  0.51250  Biso   1.000  O
  O4       1.0000 0.34630  0.34270  0.82330  Biso   1.000  O
  O5       1.0000 0.73740  0.14540  0.47630  Biso   1.000  O
  O6       1.0000 0.69890  0.35040  0.81130  Biso   1.000  O
  O7       1.0000 0.37890  0.14770  0.46390  Biso   1.000  O
  O8       1.0000 0.46410  0.35330  0.68710  Biso   1.000  O
  P3       1.0000 0.06130  0.69880  0.01130  Biso   1.000  P
  P4       1.0000 0.00840  0.79490  0.27580  Biso   1.000  P
  O9       1.0000 0.06320  0.65410  0.10110  Biso   1.000  O
  O10      1.0000 0.02060  0.63550  0.26830  Biso   1.000  O
  O11      1.0000 0.06010  0.86210  0.01250  Biso   1.000  O
  O12      1.0000 0.84630  0.84270  0.32330  Biso   1.000  O
  O13      1.0000 0.23740  0.64540  0.97630  Biso   1.000  O
  O14      1.0000 0.19890  0.85040  0.31130  Biso   1.000  O
  O15      1.0000 0.87890  0.64770  0.96390  Biso   1.000  O
  O16      1.0000 0.96410  0.85330  0.18710  Biso   1.000  O
  P5       1.0000 0.56130  0.80120  0.51130  Biso   1.000  P
  P6       1.0000 0.50840  0.70510  0.77580  Biso   1.000  P
  O17      1.0000 0.56320  0.84590  0.60110  Biso   1.000  O
  O18      1.0000 0.52060  0.86450  0.76830  Biso   1.000  O
  O19      1.0000 0.56010  0.63790  0.51250  Biso   1.000  O
  O20      1.0000 0.34630  0.65730  0.82330  Biso   1.000  O
  O21      1.0000 0.73740  0.85460  0.47630  Biso   1.000  O
  O22      1.0000 0.69890  0.64960  0.81130  Biso   1.000  O
  O23      1.0000 0.37890  0.85230  0.46390  Biso   1.000  O
  O24      1.0000 0.46410  0.64670  0.68710  Biso   1.000  O
  P7       1.0000 0.06130  0.30120  0.01130  Biso   1.000  P
  P8       1.0000 0.00840  0.20510  0.27580  Biso   1.000  P
  O25      1.0000 0.06320  0.34590  0.10110  Biso   1.000  O
  O26      1.0000 0.02060  0.36450  0.26830  Biso   1.000  O
  O27      1.0000 0.06010  0.13790  0.01250  Biso   1.000  O
  O28      1.0000 0.84630  0.15730  0.32330  Biso   1.000  O
  O29      1.0000 0.23740  0.35460  0.97630  Biso   1.000  O
  O30      1.0000 0.19890  0.14960  0.31130  Biso   1.000  O
  O31      1.0000 0.87890  0.35230  0.96390  Biso   1.000  O
  O32      1.0000 0.96410  0.14670  0.18710  Biso   1.000  O
  V1       1.0000 0.58740  0.00000  0.68320  Biso   1.000  V
  V2       1.0000 0.08740  0.50000  0.18320  Biso   1.000  V
  V3       1.0000 0.59670  0.50000  0.42540  Biso   1.000  V
  V4       1.0000 0.32850  0.50000  0.90560  Biso   1.000  V
  V5       1.0000 0.82240  0.50000  0.88340  Biso   1.000  V
  O33      1.0000 0.55510  0.50000  0.93600  Biso   1.000  O
  O34      1.0000 0.03340  0.50000  0.84910  Biso   1.000  O
  V6       1.0000 0.09670  0.00000  0.92540  Biso   1.000  V
  V7       1.0000 0.82850  0.00000  0.40560  Biso   1.000  V
  V8       1.0000 0.32240  0.00000  0.38340  Biso   1.000  V
  O35      1.0000 0.05510  0.00000  0.43600  Biso   1.000  O
  O36      1.0000 0.53340  0.00000  0.34910  Biso   1.000  O
