data_YUZXAT_clean
_audit_creation_date              2014-07-02
_audit_creation_method            'Materials Studio'
_symmetry_space_group_name_H-M    'P1'
_symmetry_Int_Tables_number       1
_symmetry_cell_setting            triclinic
loop_
_symmetry_equiv_pos_as_xyz
  x,y,z
_cell_length_a                    9.3402
_cell_length_b                    13.7391
_cell_length_c                    20.0900
_cell_angle_alpha                 86.1372
_cell_angle_beta                  78.5689
_cell_angle_gamma                 70.1284
loop_
_atom_site_label
_atom_site_type_symbol
_atom_site_fract_x
_atom_site_fract_y
_atom_site_fract_z
_atom_site_U_iso_or_equiv
_atom_site_adp_type
_atom_site_occupancy
Zn1    Zn    0.65877   0.24342   0.98640   0.01267  Uiso   1.00
Zn2    Zn    0.09781   0.24342   0.51360   0.01267  Uiso   1.00
Zn3    Zn    0.34123   0.75658   0.01360   0.01267  Uiso   1.00
Zn4    Zn    0.90219   0.75658   0.48640   0.01267  Uiso   1.00
H1     H     0.98100   0.12900   0.93400   0.01267  Uiso   1.00
H2     H     0.13560   0.98620   0.87190   0.01267  Uiso   1.00
H3     H     0.75670   0.91080   0.86900   0.01267  Uiso   1.00
H4     H     0.61120   0.06080   0.92830   0.01267  Uiso   1.00
H5     H     0.97230   0.73780   0.83680   0.01267  Uiso   1.00
H6     H     0.92100   0.81440   0.77720   0.01267  Uiso   1.00
H7     H     0.28900   0.68460   0.81960   0.01267  Uiso   1.00
H8     H     0.36750   0.61500   0.75440   0.01267  Uiso   1.00
H9     H     0.59680   0.45380   0.93710   0.01267  Uiso   1.00
H10    H     0.44440   0.57820   0.87590   0.01267  Uiso   1.00
H11    H     0.23050   0.38040   0.85060   0.01267  Uiso   1.00
H12    H     0.38140   0.26220   0.91320   0.01267  Uiso   1.00
H13    H     0.12450   0.35560   0.05990   0.01267  Uiso   1.00
H14    H     0.81050   0.49660   0.94370   0.01267  Uiso   1.00
H15    H     0.38600   0.32740   0.19260   0.01267  Uiso   1.00
H16    H     0.53280   0.01480   0.19090   0.01267  Uiso   1.00
H17    H     0.89000   0.12900   0.56600   0.01267  Uiso   1.00
H18    H     0.87820   0.98620   0.62810   0.01267  Uiso   1.00
H19    H     0.33250   0.91080   0.63100   0.01267  Uiso   1.00
H20    H     0.32800   0.06080   0.57170   0.01267  Uiso   1.00
H21    H     0.28990   0.73780   0.66320   0.01267  Uiso   1.00
H22    H     0.26460   0.81440   0.72280   0.01267  Uiso   1.00
H23    H     0.02640   0.68460   0.68040   0.01267  Uiso   1.00
H24    H     0.01750   0.61500   0.74560   0.01267  Uiso   1.00
H25    H     0.94940   0.45380   0.56290   0.01267  Uiso   1.00
H26    H     0.97740   0.57820   0.62410   0.01267  Uiso   1.00
H27    H     0.38910   0.38040   0.64940   0.01267  Uiso   1.00
H28    H     0.35640   0.26220   0.58680   0.01267  Uiso   1.00
H29    H     0.51990   0.35560   0.44010   0.01267  Uiso   1.00
H30    H     0.69290   0.49660   0.55630   0.01267  Uiso   1.00
H31    H     0.28660   0.32740   0.30740   0.01267  Uiso   1.00
H32    H     0.45240   0.01480   0.30910   0.01267  Uiso   1.00
H33    H     0.01900   0.87100   0.06600   0.01267  Uiso   1.00
H34    H     0.86440   0.01380   0.12810   0.01267  Uiso   1.00
H35    H     0.24330   0.08920   0.13100   0.01267  Uiso   1.00
H36    H     0.38880   0.93920   0.07170   0.01267  Uiso   1.00
H37    H     0.02770   0.26220   0.16320   0.01267  Uiso   1.00
H38    H     0.07900   0.18560   0.22280   0.01267  Uiso   1.00
H39    H     0.71100   0.31540   0.18040   0.01267  Uiso   1.00
H40    H     0.63250   0.38500   0.24560   0.01267  Uiso   1.00
H41    H     0.40320   0.54620   0.06290   0.01267  Uiso   1.00
H42    H     0.55560   0.42180   0.12410   0.01267  Uiso   1.00
H43    H     0.76950   0.61960   0.14940   0.01267  Uiso   1.00
H44    H     0.61860   0.73780   0.08680   0.01267  Uiso   1.00
H45    H     0.87550   0.64440   0.94010   0.01267  Uiso   1.00
H46    H     0.18950   0.50340   0.05630   0.01267  Uiso   1.00
H47    H     0.61400   0.67260   0.80740   0.01267  Uiso   1.00
H48    H     0.46720   0.98520   0.80910   0.01267  Uiso   1.00
H49    H     0.11000   0.87100   0.43400   0.01267  Uiso   1.00
H50    H     0.12180   0.01380   0.37190   0.01267  Uiso   1.00
H51    H     0.66750   0.08920   0.36900   0.01267  Uiso   1.00
H52    H     0.67200   0.93920   0.42830   0.01267  Uiso   1.00
H53    H     0.71010   0.26220   0.33680   0.01267  Uiso   1.00
H54    H     0.73540   0.18560   0.27720   0.01267  Uiso   1.00
H55    H     0.97360   0.31540   0.31960   0.01267  Uiso   1.00
H56    H     0.98250   0.38500   0.25440   0.01267  Uiso   1.00
H57    H     0.05060   0.54620   0.43710   0.01267  Uiso   1.00
H58    H     0.02260   0.42180   0.37590   0.01267  Uiso   1.00
H59    H     0.61090   0.61960   0.35060   0.01267  Uiso   1.00
H60    H     0.64360   0.73780   0.41320   0.01267  Uiso   1.00
H61    H     0.48010   0.64440   0.55990   0.01267  Uiso   1.00
H62    H     0.30710   0.50340   0.44370   0.01267  Uiso   1.00
H63    H     0.71340   0.67260   0.69260   0.01267  Uiso   1.00
H64    H     0.54760   0.98520   0.69090   0.01267  Uiso   1.00
C1     C     0.93549   0.08542   0.91978   0.01267  Uiso   1.00
C2     C     0.02916   0.99968   0.88300   0.01267  Uiso   1.00
C3     C     0.96409   0.93342   0.86262   0.01267  Uiso   1.00
C4     C     0.80377   0.95526   0.88084   0.01267  Uiso   1.00
C5     C     0.71811   0.04478   0.91689   0.01267  Uiso   1.00
C6     C     0.00689   0.77882   0.80004   0.01267  Uiso   1.00
C7     C     0.27153   0.64354   0.78661   0.01267  Uiso   1.00
C8     C     0.52280   0.43820   0.91907   0.01267  Uiso   1.00
C9     C     0.43116   0.51388   0.88261   0.01267  Uiso   1.00
C10    C     0.32162   0.49336   0.85673   0.01267  Uiso   1.00
C11    C     0.30487   0.39626   0.86822   0.01267  Uiso   1.00
C12    C     0.39665   0.32570   0.90480   0.01267  Uiso   1.00
C13    C     0.91415   0.31530   0.00410   0.01267  Uiso   1.00
C14    C     0.07440   0.41320   0.03586   0.01267  Uiso   1.00
C15    C     0.95881   0.41118   0.00131   0.01267  Uiso   1.00
C16    C     0.88737   0.49786   0.96650   0.01267  Uiso   1.00
C17    C     0.53306   0.17008   0.10553   0.01267  Uiso   1.00
C18    C     0.39622   0.26496   0.21553   0.01267  Uiso   1.00
C19    C     0.46923   0.17174   0.18039   0.01267  Uiso   1.00
C20    C     0.48724   0.07692   0.21470   0.01267  Uiso   1.00
C21    C     0.97909   0.08542   0.58022   0.01267  Uiso   1.00
C22    C     0.97116   0.99968   0.61700   0.01267  Uiso   1.00
C23    C     0.10249   0.93342   0.63738   0.01267  Uiso   1.00
C24    C     0.24097   0.95526   0.61916   0.01267  Uiso   1.00
C25    C     0.23711   0.04478   0.58311   0.01267  Uiso   1.00
C26    C     0.21429   0.77882   0.69996   0.01267  Uiso   1.00
C27    C     0.08493   0.64354   0.71339   0.01267  Uiso   1.00
C28    C     0.03900   0.43820   0.58093   0.01267  Uiso   1.00
C29    C     0.05496   0.51388   0.61739   0.01267  Uiso   1.00
C30    C     0.18502   0.49336   0.64327   0.01267  Uiso   1.00
C31    C     0.29887   0.39626   0.63178   0.01267  Uiso   1.00
C32    C     0.27765   0.32570   0.59520   0.01267  Uiso   1.00
C33    C     0.77055   0.31530   0.49590   0.01267  Uiso   1.00
C34    C     0.51240   0.41320   0.46414   0.01267  Uiso   1.00
C35    C     0.63001   0.41118   0.49869   0.01267  Uiso   1.00
C36    C     0.61477   0.49786   0.53350   0.01267  Uiso   1.00
C37    C     0.29686   0.17008   0.39447   0.01267  Uiso   1.00
C38    C     0.33882   0.26496   0.28447   0.01267  Uiso   1.00
C39    C     0.35903   0.17174   0.31961   0.01267  Uiso   1.00
C40    C     0.43584   0.07692   0.28530   0.01267  Uiso   1.00
C41    C     0.06451   0.91458   0.08022   0.01267  Uiso   1.00
C42    C     0.97084   0.00032   0.11700   0.01267  Uiso   1.00
C43    C     0.03591   0.06658   0.13738   0.01267  Uiso   1.00
C44    C     0.19623   0.04474   0.11916   0.01267  Uiso   1.00
C45    C     0.28189   0.95522   0.08311   0.01267  Uiso   1.00
C46    C     0.99311   0.22118   0.19996   0.01267  Uiso   1.00
C47    C     0.72847   0.35646   0.21339   0.01267  Uiso   1.00
C48    C     0.47720   0.56180   0.08093   0.01267  Uiso   1.00
C49    C     0.56884   0.48612   0.11739   0.01267  Uiso   1.00
C50    C     0.67838   0.50664   0.14327   0.01267  Uiso   1.00
C51    C     0.69513   0.60374   0.13178   0.01267  Uiso   1.00
C52    C     0.60335   0.67430   0.09520   0.01267  Uiso   1.00
C53    C     0.08585   0.68470   0.99590   0.01267  Uiso   1.00
C54    C     0.92560   0.58680   0.96414   0.01267  Uiso   1.00
C55    C     0.04119   0.58882   0.99869   0.01267  Uiso   1.00
C56    C     0.11263   0.50214   0.03350   0.01267  Uiso   1.00
C57    C     0.46694   0.82992   0.89447   0.01267  Uiso   1.00
C58    C     0.60378   0.73504   0.78447   0.01267  Uiso   1.00
C59    C     0.53077   0.82826   0.81961   0.01267  Uiso   1.00
C60    C     0.51276   0.92308   0.78530   0.01267  Uiso   1.00
C61    C     0.02091   0.91458   0.41978   0.01267  Uiso   1.00
C62    C     0.02884   0.00032   0.38300   0.01267  Uiso   1.00
C63    C     0.89751   0.06658   0.36262   0.01267  Uiso   1.00
C64    C     0.75903   0.04474   0.38084   0.01267  Uiso   1.00
C65    C     0.76289   0.95522   0.41689   0.01267  Uiso   1.00
C66    C     0.78571   0.22118   0.30004   0.01267  Uiso   1.00
C67    C     0.91507   0.35646   0.28661   0.01267  Uiso   1.00
C68    C     0.96100   0.56180   0.41907   0.01267  Uiso   1.00
C69    C     0.94504   0.48612   0.38261   0.01267  Uiso   1.00
C70    C     0.81498   0.50664   0.35673   0.01267  Uiso   1.00
C71    C     0.70113   0.60374   0.36822   0.01267  Uiso   1.00
C72    C     0.72235   0.67430   0.40480   0.01267  Uiso   1.00
C73    C     0.22945   0.68470   0.50410   0.01267  Uiso   1.00
C74    C     0.48760   0.58680   0.53586   0.01267  Uiso   1.00
C75    C     0.36999   0.58882   0.50131   0.01267  Uiso   1.00
C76    C     0.38523   0.50214   0.46650   0.01267  Uiso   1.00
C77    C     0.70314   0.82992   0.60553   0.01267  Uiso   1.00
C78    C     0.66118   0.73504   0.71553   0.01267  Uiso   1.00
C79    C     0.64097   0.82826   0.68039   0.01267  Uiso   1.00
C80    C     0.56416   0.92308   0.71470   0.01267  Uiso   1.00
C81    C     0.14496   0.71008   0.75000   0.01267  Uiso   1.00
C82    C     0.85504   0.28992   0.25000   0.01267  Uiso   1.00
N1     N     0.78126   0.11028   0.93645   0.01267  Uiso   1.00
N2     N     0.51185   0.34250   0.93041   0.01267  Uiso   1.00
N3     N     0.10846   0.11028   0.56355   0.01267  Uiso   1.00
N4     N     0.14565   0.34250   0.56959   0.01267  Uiso   1.00
N5     N     0.21874   0.88972   0.06355   0.01267  Uiso   1.00
N6     N     0.48815   0.65750   0.06959   0.01267  Uiso   1.00
N7     N     0.89154   0.88972   0.43645   0.01267  Uiso   1.00
N8     N     0.85435   0.65750   0.43041   0.01267  Uiso   1.00
O1     O     0.06251   0.85178   0.82555   0.01267  Uiso   1.00
O2     O     0.22183   0.56194   0.81996   0.01267  Uiso   1.00
O3     O     0.79432   0.32616   0.97964   0.01267  Uiso   1.00
O4     O     0.99204   0.23412   0.02824   0.01267  Uiso   1.00
O5     O     0.55027   0.25246   0.08037   0.01267  Uiso   1.00
O6     O     0.56218   0.09144   0.07168   0.01267  Uiso   1.00
O7     O     0.08571   0.85178   0.67445   0.01267  Uiso   1.00
O8     O     0.21623   0.56194   0.68004   0.01267  Uiso   1.00
O9     O     0.87952   0.32616   0.52036   0.01267  Uiso   1.00
O10    O     0.77384   0.23412   0.47176   0.01267  Uiso   1.00
O11    O     0.19727   0.25246   0.41963   0.01267  Uiso   1.00
O12    O     0.34638   0.09144   0.42832   0.01267  Uiso   1.00
O13    O     0.93749   0.14822   0.17445   0.01267  Uiso   1.00
O14    O     0.77817   0.43806   0.18004   0.01267  Uiso   1.00
O15    O     0.20568   0.67384   0.02036   0.01267  Uiso   1.00
O16    O     0.00796   0.76588   0.97176   0.01267  Uiso   1.00
O17    O     0.44973   0.74754   0.91963   0.01267  Uiso   1.00
O18    O     0.43782   0.90856   0.92832   0.01267  Uiso   1.00
O19    O     0.91429   0.14822   0.32555   0.01267  Uiso   1.00
O20    O     0.78377   0.43806   0.31996   0.01267  Uiso   1.00
O21    O     0.12048   0.67384   0.47964   0.01267  Uiso   1.00
O22    O     0.22616   0.76588   0.52824   0.01267  Uiso   1.00
O23    O     0.80273   0.74754   0.58037   0.01267  Uiso   1.00
O24    O     0.65362   0.90856   0.57168   0.01267  Uiso   1.00
