data_ZABQIC_ion_b
_audit_creation_date              2014-07-02
_audit_creation_method            'Materials Studio'
_symmetry_space_group_name_H-M    'P1'
_symmetry_Int_Tables_number       1
_symmetry_cell_setting            triclinic
loop_
_symmetry_equiv_pos_as_xyz
  x,y,z
_cell_length_a                    11.5920
_cell_length_b                    19.0992
_cell_length_c                    38.7481
_cell_angle_alpha                 90.0000
_cell_angle_beta                  90.0000
_cell_angle_gamma                 90.0000
loop_
_atom_site_label
_atom_site_type_symbol
_atom_site_fract_x
_atom_site_fract_y
_atom_site_fract_z
_atom_site_U_iso_or_equiv
_atom_site_adp_type
_atom_site_occupancy
Ag1    Ag    0.20060   0.53410   0.25660   0.00000  Uiso   1.00
S2     S     0.35980   0.68020   0.22530   0.00000  Uiso   1.00
F3     F     0.20420   0.76350   0.24040   0.00000  Uiso   1.00
F4     F     0.29550   0.79910   0.20660   0.00000  Uiso   1.00
F5     F     0.36220   0.79110   0.26040   0.00000  Uiso   1.00
O6     O     0.31660   0.64050   0.25840   0.00000  Uiso   1.00
O7     O     0.30340   0.66170   0.19460   0.00000  Uiso   1.00
O8     O     0.48020   0.67850   0.21890   0.00000  Uiso   1.00
N9     N     0.25380   0.43830   0.28490   0.00000  Uiso   1.00
N10    N     0.67050   0.98790   0.70380   0.00000  Uiso   1.00
N11    N     0.06410   0.59620   0.28380   0.00000  Uiso   1.00
N12    N     0.39260   0.56810   0.32510   0.00000  Uiso   1.00
C13    C     0.31060   0.77500   0.23260   0.00000  Uiso   1.00
C14    C     0.60750   0.06440   0.44400   0.00000  Uiso   1.00
C15    C     0.60180   0.07250   0.40910   0.00000  Uiso   1.00
C16    C     0.54580   0.12830   0.39020   0.00000  Uiso   1.00
C17    C     0.49980   0.17870   0.37400   0.00000  Uiso   1.00
C18    C     0.44590   0.23270   0.35770   0.00000  Uiso   1.00
C19    C     0.41420   0.29350   0.37390   0.00000  Uiso   1.00
C20    C     0.36560   0.34910   0.35390   0.00000  Uiso   1.00
C21    C     0.35800   0.33930   0.32000   0.00000  Uiso   1.00
C22    C     0.30190   0.39570   0.30320   0.00000  Uiso   1.00
C23    C     0.38980   0.28080   0.30530   0.00000  Uiso   1.00
C24    C     0.43530   0.22780   0.32480   0.00000  Uiso   1.00
C25    C     0.65640   0.02120   0.38750   0.00000  Uiso   1.00
C26    C     0.71610   0.96110   0.40240   0.00000  Uiso   1.00
C27    C     0.77050   0.91090   0.38230   0.00000  Uiso   1.00
C28    C     0.81800   0.86730   0.36640   0.00000  Uiso   1.00
C29    C     0.86710   0.80760   0.34960   0.00000  Uiso   1.00
C30    C     0.88100   0.82040   0.31400   0.00000  Uiso   1.00
C31    C     0.93340   0.76150   0.29340   0.00000  Uiso   1.00
C32    C     0.96490   0.69720   0.31430   0.00000  Uiso   1.00
C33    C     0.02650   0.63920   0.29580   0.00000  Uiso   1.00
C34    C     0.94970   0.69430   0.35010   0.00000  Uiso   1.00
C35    C     0.89560   0.74840   0.36650   0.00000  Uiso   1.00
C36    C     0.71440   0.95710   0.43840   0.00000  Uiso   1.00
C37    C     0.65830   0.01000   0.46000   0.00000  Uiso   1.00
C38    C     0.66400   0.00490   0.49490   0.00000  Uiso   1.00
C39    C     0.66770   0.99950   0.52580   0.00000  Uiso   1.00
C40    C     0.67180   0.99640   0.56390   0.00000  Uiso   1.00
C41    C     0.70070   0.93870   0.58010   0.00000  Uiso   1.00
C42    C     0.71280   0.93630   0.61560   0.00000  Uiso   1.00
C43    C     0.67320   0.99420   0.63450   0.00000  Uiso   1.00
C44    C     0.67450   0.99070   0.67570   0.00000  Uiso   1.00
C45    C     0.63890   0.05230   0.61610   0.00000  Uiso   1.00
C46    C     0.63070   0.05420   0.58270   0.00000  Uiso   1.00
C47    C     0.03960   0.94500   0.43650   0.00000  Uiso   1.00
C48    C     0.08770   0.88560   0.41890   0.00000  Uiso   1.00
C49    C     0.12740   0.83530   0.40370   0.00000  Uiso   1.00
C50    C     0.18600   0.78230   0.38810   0.00000  Uiso   1.00
C51    C     0.22350   0.72540   0.40570   0.00000  Uiso   1.00
C52    C     0.28130   0.66400   0.39160   0.00000  Uiso   1.00
C53    C     0.29320   0.66680   0.35570   0.00000  Uiso   1.00
C54    C     0.34980   0.61340   0.33580   0.00000  Uiso   1.00
C55    C     0.25980   0.72010   0.33550   0.00000  Uiso   1.00
C56    C     0.20310   0.78410   0.35220   0.00000  Uiso   1.00
C57    C     0.04190   0.94190   0.47450   0.00000  Uiso   1.00
C58    C     0.02400   0.93460   0.65090   0.00000  Uiso   1.00
C59    C     0.02300   0.94050   0.61580   0.00000  Uiso   1.00
H68    H     0.57410   0.09890   0.45770   0.00000  Uiso   1.00
H69    H     0.42410   0.29860   0.39750   0.00000  Uiso   1.00
H70    H     0.34050   0.39030   0.36420   0.00000  Uiso   1.00
H71    H     0.38160   0.27520   0.28160   0.00000  Uiso   1.00
H72    H     0.45930   0.18700   0.31380   0.00000  Uiso   1.00
H73    H     0.65360   0.02630   0.36360   0.00000  Uiso   1.00
H74    H     0.85910   0.86250   0.30380   0.00000  Uiso   1.00
H75    H     0.94550   0.76440   0.26970   0.00000  Uiso   1.00
H76    H     0.97620   0.65600   0.36250   0.00000  Uiso   1.00
H77    H     0.87800   0.74420   0.38980   0.00000  Uiso   1.00
H78    H     0.75040   0.91940   0.44910   0.00000  Uiso   1.00
H79    H     0.71350   0.89820   0.56730   0.00000  Uiso   1.00
H80    H     0.74580   0.89790   0.62650   0.00000  Uiso   1.00
H81    H     0.62050   0.09260   0.62840   0.00000  Uiso   1.00
H82    H     0.59860   0.09260   0.57150   0.00000  Uiso   1.00
H83    H     0.21100   0.72560   0.42940   0.00000  Uiso   1.00
H84    H     0.30750   0.62700   0.40510   0.00000  Uiso   1.00
H85    H     0.27080   0.71820   0.31170   0.00000  Uiso   1.00
H86    H     0.18090   0.82260   0.33920   0.00000  Uiso   1.00
H87    H     0.07000   0.90300   0.48620   0.00000  Uiso   1.00
H88    H     0.03810   0.89410   0.66360   0.00000  Uiso   1.00
H89    H     0.03970   0.89990   0.60360   0.00000  Uiso   1.00
Ag96   Ag    0.79940   0.46590   0.25660   0.00000  Uiso   1.00
S97    S     0.64020   0.31980   0.22530   0.00000  Uiso   1.00
F98    F     0.79580   0.23650   0.24040   0.00000  Uiso   1.00
F99    F     0.70450   0.20090   0.20660   0.00000  Uiso   1.00
F100   F     0.63780   0.20890   0.26040   0.00000  Uiso   1.00
O101   O     0.68340   0.35950   0.25840   0.00000  Uiso   1.00
O102   O     0.69660   0.33830   0.19460   0.00000  Uiso   1.00
O103   O     0.51980   0.32150   0.21890   0.00000  Uiso   1.00
N104   N     0.74620   0.56170   0.28490   0.00000  Uiso   1.00
N105   N     0.32950   0.01210   0.70380   0.00000  Uiso   1.00
N106   N     0.93590   0.40380   0.28380   0.00000  Uiso   1.00
N107   N     0.60740   0.43190   0.32510   0.00000  Uiso   1.00
C108   C     0.68940   0.22500   0.23260   0.00000  Uiso   1.00
C109   C     0.39250   0.93560   0.44400   0.00000  Uiso   1.00
C110   C     0.39820   0.92750   0.40910   0.00000  Uiso   1.00
C111   C     0.45420   0.87170   0.39020   0.00000  Uiso   1.00
C112   C     0.50020   0.82130   0.37400   0.00000  Uiso   1.00
C113   C     0.55410   0.76730   0.35770   0.00000  Uiso   1.00
C114   C     0.58580   0.70650   0.37390   0.00000  Uiso   1.00
C115   C     0.63440   0.65090   0.35390   0.00000  Uiso   1.00
C116   C     0.64200   0.66070   0.32000   0.00000  Uiso   1.00
C117   C     0.69810   0.60430   0.30320   0.00000  Uiso   1.00
C118   C     0.61020   0.71920   0.30530   0.00000  Uiso   1.00
C119   C     0.56470   0.77220   0.32480   0.00000  Uiso   1.00
C120   C     0.34360   0.97880   0.38750   0.00000  Uiso   1.00
C121   C     0.28390   0.03890   0.40240   0.00000  Uiso   1.00
C122   C     0.22950   0.08910   0.38230   0.00000  Uiso   1.00
C123   C     0.18200   0.13270   0.36640   0.00000  Uiso   1.00
C124   C     0.13290   0.19240   0.34960   0.00000  Uiso   1.00
C125   C     0.11900   0.17960   0.31400   0.00000  Uiso   1.00
C126   C     0.06660   0.23850   0.29340   0.00000  Uiso   1.00
C127   C     0.03510   0.30280   0.31430   0.00000  Uiso   1.00
C128   C     0.97350   0.36080   0.29580   0.00000  Uiso   1.00
C129   C     0.05030   0.30570   0.35010   0.00000  Uiso   1.00
C130   C     0.10440   0.25160   0.36650   0.00000  Uiso   1.00
C131   C     0.28560   0.04290   0.43840   0.00000  Uiso   1.00
C132   C     0.34170   0.99000   0.46000   0.00000  Uiso   1.00
C133   C     0.33600   0.99510   0.49490   0.00000  Uiso   1.00
C134   C     0.33230   0.00050   0.52580   0.00000  Uiso   1.00
C135   C     0.32820   0.00360   0.56390   0.00000  Uiso   1.00
C136   C     0.29930   0.06130   0.58010   0.00000  Uiso   1.00
C137   C     0.28720   0.06370   0.61560   0.00000  Uiso   1.00
C138   C     0.32680   0.00580   0.63450   0.00000  Uiso   1.00
C139   C     0.32550   0.00930   0.67570   0.00000  Uiso   1.00
C140   C     0.36110   0.94770   0.61610   0.00000  Uiso   1.00
C141   C     0.36930   0.94580   0.58270   0.00000  Uiso   1.00
C142   C     0.96040   0.05500   0.43650   0.00000  Uiso   1.00
C143   C     0.91230   0.11440   0.41890   0.00000  Uiso   1.00
C144   C     0.87260   0.16470   0.40370   0.00000  Uiso   1.00
C145   C     0.81400   0.21770   0.38810   0.00000  Uiso   1.00
C146   C     0.77650   0.27460   0.40570   0.00000  Uiso   1.00
C147   C     0.71870   0.33600   0.39160   0.00000  Uiso   1.00
C148   C     0.70680   0.33320   0.35570   0.00000  Uiso   1.00
C149   C     0.65020   0.38660   0.33580   0.00000  Uiso   1.00
C150   C     0.74020   0.27990   0.33550   0.00000  Uiso   1.00
C151   C     0.79690   0.21590   0.35220   0.00000  Uiso   1.00
C152   C     0.95810   0.05810   0.47450   0.00000  Uiso   1.00
C153   C     0.97600   0.06540   0.65090   0.00000  Uiso   1.00
C154   C     0.97700   0.05950   0.61580   0.00000  Uiso   1.00
H163   H     0.42590   0.90110   0.45770   0.00000  Uiso   1.00
H164   H     0.57590   0.70140   0.39750   0.00000  Uiso   1.00
H165   H     0.65950   0.60970   0.36420   0.00000  Uiso   1.00
H166   H     0.61840   0.72480   0.28160   0.00000  Uiso   1.00
H167   H     0.54070   0.81300   0.31380   0.00000  Uiso   1.00
H168   H     0.34640   0.97370   0.36360   0.00000  Uiso   1.00
H169   H     0.14090   0.13750   0.30380   0.00000  Uiso   1.00
H170   H     0.05450   0.23560   0.26970   0.00000  Uiso   1.00
H171   H     0.02380   0.34400   0.36250   0.00000  Uiso   1.00
H172   H     0.12200   0.25580   0.38980   0.00000  Uiso   1.00
H173   H     0.24960   0.08060   0.44910   0.00000  Uiso   1.00
H174   H     0.28650   0.10180   0.56730   0.00000  Uiso   1.00
H175   H     0.25420   0.10210   0.62650   0.00000  Uiso   1.00
H176   H     0.37950   0.90740   0.62840   0.00000  Uiso   1.00
H177   H     0.40140   0.90740   0.57150   0.00000  Uiso   1.00
H178   H     0.78900   0.27440   0.42940   0.00000  Uiso   1.00
H179   H     0.69250   0.37300   0.40510   0.00000  Uiso   1.00
H180   H     0.72920   0.28180   0.31170   0.00000  Uiso   1.00
H181   H     0.81910   0.17740   0.33920   0.00000  Uiso   1.00
H182   H     0.93000   0.09700   0.48620   0.00000  Uiso   1.00
H183   H     0.96190   0.10590   0.66360   0.00000  Uiso   1.00
H184   H     0.96030   0.10010   0.60360   0.00000  Uiso   1.00
Ag191  Ag    0.70060   0.96590   0.75660   0.00000  Uiso   1.00
S192   S     0.85980   0.81980   0.72530   0.00000  Uiso   1.00
F193   F     0.70420   0.73650   0.74040   0.00000  Uiso   1.00
F194   F     0.79550   0.70090   0.70660   0.00000  Uiso   1.00
F195   F     0.86220   0.70890   0.76040   0.00000  Uiso   1.00
O196   O     0.81660   0.85950   0.75840   0.00000  Uiso   1.00
O197   O     0.80340   0.83830   0.69460   0.00000  Uiso   1.00
O198   O     0.98020   0.82150   0.71890   0.00000  Uiso   1.00
N199   N     0.75380   0.06170   0.78490   0.00000  Uiso   1.00
N200   N     0.17050   0.51210   0.20380   0.00000  Uiso   1.00
N201   N     0.56410   0.90380   0.78380   0.00000  Uiso   1.00
N202   N     0.89260   0.93190   0.82510   0.00000  Uiso   1.00
C203   C     0.81060   0.72500   0.73260   0.00000  Uiso   1.00
C204   C     0.10750   0.43560   0.94400   0.00000  Uiso   1.00
C205   C     0.10180   0.42750   0.90910   0.00000  Uiso   1.00
C206   C     0.04580   0.37170   0.89020   0.00000  Uiso   1.00
C207   C     0.99980   0.32130   0.87400   0.00000  Uiso   1.00
C208   C     0.94590   0.26730   0.85770   0.00000  Uiso   1.00
C209   C     0.91420   0.20650   0.87390   0.00000  Uiso   1.00
C210   C     0.86560   0.15090   0.85390   0.00000  Uiso   1.00
C211   C     0.85800   0.16070   0.82000   0.00000  Uiso   1.00
C212   C     0.80190   0.10430   0.80320   0.00000  Uiso   1.00
C213   C     0.88980   0.21920   0.80530   0.00000  Uiso   1.00
C214   C     0.93530   0.27220   0.82480   0.00000  Uiso   1.00
C215   C     0.15640   0.47880   0.88750   0.00000  Uiso   1.00
C216   C     0.21610   0.53890   0.90240   0.00000  Uiso   1.00
C217   C     0.27050   0.58910   0.88230   0.00000  Uiso   1.00
C218   C     0.31800   0.63270   0.86640   0.00000  Uiso   1.00
C219   C     0.36710   0.69240   0.84960   0.00000  Uiso   1.00
C220   C     0.38100   0.67960   0.81400   0.00000  Uiso   1.00
C221   C     0.43340   0.73850   0.79340   0.00000  Uiso   1.00
C222   C     0.46490   0.80280   0.81430   0.00000  Uiso   1.00
C223   C     0.52650   0.86080   0.79580   0.00000  Uiso   1.00
C224   C     0.44970   0.80570   0.85010   0.00000  Uiso   1.00
C225   C     0.39560   0.75160   0.86650   0.00000  Uiso   1.00
C226   C     0.21440   0.54290   0.93840   0.00000  Uiso   1.00
C227   C     0.15830   0.49000   0.96000   0.00000  Uiso   1.00
C228   C     0.16400   0.49510   0.99490   0.00000  Uiso   1.00
C229   C     0.16770   0.50050   0.02580   0.00000  Uiso   1.00
C230   C     0.17180   0.50360   0.06390   0.00000  Uiso   1.00
C231   C     0.20070   0.56130   0.08010   0.00000  Uiso   1.00
C232   C     0.21280   0.56370   0.11560   0.00000  Uiso   1.00
C233   C     0.17320   0.50580   0.13450   0.00000  Uiso   1.00
C234   C     0.17450   0.50930   0.17570   0.00000  Uiso   1.00
C235   C     0.13890   0.44770   0.11610   0.00000  Uiso   1.00
C236   C     0.13070   0.44580   0.08270   0.00000  Uiso   1.00
C237   C     0.53960   0.55500   0.93650   0.00000  Uiso   1.00
C238   C     0.58770   0.61440   0.91890   0.00000  Uiso   1.00
C239   C     0.62740   0.66470   0.90370   0.00000  Uiso   1.00
C240   C     0.68600   0.71770   0.88810   0.00000  Uiso   1.00
C241   C     0.72350   0.77460   0.90570   0.00000  Uiso   1.00
C242   C     0.78130   0.83600   0.89160   0.00000  Uiso   1.00
C243   C     0.79320   0.83320   0.85570   0.00000  Uiso   1.00
C244   C     0.84980   0.88660   0.83580   0.00000  Uiso   1.00
C245   C     0.75980   0.77990   0.83550   0.00000  Uiso   1.00
C246   C     0.70310   0.71590   0.85220   0.00000  Uiso   1.00
C247   C     0.54190   0.55810   0.97450   0.00000  Uiso   1.00
C248   C     0.52400   0.56540   0.15090   0.00000  Uiso   1.00
C249   C     0.52300   0.55950   0.11580   0.00000  Uiso   1.00
H258   H     0.07410   0.40110   0.95770   0.00000  Uiso   1.00
H259   H     0.92410   0.20140   0.89750   0.00000  Uiso   1.00
H260   H     0.84050   0.10970   0.86420   0.00000  Uiso   1.00
H261   H     0.88160   0.22480   0.78160   0.00000  Uiso   1.00
H262   H     0.95930   0.31300   0.81380   0.00000  Uiso   1.00
H263   H     0.15360   0.47370   0.86360   0.00000  Uiso   1.00
H264   H     0.35910   0.63750   0.80380   0.00000  Uiso   1.00
H265   H     0.44550   0.73560   0.76970   0.00000  Uiso   1.00
H266   H     0.47620   0.84400   0.86250   0.00000  Uiso   1.00
H267   H     0.37800   0.75580   0.88980   0.00000  Uiso   1.00
H268   H     0.25040   0.58060   0.94910   0.00000  Uiso   1.00
H269   H     0.21350   0.60180   0.06730   0.00000  Uiso   1.00
H270   H     0.24580   0.60210   0.12650   0.00000  Uiso   1.00
H271   H     0.12050   0.40740   0.12840   0.00000  Uiso   1.00
H272   H     0.09860   0.40740   0.07150   0.00000  Uiso   1.00
H273   H     0.71100   0.77440   0.92940   0.00000  Uiso   1.00
H274   H     0.80750   0.87300   0.90510   0.00000  Uiso   1.00
H275   H     0.77080   0.78180   0.81170   0.00000  Uiso   1.00
H276   H     0.68090   0.67740   0.83920   0.00000  Uiso   1.00
H277   H     0.57000   0.59700   0.98620   0.00000  Uiso   1.00
H278   H     0.53810   0.60590   0.16360   0.00000  Uiso   1.00
H279   H     0.53970   0.60010   0.10360   0.00000  Uiso   1.00
Ag286  Ag    0.29940   0.03410   0.75660   0.00000  Uiso   1.00
S287   S     0.14020   0.18020   0.72530   0.00000  Uiso   1.00
F288   F     0.29580   0.26350   0.74040   0.00000  Uiso   1.00
F289   F     0.20450   0.29910   0.70660   0.00000  Uiso   1.00
F290   F     0.13780   0.29110   0.76040   0.00000  Uiso   1.00
O291   O     0.18340   0.14050   0.75840   0.00000  Uiso   1.00
O292   O     0.19660   0.16170   0.69460   0.00000  Uiso   1.00
O293   O     0.01980   0.17850   0.71890   0.00000  Uiso   1.00
N294   N     0.24620   0.93830   0.78490   0.00000  Uiso   1.00
N295   N     0.82950   0.48790   0.20380   0.00000  Uiso   1.00
N296   N     0.43590   0.09620   0.78380   0.00000  Uiso   1.00
N297   N     0.10740   0.06810   0.82510   0.00000  Uiso   1.00
C298   C     0.18940   0.27500   0.73260   0.00000  Uiso   1.00
C299   C     0.89250   0.56440   0.94400   0.00000  Uiso   1.00
C300   C     0.89820   0.57250   0.90910   0.00000  Uiso   1.00
C301   C     0.95420   0.62830   0.89020   0.00000  Uiso   1.00
C302   C     0.00020   0.67870   0.87400   0.00000  Uiso   1.00
C303   C     0.05410   0.73270   0.85770   0.00000  Uiso   1.00
C304   C     0.08580   0.79350   0.87390   0.00000  Uiso   1.00
C305   C     0.13440   0.84910   0.85390   0.00000  Uiso   1.00
C306   C     0.14200   0.83930   0.82000   0.00000  Uiso   1.00
C307   C     0.19810   0.89570   0.80320   0.00000  Uiso   1.00
C308   C     0.11020   0.78080   0.80530   0.00000  Uiso   1.00
C309   C     0.06470   0.72780   0.82480   0.00000  Uiso   1.00
C310   C     0.84360   0.52120   0.88750   0.00000  Uiso   1.00
C311   C     0.78390   0.46110   0.90240   0.00000  Uiso   1.00
C312   C     0.72950   0.41090   0.88230   0.00000  Uiso   1.00
C313   C     0.68200   0.36730   0.86640   0.00000  Uiso   1.00
C314   C     0.63290   0.30760   0.84960   0.00000  Uiso   1.00
C315   C     0.61900   0.32040   0.81400   0.00000  Uiso   1.00
C316   C     0.56660   0.26150   0.79340   0.00000  Uiso   1.00
C317   C     0.53510   0.19720   0.81430   0.00000  Uiso   1.00
C318   C     0.47350   0.13920   0.79580   0.00000  Uiso   1.00
C319   C     0.55030   0.19430   0.85010   0.00000  Uiso   1.00
C320   C     0.60440   0.24840   0.86650   0.00000  Uiso   1.00
C321   C     0.78560   0.45710   0.93840   0.00000  Uiso   1.00
C322   C     0.84170   0.51000   0.96000   0.00000  Uiso   1.00
C323   C     0.83600   0.50490   0.99490   0.00000  Uiso   1.00
C324   C     0.83230   0.49950   0.02580   0.00000  Uiso   1.00
C325   C     0.82820   0.49640   0.06390   0.00000  Uiso   1.00
C326   C     0.79930   0.43870   0.08010   0.00000  Uiso   1.00
C327   C     0.78720   0.43630   0.11560   0.00000  Uiso   1.00
C328   C     0.82680   0.49420   0.13450   0.00000  Uiso   1.00
C329   C     0.82550   0.49070   0.17570   0.00000  Uiso   1.00
C330   C     0.86110   0.55230   0.11610   0.00000  Uiso   1.00
C331   C     0.86930   0.55420   0.08270   0.00000  Uiso   1.00
C332   C     0.46040   0.44500   0.93650   0.00000  Uiso   1.00
C333   C     0.41230   0.38560   0.91890   0.00000  Uiso   1.00
C334   C     0.37260   0.33530   0.90370   0.00000  Uiso   1.00
C335   C     0.31400   0.28230   0.88810   0.00000  Uiso   1.00
C336   C     0.27650   0.22540   0.90570   0.00000  Uiso   1.00
C337   C     0.21870   0.16400   0.89160   0.00000  Uiso   1.00
C338   C     0.20680   0.16680   0.85570   0.00000  Uiso   1.00
C339   C     0.15020   0.11340   0.83580   0.00000  Uiso   1.00
C340   C     0.24020   0.22010   0.83550   0.00000  Uiso   1.00
C341   C     0.29690   0.28410   0.85220   0.00000  Uiso   1.00
C342   C     0.45810   0.44190   0.97450   0.00000  Uiso   1.00
C343   C     0.47600   0.43460   0.15090   0.00000  Uiso   1.00
C344   C     0.47700   0.44050   0.11580   0.00000  Uiso   1.00
H353   H     0.92590   0.59890   0.95770   0.00000  Uiso   1.00
H354   H     0.07590   0.79860   0.89750   0.00000  Uiso   1.00
H355   H     0.15950   0.89030   0.86420   0.00000  Uiso   1.00
H356   H     0.11840   0.77520   0.78160   0.00000  Uiso   1.00
H357   H     0.04070   0.68700   0.81380   0.00000  Uiso   1.00
H358   H     0.84640   0.52630   0.86360   0.00000  Uiso   1.00
H359   H     0.64090   0.36250   0.80380   0.00000  Uiso   1.00
H360   H     0.55450   0.26440   0.76970   0.00000  Uiso   1.00
H361   H     0.52380   0.15600   0.86250   0.00000  Uiso   1.00
H362   H     0.62200   0.24420   0.88980   0.00000  Uiso   1.00
H363   H     0.74960   0.41940   0.94910   0.00000  Uiso   1.00
H364   H     0.78650   0.39820   0.06730   0.00000  Uiso   1.00
H365   H     0.75420   0.39790   0.12650   0.00000  Uiso   1.00
H366   H     0.87950   0.59260   0.12840   0.00000  Uiso   1.00
H367   H     0.90140   0.59260   0.07150   0.00000  Uiso   1.00
H368   H     0.28900   0.22560   0.92940   0.00000  Uiso   1.00
H369   H     0.19250   0.12700   0.90510   0.00000  Uiso   1.00
H370   H     0.22920   0.21820   0.81170   0.00000  Uiso   1.00
H371   H     0.31910   0.32260   0.83920   0.00000  Uiso   1.00
H372   H     0.43000   0.40300   0.98620   0.00000  Uiso   1.00
H373   H     0.46190   0.39410   0.16360   0.00000  Uiso   1.00
H374   H     0.46030   0.39990   0.10360   0.00000  Uiso   1.00
Ag381  Ag    0.50000   0.50000   0.29000   0.00000  Uiso   1.00
Ag384  Ag    0.00000   0.00000   0.79000   0.00000  Uiso   1.00
N387   N     0.00000   0.00000   0.73330   0.00000  Uiso   1.00
C388   C     0.00000   0.00000   0.41930   0.00000  Uiso   1.00
C389   C     0.00000   0.00000   0.49190   0.00000  Uiso   1.00
C390   C     0.00000   0.00000   0.52980   0.00000  Uiso   1.00
C391   C     0.00000   0.00000   0.59610   0.00000  Uiso   1.00
C392   C     0.00000   0.00000   0.56070   0.00000  Uiso   1.00
C393   C     0.00000   0.00000   0.66410   0.00000  Uiso   1.00
C394   C     0.00000   0.00000   0.69940   0.00000  Uiso   1.00
H395   H     0.00000   0.00000   0.39530   0.00000  Uiso   1.00
N396   N     0.50000   0.50000   0.23330   0.00000  Uiso   1.00
C397   C     0.50000   0.50000   0.91930   0.00000  Uiso   1.00
C398   C     0.50000   0.50000   0.99190   0.00000  Uiso   1.00
C399   C     0.50000   0.50000   0.02980   0.00000  Uiso   1.00
C400   C     0.50000   0.50000   0.09610   0.00000  Uiso   1.00
C401   C     0.50000   0.50000   0.06070   0.00000  Uiso   1.00
C402   C     0.50000   0.50000   0.16410   0.00000  Uiso   1.00
C403   C     0.50000   0.50000   0.19940   0.00000  Uiso   1.00
H404   H     0.50000   0.50000   0.89530   0.00000  Uiso   1.00
loop_
_geom_bond_atom_site_label_1
_geom_bond_atom_site_label_2
_geom_bond_distance
_geom_bond_site_symmetry_2
_ccdc_geom_bond_type
Ag1    N9      2.220   .     S
Ag1    N11     2.241   .     S
Ag1    N200    2.118   .     S
S2     O6      1.572   .     S
S2     O7      1.403   .     D
S2     O8      1.418   .     D
S2     C13     1.919   .     S
F3     C13     1.289   .     S
F4     C13     1.121   .     S
F5     C13     1.270   .     S
N9     C22     1.215   .     T
N10    C44     1.091   .     T
N10    Ag191   2.118   .     S
N11    C33     1.040   .     T
N12    C54     1.080   .     T
N12    Ag381   2.256   .     S
C14    C15     1.363   .     A
C14    C37     1.346   .     A
C14    H68     0.931   .     S
C15    C16     1.447   .     S
C15    C25     1.436   .     A
C16    C17     1.267   .     T
C17    C18     1.361   .     S
C18    C19     1.370   .     A
C18    C24     1.284   .     A
C19    C20     1.430   .     A
C19    H69     0.927   .     S
C20    C21     1.330   .     A
C20    H70     0.929   .     S
C21    C22     1.417   .     S
C21    C23     1.307   .     A
C23    C24     1.369   .     A
C23    H71     0.929   .     S
C24    H72     0.931   .     S
C25    H73     0.932   .     S
C25    C26     1.459   1_545 S
C26    C27     1.387   .     S
C26    C36     1.397   .     A
C26    C25     1.459   1_565 S
C27    C28     1.173   .     T
C28    C29     1.431   .     S
C29    C30     1.410   .     A
C29    C35     1.348   .     A
C30    C31     1.507   .     A
C30    H74     0.931   .     S
C31    C32     1.516   .     A
C31    H75     0.931   .     S
C32    C34     1.399   .     A
C32    C33     1.500   1_655 S
C33    C32     1.500   1_455 S
C34    C35     1.366   .     A
C34    H76     0.928   .     S
C35    H77     0.929   .     S
C36    H78     0.930   .     S
C36    C37     1.464   1_565 D
C37    C38     1.357   .     S
C37    C36     1.464   1_545 D
C38    C39     1.203   1_545 S
C39    C40     1.478   .     S
C39    C38     1.203   1_565 S
C40    C41     1.312   .     A
C40    C46     1.406   1_565 S
C41    C42     1.383   .     A
C41    H79     0.931   .     S
C42    C43     1.404   .     A
C42    H80     0.929   .     S
C43    C44     1.598   .     S
C43    C45     1.378   1_565 S
C45    C46     1.298   .     A
C45    H81     0.930   .     S
C45    C43     1.378   1_545 S
C46    H82     0.930   .     S
C46    C40     1.406   1_545 S
C47    C48     1.436   .     S
C47    C57     1.474   .     A
C47    C388    1.326   1_565 S
C48    C49     1.217   .     T
C49    C50     1.361   .     S
C50    C51     1.355   .     A
C50    C56     1.406   .     A
C51    C52     1.457   .     A
C51    H83     0.930   .     S
C52    C53     1.399   .     A
C52    H84     0.930   .     S
C53    C54     1.437   .     S
C53    C55     1.341   .     A
C55    C56     1.531   .     A
C55    H85     0.932   .     S
C56    H86     0.928   .     S
C57    H87     0.929   .     S
C57    C389    1.386   1_565 T
C58    C59     1.365   .     A
C58    H88     0.931   .     S
C58    C393    1.378   1_565 T
C59    H89     0.929   .     S
C59    C391    1.395   1_565 S
Ag96   N104    2.220   .     S
Ag96   N106    2.241   .     S
Ag96   N295    2.118   .     S
S97    O101    1.572   .     S
S97    O102    1.403   .     D
S97    O103    1.418   .     D
S97    C108    1.919   .     S
F98    C108    1.289   .     S
F99    C108    1.121   .     S
F100   C108    1.270   .     S
N104   C117    1.215   .     T
N105   C139    1.091   .     T
N105   Ag286   2.118   .     S
N106   C128    1.040   .     T
N107   C149    1.080   .     T
N107   Ag381   2.256   .     S
C109   C110    1.363   .     A
C109   C132    1.346   .     A
C109   H163    0.931   .     S
C110   C111    1.447   .     S
C110   C120    1.436   .     A
C111   C112    1.267   .     T
C112   C113    1.361   .     S
C113   C114    1.370   .     A
C113   C119    1.284   .     A
C114   C115    1.430   .     A
C114   H164    0.927   .     S
C115   C116    1.330   .     A
C115   H165    0.929   .     S
C116   C117    1.417   .     S
C116   C118    1.307   .     A
C118   C119    1.369   .     A
C118   H166    0.929   .     S
C119   H167    0.931   .     S
C120   H168    0.932   .     S
C120   C121    1.459   1_565 A
C121   C122    1.387   .     S
C121   C131    1.397   .     A
C121   C120    1.459   1_545 A
C122   C123    1.173   .     T
C123   C124    1.431   .     S
C124   C125    1.410   .     A
C124   C130    1.348   .     A
C125   C126    1.507   .     A
C125   H169    0.931   .     S
C126   C127    1.516   .     A
C126   H170    0.931   .     S
C127   C129    1.399   .     A
C127   C128    1.500   1_455 S
C128   C127    1.500   1_655 S
C129   C130    1.366   .     A
C129   H171    0.928   .     S
C130   H172    0.929   .     S
C131   H173    0.930   .     S
C131   C132    1.464   1_545 A
C132   C133    1.357   .     S
C132   C131    1.464   1_565 A
C133   C134    1.203   1_565 S
C134   C135    1.478   .     S
C134   C133    1.203   1_545 S
C135   C136    1.312   .     A
C135   C141    1.406   1_545 A
C136   C137    1.383   .     A
C136   H174    0.931   .     S
C137   C138    1.404   .     A
C137   H175    0.929   .     S
C138   C139    1.598   .     S
C138   C140    1.378   1_545 A
C140   C141    1.298   .     A
C140   H176    0.930   .     S
C140   C138    1.378   1_565 A
C141   H177    0.930   .     S
C141   C135    1.406   1_565 A
C142   C143    1.436   .     S
C142   C152    1.474   .     A
C142   C388    1.326   1_655 S
C143   C144    1.217   .     T
C144   C145    1.361   .     S
C145   C146    1.355   .     A
C145   C151    1.406   .     A
C146   C147    1.457   .     A
C146   H178    0.930   .     S
C147   C148    1.399   .     A
C147   H179    0.930   .     S
C148   C149    1.437   .     S
C148   C150    1.341   .     A
C150   C151    1.531   .     A
C150   H180    0.932   .     S
C151   H181    0.928   .     S
C152   H182    0.929   .     S
C152   C389    1.386   1_655 S
C153   C154    1.365   .     A
C153   H183    0.931   .     S
C153   C393    1.378   1_655 A
C154   H184    0.929   .     S
C154   C391    1.395   1_655 A
Ag191  N201    2.241   .     S
Ag191  N199    2.220   1_565 S
S192   O196    1.572   .     S
S192   O197    1.403   .     D
S192   O198    1.418   .     D
S192   C203    1.919   .     S
F193   C203    1.289   .     S
F194   C203    1.121   .     S
F195   C203    1.270   .     S
N199   C212    1.215   .     T
N199   Ag191   2.220   1_545 S
N200   C234    1.091   .     T
N201   C223    1.040   .     T
N202   C244    1.080   .     T
N202   Ag384   2.256   1_665 S
C204   C205    1.363   .     A
C204   C227    1.346   .     A
C204   H258    0.931   .     S
C205   C206    1.447   .     S
C205   C215    1.436   .     A
C206   C207    1.267   1_455 S
C207   C208    1.361   .     S
C207   C206    1.267   1_655 S
C208   C209    1.370   .     A
C208   C214    1.284   .     A
C209   C210    1.430   .     A
C209   H259    0.927   .     S
C210   C211    1.330   .     A
C210   H260    0.929   .     S
C211   C212    1.417   .     S
C211   C213    1.307   .     A
C213   C214    1.369   .     A
C213   H261    0.929   .     S
C214   H262    0.931   .     S
C215   C216    1.459   .     A
C215   H263    0.932   .     S
C216   C217    1.387   .     S
C216   C226    1.397   .     A
C217   C218    1.173   .     T
C218   C219    1.431   .     S
C219   C220    1.410   .     A
C219   C225    1.348   .     A
C220   C221    1.507   .     A
C220   H264    0.931   .     S
C221   C222    1.516   .     A
C221   H265    0.931   .     S
C222   C223    1.500   .     S
C222   C224    1.399   .     A
C224   C225    1.366   .     A
C224   H266    0.928   .     S
C225   H267    0.929   .     S
C226   C227    1.464   .     A
C226   H268    0.930   .     S
C227   C228    1.357   .     S
C228   C229    1.203   1_556 T
C229   C230    1.478   .     S
C229   C228    1.203   1_554 T
C230   C231    1.312   .     A
C230   C236    1.406   .     A
C231   C232    1.383   .     A
C231   H269    0.931   .     S
C232   C233    1.404   .     A
C232   H270    0.929   .     S
C233   C234    1.598   .     S
C233   C235    1.378   .     A
C235   C236    1.298   .     A
C235   H271    0.930   .     S
C236   H272    0.930   .     S
C237   C238    1.436   .     S
C237   C247    1.474   .     A
C237   C397    1.326   .     A
C238   C239    1.217   .     T
C239   C240    1.361   .     S
C240   C241    1.355   .     A
C240   C246    1.406   .     A
C241   C242    1.457   .     A
C241   H273    0.930   .     S
C242   C243    1.399   .     A
C242   H274    0.930   .     S
C243   C244    1.437   .     S
C243   C245    1.341   .     A
C245   C246    1.531   .     A
C245   H275    0.932   .     S
C246   H276    0.928   .     S
C247   H277    0.929   .     S
C247   C398    1.386   .     A
C248   C249    1.365   .     A
C248   H278    0.931   .     S
C248   C402    1.378   .     A
C249   H279    0.929   .     S
C249   C400    1.395   .     A
Ag286  N296    2.241   .     S
Ag286  N294    2.220   1_545 A
S287   O291    1.572   .     S
S287   O292    1.403   .     D
S287   O293    1.418   .     D
S287   C298    1.919   .     S
F288   C298    1.289   .     S
F289   C298    1.121   .     S
F290   C298    1.270   .     S
N294   C307    1.215   .     T
N294   Ag286   2.220   1_565 A
N295   C329    1.091   .     T
N296   C318    1.040   .     T
N297   C339    1.080   .     T
N297   Ag384   2.256   .     S
C299   C300    1.363   .     A
C299   C322    1.346   .     A
C299   H353    0.931   .     S
C300   C301    1.447   .     S
C300   C310    1.436   .     A
C301   C302    1.267   1_655 A
C302   C303    1.361   .     S
C302   C301    1.267   1_455 A
C303   C304    1.370   .     A
C303   C309    1.284   .     A
C304   C305    1.430   .     A
C304   H354    0.927   .     S
C305   C306    1.330   .     A
C305   H355    0.929   .     S
C306   C307    1.417   .     S
C306   C308    1.307   .     A
C308   C309    1.369   .     A
C308   H356    0.929   .     S
C309   H357    0.931   .     S
C310   C311    1.459   .     A
C310   H358    0.932   .     S
C311   C312    1.387   .     S
C311   C321    1.397   .     A
C312   C313    1.173   .     T
C313   C314    1.431   .     S
C314   C315    1.410   .     A
C314   C320    1.348   .     A
C315   C316    1.507   .     A
C315   H359    0.931   .     S
C316   C317    1.516   .     A
C316   H360    0.931   .     S
C317   C318    1.500   .     S
C317   C319    1.399   .     A
C319   C320    1.366   .     A
C319   H361    0.928   .     S
C320   H362    0.929   .     S
C321   C322    1.464   .     A
C321   H363    0.930   .     S
C322   C323    1.357   .     S
C323   C324    1.203   1_556 A
C324   C325    1.478   .     S
C324   C323    1.203   1_554 A
C325   C326    1.312   .     A
C325   C331    1.406   .     A
C326   C327    1.383   .     A
C326   H364    0.931   .     S
C327   C328    1.404   .     A
C327   H365    0.929   .     S
C328   C329    1.598   .     S
C328   C330    1.378   .     A
C330   C331    1.298   .     A
C330   H366    0.930   .     S
C331   H367    0.930   .     S
C332   C333    1.436   .     S
C332   C342    1.474   .     A
C332   C397    1.326   .     A
C333   C334    1.217   .     T
C334   C335    1.361   .     S
C335   C336    1.355   .     A
C335   C341    1.406   .     A
C336   C337    1.457   .     A
C336   H368    0.930   .     S
C337   C338    1.399   .     A
C337   H369    0.930   .     S
C338   C339    1.437   .     S
C338   C340    1.341   .     A
C340   C341    1.531   .     A
C340   H370    0.932   .     S
C341   H371    0.928   .     S
C342   H372    0.929   .     S
C342   C398    1.386   .     A
C343   C344    1.365   .     A
C343   H373    0.931   .     S
C343   C402    1.378   .     A
C344   H374    0.929   .     S
C344   C400    1.395   .     A
Ag381  N396    2.197   .     S
Ag384  N387    2.197   .     S
Ag384  N202    2.256   1_445 S
N387   C394    1.314   .     T
C388   H395    0.930   .     S
C388   C47     1.326   1_545 S
C388   C142    1.326   1_455 S
C389   C390    1.469   .     S
C389   C57     1.386   1_545 T
C389   C152    1.386   1_455 S
C390   C392    1.197   .     T
C391   C392    1.372   .     S
C391   C59     1.395   1_545 S
C391   C154    1.395   1_455 A
C393   C394    1.368   .     S
C393   C58     1.378   1_545 T
C393   C153    1.378   1_455 A
N396   C403    1.314   .     T
C397   H404    0.930   .     S
C398   C399    1.469   1_556 S
C399   C401    1.197   .     T
C399   C398    1.469   1_554 S
C400   C401    1.372   .     S
C402   C403    1.368   .     S
