data_image0
_cell_length_a       9.574
_cell_length_b       14
_cell_length_c       17.435
_cell_angle_alpha    90
_cell_angle_beta     90
_cell_angle_gamma    90

_symmetry_space_group_name_H-M    "P 1"
_symmetry_int_tables_number       1

loop_
  _symmetry_equiv_pos_as_xyz
  'x, y, z'

loop_
  _atom_site_label
  _atom_site_occupancy
  _atom_site_fract_x
  _atom_site_fract_y
  _atom_site_fract_z
  _atom_site_thermal_displace_type
  _atom_site_B_iso_or_equiv
  _atom_site_type_symbol
  Ga1      1.0000 0.22463  0.29395  0.69846  Biso   1.000  Ga
  Ga2      1.0000 0.45118  0.50175  0.45624  Biso   1.000  Ga
  Ga3      1.0000 0.24554  0.20719  0.47185  Biso   1.000  Ga
  Ga4      1.0000 0.46107  0.51150  0.92710  Biso   1.000  Ga
  P1       1.0000 0.25470  0.34939  0.87405  Biso   1.000  P
  P2       1.0000 0.22190  0.42018  0.55107  Biso   1.000  P
  P3       1.0000 0.48320  0.21287  0.61963  Biso   1.000  P
  P4       1.0000 0.76340  0.52288  0.51133  Biso   1.000  P
  P5       1.0000 0.00220  0.18191  0.60985  Biso   1.000  P
  O1       1.0000 0.19030  0.33900  0.79420  Biso   1.000  O
  O2       1.0000 0.40120  0.24630  0.69270  Biso   1.000  O
  O3       1.0000 0.08960  0.20400  0.68300  Biso   1.000  O
  O4       1.0000 0.19610  0.39700  0.63590  Biso   1.000  O
  O5       1.0000 0.36700  0.46730  0.54660  Biso   1.000  O
  O6       1.0000 0.13740  0.38730  0.92600  Biso   1.000  O
  O7       1.0000 0.61840  0.55300  0.48300  Biso   1.000  O
  O8       1.0000 0.93370  0.08190  0.62430  Biso   1.000  O
  O9       1.0000 0.20890  0.33850  0.49760  Biso   1.000  O
  O10      1.0000 0.60290  0.28250  0.60940  Biso   1.000  O
  O11      1.0000 0.38600  0.20270  0.55270  Biso   1.000  O
  O12      1.0000 0.76900  0.42970  0.55410  Biso   1.000  O
  O13      1.0000 0.89250  0.25940  0.60210  Biso   1.000  O
  O14      1.0000 0.09500  0.16550  0.54100  Biso   1.000  O
  O15      1.0000 0.37490  0.42100  0.86790  Biso   1.000  O
  O16      1.0000 0.11130  0.49310  0.52440  Biso   1.000  O
  O17      1.0000 0.54110  0.11220  0.63880  Biso   1.000  O
  O18      1.0000 0.85700  0.52450  0.43990  Biso   1.000  O
  O19      1.0000 0.30780  0.25640  0.90480  Biso   1.000  O
  O20      1.0000 0.81210  0.59970  0.56850  Biso   1.000  O
  Ga5      1.0000 0.27537  0.70605  0.19846  Biso   1.000  Ga
  Ga6      1.0000 0.04882  0.49825  0.95624  Biso   1.000  Ga
  Ga7      1.0000 0.25446  0.79281  0.97185  Biso   1.000  Ga
  Ga8      1.0000 0.03893  0.48850  0.42710  Biso   1.000  Ga
  P6       1.0000 0.24530  0.65061  0.37405  Biso   1.000  P
  P7       1.0000 0.27810  0.57982  0.05107  Biso   1.000  P
  P8       1.0000 0.01680  0.78713  0.11963  Biso   1.000  P
  P9       1.0000 0.73660  0.47712  0.01133  Biso   1.000  P
  P10      1.0000 0.49780  0.81809  0.10985  Biso   1.000  P
  O21      1.0000 0.30970  0.66100  0.29420  Biso   1.000  O
  O22      1.0000 0.09880  0.75370  0.19270  Biso   1.000  O
  O23      1.0000 0.41040  0.79600  0.18300  Biso   1.000  O
  O24      1.0000 0.30390  0.60300  0.13590  Biso   1.000  O
  O25      1.0000 0.13300  0.53270  0.04660  Biso   1.000  O
  O26      1.0000 0.36260  0.61270  0.42600  Biso   1.000  O
  O27      1.0000 0.88160  0.44700  0.98300  Biso   1.000  O
  O28      1.0000 0.56630  0.91810  0.12430  Biso   1.000  O
  O29      1.0000 0.29110  0.66150  0.99760  Biso   1.000  O
  O30      1.0000 0.89710  0.71750  0.10940  Biso   1.000  O
  O31      1.0000 0.11400  0.79730  0.05270  Biso   1.000  O
  O32      1.0000 0.73100  0.57030  0.05410  Biso   1.000  O
  O33      1.0000 0.60750  0.74060  0.10210  Biso   1.000  O
  O34      1.0000 0.40500  0.83450  0.04100  Biso   1.000  O
  O35      1.0000 0.12510  0.57900  0.36790  Biso   1.000  O
  O36      1.0000 0.38870  0.50690  0.02440  Biso   1.000  O
  O37      1.0000 0.95890  0.88780  0.13880  Biso   1.000  O
  O38      1.0000 0.64300  0.47550  0.93990  Biso   1.000  O
  O39      1.0000 0.19220  0.74360  0.40480  Biso   1.000  O
  O40      1.0000 0.68790  0.40030  0.06850  Biso   1.000  O
  Ga9      1.0000 0.77537  0.79395  0.80154  Biso   1.000  Ga
  Ga10     1.0000 0.54882  0.00175  0.04376  Biso   1.000  Ga
  Ga11     1.0000 0.75446  0.70719  0.02815  Biso   1.000  Ga
  Ga12     1.0000 0.53893  0.01150  0.57290  Biso   1.000  Ga
  P11      1.0000 0.74530  0.84939  0.62595  Biso   1.000  P
  P12      1.0000 0.77810  0.92018  0.94893  Biso   1.000  P
  P13      1.0000 0.51680  0.71287  0.88037  Biso   1.000  P
  P14      1.0000 0.23660  0.02288  0.98867  Biso   1.000  P
  P15      1.0000 0.99780  0.68191  0.89015  Biso   1.000  P
  O41      1.0000 0.80970  0.83900  0.70580  Biso   1.000  O
  O42      1.0000 0.59880  0.74630  0.80730  Biso   1.000  O
  O43      1.0000 0.91040  0.70400  0.81700  Biso   1.000  O
  O44      1.0000 0.80390  0.89700  0.86410  Biso   1.000  O
  O45      1.0000 0.63300  0.96730  0.95340  Biso   1.000  O
  O46      1.0000 0.86260  0.88730  0.57400  Biso   1.000  O
  O47      1.0000 0.38160  0.05300  0.01700  Biso   1.000  O
  O48      1.0000 0.06630  0.58190  0.87570  Biso   1.000  O
  O49      1.0000 0.79110  0.83850  0.00240  Biso   1.000  O
  O50      1.0000 0.39710  0.78250  0.89060  Biso   1.000  O
  O51      1.0000 0.61400  0.70270  0.94730  Biso   1.000  O
  O52      1.0000 0.23100  0.92970  0.94590  Biso   1.000  O
  O53      1.0000 0.10750  0.75940  0.89790  Biso   1.000  O
  O54      1.0000 0.90500  0.66550  0.95900  Biso   1.000  O
  O55      1.0000 0.62510  0.92100  0.63210  Biso   1.000  O
  O56      1.0000 0.88870  0.99310  0.97560  Biso   1.000  O
  O57      1.0000 0.45890  0.61220  0.86120  Biso   1.000  O
  O58      1.0000 0.14300  0.02450  0.06010  Biso   1.000  O
  O59      1.0000 0.69220  0.75640  0.59520  Biso   1.000  O
  O60      1.0000 0.18790  0.09970  0.93150  Biso   1.000  O
  Ga13     1.0000 0.72463  0.20605  0.30154  Biso   1.000  Ga
  Ga14     1.0000 0.95118  0.99825  0.54376  Biso   1.000  Ga
  Ga15     1.0000 0.74554  0.29281  0.52815  Biso   1.000  Ga
  Ga16     1.0000 0.96107  0.98850  0.07290  Biso   1.000  Ga
  P16      1.0000 0.75470  0.15061  0.12595  Biso   1.000  P
  P17      1.0000 0.72190  0.07982  0.44893  Biso   1.000  P
  P18      1.0000 0.98320  0.28713  0.38037  Biso   1.000  P
  P19      1.0000 0.26340  0.97712  0.48867  Biso   1.000  P
  P20      1.0000 0.50220  0.31809  0.39015  Biso   1.000  P
  O61      1.0000 0.69030  0.16100  0.20580  Biso   1.000  O
  O62      1.0000 0.90120  0.25370  0.30730  Biso   1.000  O
  O63      1.0000 0.58960  0.29600  0.31700  Biso   1.000  O
  O64      1.0000 0.69610  0.10300  0.36410  Biso   1.000  O
  O65      1.0000 0.86700  0.03270  0.45340  Biso   1.000  O
  O66      1.0000 0.63740  0.11270  0.07400  Biso   1.000  O
  O67      1.0000 0.11840  0.94700  0.51700  Biso   1.000  O
  O68      1.0000 0.43370  0.41810  0.37570  Biso   1.000  O
  O69      1.0000 0.70890  0.16150  0.50240  Biso   1.000  O
  O70      1.0000 0.10290  0.21750  0.39060  Biso   1.000  O
  O71      1.0000 0.88600  0.29730  0.44730  Biso   1.000  O
  O72      1.0000 0.26900  0.07030  0.44590  Biso   1.000  O
  O73      1.0000 0.39250  0.24060  0.39790  Biso   1.000  O
  O74      1.0000 0.59500  0.33450  0.45900  Biso   1.000  O
  O75      1.0000 0.87490  0.07900  0.13210  Biso   1.000  O
  O76      1.0000 0.61130  0.00690  0.47560  Biso   1.000  O
  O77      1.0000 0.04110  0.38780  0.36120  Biso   1.000  O
  O78      1.0000 0.35700  0.97550  0.56010  Biso   1.000  O
  O79      1.0000 0.80780  0.24360  0.09520  Biso   1.000  O
  O80      1.0000 0.31210  0.90030  0.43150  Biso   1.000  O
