data_ZADDAJ_clean
_audit_creation_date              2014-07-02
_audit_creation_method            'Materials Studio'
_symmetry_space_group_name_H-M    'P1'
_symmetry_Int_Tables_number       1
_symmetry_cell_setting            triclinic
loop_
_symmetry_equiv_pos_as_xyz
  x,y,z
_cell_length_a                    7.8920
_cell_length_b                    9.2720
_cell_length_c                    11.9420
_cell_angle_alpha                 104.7500
_cell_angle_beta                  101.6900
_cell_angle_gamma                 107.9200
loop_
_atom_site_label
_atom_site_type_symbol
_atom_site_fract_x
_atom_site_fract_y
_atom_site_fract_z
_atom_site_U_iso_or_equiv
_atom_site_adp_type
_atom_site_occupancy
Li1    Li    0.43510   0.93510   0.60220   0.01267  Uiso   1.00
Li2    Li    0.47390   0.92800   0.10300   0.01267  Uiso   1.00
Li3    Li    0.56490   0.06490   0.39780   0.01267  Uiso   1.00
Li4    Li    0.52610   0.07200   0.89700   0.01267  Uiso   1.00
Fe1    Fe    0.79114   0.58605   0.77376   0.01267  Uiso   1.00
Fe2    Fe    0.20886   0.41395   0.22624   0.01267  Uiso   1.00
C1     C     0.54440   0.27040   0.71380   0.01267  Uiso   1.00
C2     C     0.70600   0.25600   0.66400   0.01267  Uiso   1.00
C3     C     0.16240   0.80020   0.89870   0.01267  Uiso   1.00
C4     C     0.09180   0.72680   0.99060   0.01267  Uiso   1.00
C5     C     0.61500   0.80220   0.75080   0.01267  Uiso   1.00
C6     C     0.62150   0.72200   0.62260   0.01267  Uiso   1.00
C7     C     0.45560   0.72960   0.28620   0.01267  Uiso   1.00
C8     C     0.29400   0.74400   0.33600   0.01267  Uiso   1.00
C9     C     0.83760   0.19980   0.10130   0.01267  Uiso   1.00
C10    C     0.90820   0.27320   0.00940   0.01267  Uiso   1.00
C11    C     0.38500   0.19780   0.24920   0.01267  Uiso   1.00
C12    C     0.37850   0.27800   0.37740   0.01267  Uiso   1.00
O1     O     0.56070   0.41320   0.76780   0.01267  Uiso   1.00
O2     O     0.84260   0.39040   0.69040   0.01267  Uiso   1.00
O3     O     0.41450   0.14540   0.69910   0.01267  Uiso   1.00
O4     O     0.69330   0.12180   0.60350   0.01267  Uiso   1.00
O5     O     0.04780   0.74070   0.79090   0.01267  Uiso   1.00
O6     O     0.92040   0.62650   0.94840   0.01267  Uiso   1.00
O7     O     0.31800   0.90740   0.93330   0.01267  Uiso   1.00
O8     O     0.19790   0.76750   0.09280   0.01267  Uiso   1.00
O9     O     0.68920   0.75610   0.83340   0.01267  Uiso   1.00
O10    O     0.70130   0.61970   0.61660   0.01267  Uiso   1.00
O11    O     0.54260   0.90270   0.76410   0.01267  Uiso   1.00
O12    O     0.55380   0.76070   0.53880   0.01267  Uiso   1.00
O13    O     0.43930   0.58680   0.23220   0.01267  Uiso   1.00
O14    O     0.15740   0.60960   0.30960   0.01267  Uiso   1.00
O15    O     0.58550   0.85460   0.30090   0.01267  Uiso   1.00
O16    O     0.30670   0.87820   0.39650   0.01267  Uiso   1.00
O17    O     0.95220   0.25930   0.20910   0.01267  Uiso   1.00
O18    O     0.07960   0.37350   0.05160   0.01267  Uiso   1.00
O19    O     0.68200   0.09260   0.06670   0.01267  Uiso   1.00
O20    O     0.80210   0.23250   0.90720   0.01267  Uiso   1.00
O21    O     0.31080   0.24390   0.16660   0.01267  Uiso   1.00
O22    O     0.29870   0.38030   0.38340   0.01267  Uiso   1.00
O23    O     0.45740   0.09730   0.23590   0.01267  Uiso   1.00
O24    O     0.44620   0.23930   0.46120   0.01267  Uiso   1.00
