data_image0
_cell_length_a       18.5353
_cell_length_b       18.5353
_cell_length_c       18.5353
_cell_angle_alpha    90
_cell_angle_beta     90
_cell_angle_gamma    90

_symmetry_space_group_name_H-M    "P 1"
_symmetry_int_tables_number       1

loop_
  _symmetry_equiv_pos_as_xyz
  'x, y, z'

loop_
  _atom_site_label
  _atom_site_occupancy
  _atom_site_fract_x
  _atom_site_fract_y
  _atom_site_fract_z
  _atom_site_thermal_displace_type
  _atom_site_B_iso_or_equiv
  _atom_site_type_symbol
  Y1       1.0000 0.98683  0.48770  0.85358  Biso   1.000  Y
  O1       1.0000 0.06740  0.55550  0.92040  Biso   1.000  O
  O2       1.0000 0.97610  0.29110  0.90560  Biso   1.000  O
  O3       1.0000 0.78970  0.51000  0.90440  Biso   1.000  O
  O4       1.0000 0.86910  0.49320  0.81140  Biso   1.000  O
  O5       1.0000 0.97580  0.37000  0.81120  Biso   1.000  O
  C1       1.0000 0.97660  0.30900  0.83800  Biso   1.000  C
  C2       1.0000 0.74460  0.50140  0.78550  Biso   1.000  C
  H1       1.0000 0.69760  0.50140  0.80290  Biso   1.000  H
  C3       1.0000 0.97500  0.24570  0.78530  Biso   1.000  C
  H2       1.0000 0.97390  0.19910  0.80380  Biso   1.000  H
  C4       1.0000 0.80620  0.50130  0.83870  Biso   1.000  C
  Y2       1.0000 0.51317  0.01230  0.85358  Biso   1.000  Y
  O6       1.0000 0.43260  0.94450  0.92040  Biso   1.000  O
  O7       1.0000 0.52390  0.20890  0.90560  Biso   1.000  O
  O8       1.0000 0.71030  0.99000  0.90440  Biso   1.000  O
  O9       1.0000 0.63090  0.00680  0.81140  Biso   1.000  O
  O10      1.0000 0.52420  0.13000  0.81120  Biso   1.000  O
  C5       1.0000 0.52340  0.19100  0.83800  Biso   1.000  C
  C6       1.0000 0.75540  0.99860  0.78550  Biso   1.000  C
  H3       1.0000 0.80240  0.99860  0.80290  Biso   1.000  H
  C7       1.0000 0.52500  0.25430  0.78530  Biso   1.000  C
  H4       1.0000 0.52610  0.30090  0.80380  Biso   1.000  H
  C8       1.0000 0.69380  0.99870  0.83870  Biso   1.000  C
  Y3       1.0000 0.51317  0.48770  0.64642  Biso   1.000  Y
  O11      1.0000 0.43260  0.55550  0.57960  Biso   1.000  O
  O12      1.0000 0.52390  0.29110  0.59440  Biso   1.000  O
  O13      1.0000 0.71030  0.51000  0.59560  Biso   1.000  O
  O14      1.0000 0.63090  0.49320  0.68860  Biso   1.000  O
  O15      1.0000 0.52420  0.37000  0.68880  Biso   1.000  O
  C9       1.0000 0.52340  0.30900  0.66200  Biso   1.000  C
  C10      1.0000 0.75540  0.50140  0.71450  Biso   1.000  C
  H5       1.0000 0.80240  0.50140  0.69710  Biso   1.000  H
  C11      1.0000 0.52500  0.24570  0.71470  Biso   1.000  C
  H6       1.0000 0.52610  0.19910  0.69620  Biso   1.000  H
  C12      1.0000 0.69380  0.50130  0.66130  Biso   1.000  C
  Y4       1.0000 0.98683  0.01230  0.64642  Biso   1.000  Y
  O16      1.0000 0.06740  0.94450  0.57960  Biso   1.000  O
  O17      1.0000 0.97610  0.20890  0.59440  Biso   1.000  O
  O18      1.0000 0.78970  0.99000  0.59560  Biso   1.000  O
  O19      1.0000 0.86910  0.00680  0.68860  Biso   1.000  O
  O20      1.0000 0.97580  0.13000  0.68880  Biso   1.000  O
  C13      1.0000 0.97660  0.19100  0.66200  Biso   1.000  C
  C14      1.0000 0.74460  0.99860  0.71450  Biso   1.000  C
  H7       1.0000 0.69760  0.99860  0.69710  Biso   1.000  H
  C15      1.0000 0.97500  0.25430  0.71470  Biso   1.000  C
  H8       1.0000 0.97390  0.30090  0.69620  Biso   1.000  H
  C16      1.0000 0.80620  0.99870  0.66130  Biso   1.000  C
  Y5       1.0000 0.85358  0.98683  0.48770  Biso   1.000  Y
  O21      1.0000 0.92040  0.06740  0.55550  Biso   1.000  O
  O22      1.0000 0.90560  0.97610  0.29110  Biso   1.000  O
  O23      1.0000 0.90440  0.78970  0.51000  Biso   1.000  O
  O24      1.0000 0.81140  0.86910  0.49320  Biso   1.000  O
  O25      1.0000 0.81120  0.97580  0.37000  Biso   1.000  O
  C17      1.0000 0.83800  0.97660  0.30900  Biso   1.000  C
  C18      1.0000 0.78550  0.74460  0.50140  Biso   1.000  C
  H9       1.0000 0.80290  0.69760  0.50140  Biso   1.000  H
  C19      1.0000 0.78530  0.97500  0.24570  Biso   1.000  C
  H10      1.0000 0.80380  0.97390  0.19910  Biso   1.000  H
  C20      1.0000 0.83870  0.80620  0.50130  Biso   1.000  C
  Y6       1.0000 0.85358  0.51317  0.01230  Biso   1.000  Y
  O26      1.0000 0.92040  0.43260  0.94450  Biso   1.000  O
  O27      1.0000 0.90560  0.52390  0.20890  Biso   1.000  O
  O28      1.0000 0.90440  0.71030  0.99000  Biso   1.000  O
  O29      1.0000 0.81140  0.63090  0.00680  Biso   1.000  O
  O30      1.0000 0.81120  0.52420  0.13000  Biso   1.000  O
  C21      1.0000 0.83800  0.52340  0.19100  Biso   1.000  C
  C22      1.0000 0.78550  0.75540  0.99860  Biso   1.000  C
  H11      1.0000 0.80290  0.80240  0.99860  Biso   1.000  H
  C23      1.0000 0.78530  0.52500  0.25430  Biso   1.000  C
  H12      1.0000 0.80380  0.52610  0.30090  Biso   1.000  H
  C24      1.0000 0.83870  0.69380  0.99870  Biso   1.000  C
  Y7       1.0000 0.64642  0.51317  0.48770  Biso   1.000  Y
  O31      1.0000 0.57960  0.43260  0.55550  Biso   1.000  O
  O32      1.0000 0.59440  0.52390  0.29110  Biso   1.000  O
  O33      1.0000 0.59560  0.71030  0.51000  Biso   1.000  O
  O34      1.0000 0.68860  0.63090  0.49320  Biso   1.000  O
  O35      1.0000 0.68880  0.52420  0.37000  Biso   1.000  O
  C25      1.0000 0.66200  0.52340  0.30900  Biso   1.000  C
  C26      1.0000 0.71450  0.75540  0.50140  Biso   1.000  C
  H13      1.0000 0.69710  0.80240  0.50140  Biso   1.000  H
  C27      1.0000 0.71470  0.52500  0.24570  Biso   1.000  C
  H14      1.0000 0.69620  0.52610  0.19910  Biso   1.000  H
  C28      1.0000 0.66130  0.69380  0.50130  Biso   1.000  C
  Y8       1.0000 0.64642  0.98683  0.01230  Biso   1.000  Y
  O36      1.0000 0.57960  0.06740  0.94450  Biso   1.000  O
  O37      1.0000 0.59440  0.97610  0.20890  Biso   1.000  O
  O38      1.0000 0.59560  0.78970  0.99000  Biso   1.000  O
  O39      1.0000 0.68860  0.86910  0.00680  Biso   1.000  O
  O40      1.0000 0.68880  0.97580  0.13000  Biso   1.000  O
  C29      1.0000 0.66200  0.97660  0.19100  Biso   1.000  C
  C30      1.0000 0.71450  0.74460  0.99860  Biso   1.000  C
  H15      1.0000 0.69710  0.69760  0.99860  Biso   1.000  H
  C31      1.0000 0.71470  0.97500  0.25430  Biso   1.000  C
  H16      1.0000 0.69620  0.97390  0.30090  Biso   1.000  H
  C32      1.0000 0.66130  0.80620  0.99870  Biso   1.000  C
  Y9       1.0000 0.48770  0.85358  0.98683  Biso   1.000  Y
  O41      1.0000 0.55550  0.92040  0.06740  Biso   1.000  O
  O42      1.0000 0.29110  0.90560  0.97610  Biso   1.000  O
  O43      1.0000 0.51000  0.90440  0.78970  Biso   1.000  O
  O44      1.0000 0.49320  0.81140  0.86910  Biso   1.000  O
  O45      1.0000 0.37000  0.81120  0.97580  Biso   1.000  O
  C33      1.0000 0.30900  0.83800  0.97660  Biso   1.000  C
  C34      1.0000 0.50140  0.78550  0.74460  Biso   1.000  C
  H17      1.0000 0.50140  0.80290  0.69760  Biso   1.000  H
  C35      1.0000 0.24570  0.78530  0.97500  Biso   1.000  C
  H18      1.0000 0.19910  0.80380  0.97390  Biso   1.000  H
  C36      1.0000 0.50130  0.83870  0.80620  Biso   1.000  C
  Y10      1.0000 0.01230  0.85358  0.51317  Biso   1.000  Y
  O46      1.0000 0.94450  0.92040  0.43260  Biso   1.000  O
  O47      1.0000 0.20890  0.90560  0.52390  Biso   1.000  O
  O48      1.0000 0.99000  0.90440  0.71030  Biso   1.000  O
  O49      1.0000 0.00680  0.81140  0.63090  Biso   1.000  O
  O50      1.0000 0.13000  0.81120  0.52420  Biso   1.000  O
  C37      1.0000 0.19100  0.83800  0.52340  Biso   1.000  C
  C38      1.0000 0.99860  0.78550  0.75540  Biso   1.000  C
  H19      1.0000 0.99860  0.80290  0.80240  Biso   1.000  H
  C39      1.0000 0.25430  0.78530  0.52500  Biso   1.000  C
  H20      1.0000 0.30090  0.80380  0.52610  Biso   1.000  H
  C40      1.0000 0.99870  0.83870  0.69380  Biso   1.000  C
  Y11      1.0000 0.48770  0.64642  0.51317  Biso   1.000  Y
  O51      1.0000 0.55550  0.57960  0.43260  Biso   1.000  O
  O52      1.0000 0.29110  0.59440  0.52390  Biso   1.000  O
  O53      1.0000 0.51000  0.59560  0.71030  Biso   1.000  O
  O54      1.0000 0.49320  0.68860  0.63090  Biso   1.000  O
  O55      1.0000 0.37000  0.68880  0.52420  Biso   1.000  O
  C41      1.0000 0.30900  0.66200  0.52340  Biso   1.000  C
  C42      1.0000 0.50140  0.71450  0.75540  Biso   1.000  C
  H21      1.0000 0.50140  0.69710  0.80240  Biso   1.000  H
  C43      1.0000 0.24570  0.71470  0.52500  Biso   1.000  C
  H22      1.0000 0.19910  0.69620  0.52610  Biso   1.000  H
  C44      1.0000 0.50130  0.66130  0.69380  Biso   1.000  C
  Y12      1.0000 0.01230  0.64642  0.98683  Biso   1.000  Y
  O56      1.0000 0.94450  0.57960  0.06740  Biso   1.000  O
  O57      1.0000 0.20890  0.59440  0.97610  Biso   1.000  O
  O58      1.0000 0.99000  0.59560  0.78970  Biso   1.000  O
  O59      1.0000 0.00680  0.68860  0.86910  Biso   1.000  O
  O60      1.0000 0.13000  0.68880  0.97580  Biso   1.000  O
  C45      1.0000 0.19100  0.66200  0.97660  Biso   1.000  C
  C46      1.0000 0.99860  0.71450  0.74460  Biso   1.000  C
  H23      1.0000 0.99860  0.69710  0.69760  Biso   1.000  H
  C47      1.0000 0.25430  0.71470  0.97500  Biso   1.000  C
  H24      1.0000 0.30090  0.69620  0.97390  Biso   1.000  H
  C48      1.0000 0.99870  0.66130  0.80620  Biso   1.000  C
  Y13      1.0000 0.01317  0.51230  0.14642  Biso   1.000  Y
  O61      1.0000 0.93260  0.44450  0.07960  Biso   1.000  O
  O62      1.0000 0.02390  0.70890  0.09440  Biso   1.000  O
  O63      1.0000 0.21030  0.49000  0.09560  Biso   1.000  O
  O64      1.0000 0.13090  0.50680  0.18860  Biso   1.000  O
  O65      1.0000 0.02420  0.63000  0.18880  Biso   1.000  O
  C49      1.0000 0.02340  0.69100  0.16200  Biso   1.000  C
  C50      1.0000 0.25540  0.49860  0.21450  Biso   1.000  C
  H25      1.0000 0.30240  0.49860  0.19710  Biso   1.000  H
  C51      1.0000 0.02500  0.75430  0.21470  Biso   1.000  C
  H26      1.0000 0.02610  0.80090  0.19620  Biso   1.000  H
  C52      1.0000 0.19380  0.49870  0.16130  Biso   1.000  C
  Y14      1.0000 0.48683  0.98770  0.14642  Biso   1.000  Y
  O66      1.0000 0.56740  0.05550  0.07960  Biso   1.000  O
  O67      1.0000 0.47610  0.79110  0.09440  Biso   1.000  O
  O68      1.0000 0.28970  0.01000  0.09560  Biso   1.000  O
  O69      1.0000 0.36910  0.99320  0.18860  Biso   1.000  O
  O70      1.0000 0.47580  0.87000  0.18880  Biso   1.000  O
  C53      1.0000 0.47660  0.80900  0.16200  Biso   1.000  C
  C54      1.0000 0.24460  0.00140  0.21450  Biso   1.000  C
  H27      1.0000 0.19760  0.00140  0.19710  Biso   1.000  H
  C55      1.0000 0.47500  0.74570  0.21470  Biso   1.000  C
  H28      1.0000 0.47390  0.69910  0.19620  Biso   1.000  H
  C56      1.0000 0.30620  0.00130  0.16130  Biso   1.000  C
  Y15      1.0000 0.48683  0.51230  0.35358  Biso   1.000  Y
  O71      1.0000 0.56740  0.44450  0.42040  Biso   1.000  O
  O72      1.0000 0.47610  0.70890  0.40560  Biso   1.000  O
  O73      1.0000 0.28970  0.49000  0.40440  Biso   1.000  O
  O74      1.0000 0.36910  0.50680  0.31140  Biso   1.000  O
  O75      1.0000 0.47580  0.63000  0.31120  Biso   1.000  O
  C57      1.0000 0.47660  0.69100  0.33800  Biso   1.000  C
  C58      1.0000 0.24460  0.49860  0.28550  Biso   1.000  C
  H29      1.0000 0.19760  0.49860  0.30290  Biso   1.000  H
  C59      1.0000 0.47500  0.75430  0.28530  Biso   1.000  C
  H30      1.0000 0.47390  0.80090  0.30380  Biso   1.000  H
  C60      1.0000 0.30620  0.49870  0.33870  Biso   1.000  C
  Y16      1.0000 0.01317  0.98770  0.35358  Biso   1.000  Y
  O76      1.0000 0.93260  0.05550  0.42040  Biso   1.000  O
  O77      1.0000 0.02390  0.79110  0.40560  Biso   1.000  O
  O78      1.0000 0.21030  0.01000  0.40440  Biso   1.000  O
  O79      1.0000 0.13090  0.99320  0.31140  Biso   1.000  O
  O80      1.0000 0.02420  0.87000  0.31120  Biso   1.000  O
  C61      1.0000 0.02340  0.80900  0.33800  Biso   1.000  C
  C62      1.0000 0.25540  0.00140  0.28550  Biso   1.000  C
  H31      1.0000 0.30240  0.00140  0.30290  Biso   1.000  H
  C63      1.0000 0.02500  0.74570  0.28530  Biso   1.000  C
  H32      1.0000 0.02610  0.69910  0.30380  Biso   1.000  H
  C64      1.0000 0.19380  0.00130  0.33870  Biso   1.000  C
  Y17      1.0000 0.14642  0.01317  0.51230  Biso   1.000  Y
  O81      1.0000 0.07960  0.93260  0.44450  Biso   1.000  O
  O82      1.0000 0.09440  0.02390  0.70890  Biso   1.000  O
  O83      1.0000 0.09560  0.21030  0.49000  Biso   1.000  O
  O84      1.0000 0.18860  0.13090  0.50680  Biso   1.000  O
  O85      1.0000 0.18880  0.02420  0.63000  Biso   1.000  O
  C65      1.0000 0.16200  0.02340  0.69100  Biso   1.000  C
  C66      1.0000 0.21450  0.25540  0.49860  Biso   1.000  C
  H33      1.0000 0.19710  0.30240  0.49860  Biso   1.000  H
  C67      1.0000 0.21470  0.02500  0.75430  Biso   1.000  C
  H34      1.0000 0.19620  0.02610  0.80090  Biso   1.000  H
  C68      1.0000 0.16130  0.19380  0.49870  Biso   1.000  C
  Y18      1.0000 0.14642  0.48683  0.98770  Biso   1.000  Y
  O86      1.0000 0.07960  0.56740  0.05550  Biso   1.000  O
  O87      1.0000 0.09440  0.47610  0.79110  Biso   1.000  O
  O88      1.0000 0.09560  0.28970  0.01000  Biso   1.000  O
  O89      1.0000 0.18860  0.36910  0.99320  Biso   1.000  O
  O90      1.0000 0.18880  0.47580  0.87000  Biso   1.000  O
  C69      1.0000 0.16200  0.47660  0.80900  Biso   1.000  C
  C70      1.0000 0.21450  0.24460  0.00140  Biso   1.000  C
  H35      1.0000 0.19710  0.19760  0.00140  Biso   1.000  H
  C71      1.0000 0.21470  0.47500  0.74570  Biso   1.000  C
  H36      1.0000 0.19620  0.47390  0.69910  Biso   1.000  H
  C72      1.0000 0.16130  0.30620  0.00130  Biso   1.000  C
  Y19      1.0000 0.35358  0.48683  0.51230  Biso   1.000  Y
  O91      1.0000 0.42040  0.56740  0.44450  Biso   1.000  O
  O92      1.0000 0.40560  0.47610  0.70890  Biso   1.000  O
  O93      1.0000 0.40440  0.28970  0.49000  Biso   1.000  O
  O94      1.0000 0.31140  0.36910  0.50680  Biso   1.000  O
  O95      1.0000 0.31120  0.47580  0.63000  Biso   1.000  O
  C73      1.0000 0.33800  0.47660  0.69100  Biso   1.000  C
  C74      1.0000 0.28550  0.24460  0.49860  Biso   1.000  C
  H37      1.0000 0.30290  0.19760  0.49860  Biso   1.000  H
  C75      1.0000 0.28530  0.47500  0.75430  Biso   1.000  C
  H38      1.0000 0.30380  0.47390  0.80090  Biso   1.000  H
  C76      1.0000 0.33870  0.30620  0.49870  Biso   1.000  C
  Y20      1.0000 0.35358  0.01317  0.98770  Biso   1.000  Y
  O96      1.0000 0.42040  0.93260  0.05550  Biso   1.000  O
  O97      1.0000 0.40560  0.02390  0.79110  Biso   1.000  O
  O98      1.0000 0.40440  0.21030  0.01000  Biso   1.000  O
  O99      1.0000 0.31140  0.13090  0.99320  Biso   1.000  O
  O100     1.0000 0.31120  0.02420  0.87000  Biso   1.000  O
  C77      1.0000 0.33800  0.02340  0.80900  Biso   1.000  C
  C78      1.0000 0.28550  0.25540  0.00140  Biso   1.000  C
  H39      1.0000 0.30290  0.30240  0.00140  Biso   1.000  H
  C79      1.0000 0.28530  0.02500  0.74570  Biso   1.000  C
  H40      1.0000 0.30380  0.02610  0.69910  Biso   1.000  H
  C80      1.0000 0.33870  0.19380  0.00130  Biso   1.000  C
  Y21      1.0000 0.51230  0.14642  0.01317  Biso   1.000  Y
  O101     1.0000 0.44450  0.07960  0.93260  Biso   1.000  O
  O102     1.0000 0.70890  0.09440  0.02390  Biso   1.000  O
  O103     1.0000 0.49000  0.09560  0.21030  Biso   1.000  O
  O104     1.0000 0.50680  0.18860  0.13090  Biso   1.000  O
  O105     1.0000 0.63000  0.18880  0.02420  Biso   1.000  O
  C81      1.0000 0.69100  0.16200  0.02340  Biso   1.000  C
  C82      1.0000 0.49860  0.21450  0.25540  Biso   1.000  C
  H41      1.0000 0.49860  0.19710  0.30240  Biso   1.000  H
  C83      1.0000 0.75430  0.21470  0.02500  Biso   1.000  C
  H42      1.0000 0.80090  0.19620  0.02610  Biso   1.000  H
  C84      1.0000 0.49870  0.16130  0.19380  Biso   1.000  C
  Y22      1.0000 0.98770  0.14642  0.48683  Biso   1.000  Y
  O106     1.0000 0.05550  0.07960  0.56740  Biso   1.000  O
  O107     1.0000 0.79110  0.09440  0.47610  Biso   1.000  O
  O108     1.0000 0.01000  0.09560  0.28970  Biso   1.000  O
  O109     1.0000 0.99320  0.18860  0.36910  Biso   1.000  O
  O110     1.0000 0.87000  0.18880  0.47580  Biso   1.000  O
  C85      1.0000 0.80900  0.16200  0.47660  Biso   1.000  C
  C86      1.0000 0.00140  0.21450  0.24460  Biso   1.000  C
  H43      1.0000 0.00140  0.19710  0.19760  Biso   1.000  H
  C87      1.0000 0.74570  0.21470  0.47500  Biso   1.000  C
  H44      1.0000 0.69910  0.19620  0.47390  Biso   1.000  H
  C88      1.0000 0.00130  0.16130  0.30620  Biso   1.000  C
  Y23      1.0000 0.51230  0.35358  0.48683  Biso   1.000  Y
  O111     1.0000 0.44450  0.42040  0.56740  Biso   1.000  O
  O112     1.0000 0.70890  0.40560  0.47610  Biso   1.000  O
  O113     1.0000 0.49000  0.40440  0.28970  Biso   1.000  O
  O114     1.0000 0.50680  0.31140  0.36910  Biso   1.000  O
  O115     1.0000 0.63000  0.31120  0.47580  Biso   1.000  O
  C89      1.0000 0.69100  0.33800  0.47660  Biso   1.000  C
  C90      1.0000 0.49860  0.28550  0.24460  Biso   1.000  C
  H45      1.0000 0.49860  0.30290  0.19760  Biso   1.000  H
  C91      1.0000 0.75430  0.28530  0.47500  Biso   1.000  C
  H46      1.0000 0.80090  0.30380  0.47390  Biso   1.000  H
  C92      1.0000 0.49870  0.33870  0.30620  Biso   1.000  C
  Y24      1.0000 0.98770  0.35358  0.01317  Biso   1.000  Y
  O116     1.0000 0.05550  0.42040  0.93260  Biso   1.000  O
  O117     1.0000 0.79110  0.40560  0.02390  Biso   1.000  O
  O118     1.0000 0.01000  0.40440  0.21030  Biso   1.000  O
  O119     1.0000 0.99320  0.31140  0.13090  Biso   1.000  O
  O120     1.0000 0.87000  0.31120  0.02420  Biso   1.000  O
  C93      1.0000 0.80900  0.33800  0.02340  Biso   1.000  C
  C94      1.0000 0.00140  0.28550  0.25540  Biso   1.000  C
  H47      1.0000 0.00140  0.30290  0.30240  Biso   1.000  H
  C95      1.0000 0.74570  0.28530  0.02500  Biso   1.000  C
  H48      1.0000 0.69910  0.30380  0.02610  Biso   1.000  H
  C96      1.0000 0.00130  0.33870  0.19380  Biso   1.000  C
  O121     1.0000 0.93290  0.56710  0.93290  Biso   1.000  O
  O122     1.0000 0.56710  0.93290  0.93290  Biso   1.000  O
  O123     1.0000 0.56710  0.56710  0.56710  Biso   1.000  O
  O124     1.0000 0.93290  0.93290  0.56710  Biso   1.000  O
  O125     1.0000 0.06710  0.43290  0.06710  Biso   1.000  O
  O126     1.0000 0.43290  0.06710  0.06710  Biso   1.000  O
  O127     1.0000 0.43290  0.43290  0.43290  Biso   1.000  O
  O128     1.0000 0.06710  0.06710  0.43290  Biso   1.000  O
