data_image0
_cell_length_a       8.1584
_cell_length_b       8.1584
_cell_length_c       12.1399
_cell_angle_alpha    90
_cell_angle_beta     90
_cell_angle_gamma    120

_symmetry_space_group_name_H-M    "P 1"
_symmetry_int_tables_number       1

loop_
  _symmetry_equiv_pos_as_xyz
  'x, y, z'

loop_
  _atom_site_label
  _atom_site_occupancy
  _atom_site_fract_x
  _atom_site_fract_y
  _atom_site_fract_z
  _atom_site_thermal_displace_type
  _atom_site_B_iso_or_equiv
  _atom_site_type_symbol
  O1       1.0000 0.29340  0.76150  0.56851  Biso   1.000  O
  O2       1.0000 0.16210  0.49420  0.47464  Biso   1.000  O
  C1       1.0000 0.26210  0.59470  0.55308  Biso   1.000  C
  C2       1.0000 0.34490  0.51200  0.63040  Biso   1.000  C
  H1       1.0000 0.35400  0.41020  0.59310  Biso   1.000  H
  H2       1.0000 0.26350  0.46080  0.69540  Biso   1.000  H
  H3       1.0000 0.47150  0.61080  0.65320  Biso   1.000  H
  O3       1.0000 0.23850  0.53190  0.23518  Biso   1.000  O
  O4       1.0000 0.50580  0.66790  0.14131  Biso   1.000  O
  C3       1.0000 0.40530  0.66740  0.21975  Biso   1.000  C
  C4       1.0000 0.48800  0.83290  0.29707  Biso   1.000  C
  H4       1.0000 0.58980  0.94380  0.25977  Biso   1.000  H
  H5       1.0000 0.53920  0.80270  0.36207  Biso   1.000  H
  H6       1.0000 0.38920  0.86070  0.31987  Biso   1.000  H
  O5       1.0000 0.46810  0.70660  0.90184  Biso   1.000  O
  O6       1.0000 0.33210  0.83790  0.80797  Biso   1.000  O
  C5       1.0000 0.33260  0.73790  0.88641  Biso   1.000  C
  C6       1.0000 0.16710  0.65510  0.96373  Biso   1.000  C
  H7       1.0000 0.05620  0.64600  0.92643  Biso   1.000  H
  H8       1.0000 0.19730  0.73650  0.02873  Biso   1.000  H
  H9       1.0000 0.13930  0.52850  0.98653  Biso   1.000  H
  O7       1.0000 0.76150  0.29340  0.43149  Biso   1.000  O
  O8       1.0000 0.49420  0.16210  0.52536  Biso   1.000  O
  C7       1.0000 0.59470  0.26210  0.44692  Biso   1.000  C
  C8       1.0000 0.51200  0.34490  0.36960  Biso   1.000  C
  H10      1.0000 0.41020  0.35400  0.40690  Biso   1.000  H
  H11      1.0000 0.46080  0.26350  0.30460  Biso   1.000  H
  H12      1.0000 0.61080  0.47150  0.34680  Biso   1.000  H
  O9       1.0000 0.53190  0.23850  0.76482  Biso   1.000  O
  O10      1.0000 0.66790  0.50580  0.85869  Biso   1.000  O
  C9       1.0000 0.66740  0.40530  0.78025  Biso   1.000  C
  C10      1.0000 0.83290  0.48800  0.70293  Biso   1.000  C
  H13      1.0000 0.94380  0.58980  0.74023  Biso   1.000  H
  H14      1.0000 0.80270  0.53920  0.63793  Biso   1.000  H
  H15      1.0000 0.86070  0.38920  0.68013  Biso   1.000  H
  O11      1.0000 0.70660  0.46810  0.09816  Biso   1.000  O
  O12      1.0000 0.83790  0.33210  0.19203  Biso   1.000  O
  C11      1.0000 0.73790  0.33260  0.11359  Biso   1.000  C
  C12      1.0000 0.65510  0.16710  0.03627  Biso   1.000  C
  H16      1.0000 0.64600  0.05620  0.07357  Biso   1.000  H
  H17      1.0000 0.73650  0.19730  0.97127  Biso   1.000  H
  H18      1.0000 0.52850  0.13930  0.01347  Biso   1.000  H
  Sc1      1.0000 0.41648  0.00000  0.66667  Biso   1.000  Sc
  Sc2      1.0000 0.00000  0.41648  0.33333  Biso   1.000  Sc
  Sc3      1.0000 0.58352  0.58352  0.00000  Biso   1.000  Sc
