data_image0
_cell_length_a       31.7864
_cell_length_b       33.3395
_cell_length_c       11.6773
_cell_angle_alpha    90
_cell_angle_beta     90
_cell_angle_gamma    90

_symmetry_space_group_name_H-M    "P 1"
_symmetry_int_tables_number       1

loop_
  _symmetry_equiv_pos_as_xyz
  'x, y, z'

loop_
  _atom_site_label
  _atom_site_occupancy
  _atom_site_fract_x
  _atom_site_fract_y
  _atom_site_fract_z
  _atom_site_thermal_displace_type
  _atom_site_B_iso_or_equiv
  _atom_site_type_symbol
  O1       1.0000 0.73437  0.29062  0.89850  Biso   1.000  O
  O2       1.0000 0.69471  0.29096  0.73890  Biso   1.000  O
  N1       1.0000 0.54408  0.46181  0.05458  Biso   1.000  N
  N2       1.0000 0.59209  0.41449  0.04420  Biso   1.000  N
  C1       1.0000 0.56608  0.43920  0.98670  Biso   1.000  C
  H1       1.0000 0.56410  0.44000  0.90560  Biso   1.000  H
  C2       1.0000 0.67462  0.33171  0.89510  Biso   1.000  C
  C3       1.0000 0.70343  0.30216  0.83870  Biso   1.000  C
  C4       1.0000 0.61994  0.38632  0.99380  Biso   1.000  C
  C5       1.0000 0.68147  0.34504  0.00480  Biso   1.000  C
  H2       1.0000 0.70490  0.33520  0.04680  Biso   1.000  H
  C6       1.0000 0.61208  0.37251  0.88570  Biso   1.000  C
  H3       1.0000 0.58810  0.38180  0.84480  Biso   1.000  H
  C7       1.0000 0.63917  0.34490  0.83560  Biso   1.000  C
  H4       1.0000 0.63350  0.33500  0.76080  Biso   1.000  H
  C8       1.0000 0.65454  0.37260  0.05490  Biso   1.000  C
  H5       1.0000 0.65970  0.38200  0.13040  Biso   1.000  H
  C9       1.0000 0.58527  0.42195  0.15650  Biso   1.000  C
  H6       1.0000 0.59850  0.40900  0.21950  Biso   1.000  H
  C10      1.0000 0.55600  0.45132  0.16170  Biso   1.000  C
  H7       1.0000 0.54540  0.46290  0.23030  Biso   1.000  H
  O3       1.0000 0.23437  0.79062  0.39850  Biso   1.000  O
  O4       1.0000 0.19471  0.79096  0.23890  Biso   1.000  O
  N3       1.0000 0.04408  0.96181  0.55458  Biso   1.000  N
  N4       1.0000 0.09209  0.91449  0.54420  Biso   1.000  N
  C11      1.0000 0.06608  0.93920  0.48670  Biso   1.000  C
  H8       1.0000 0.06410  0.94000  0.40560  Biso   1.000  H
  C12      1.0000 0.17462  0.83171  0.39510  Biso   1.000  C
  C13      1.0000 0.20343  0.80216  0.33870  Biso   1.000  C
  C14      1.0000 0.11994  0.88632  0.49380  Biso   1.000  C
  C15      1.0000 0.18147  0.84504  0.50480  Biso   1.000  C
  H9       1.0000 0.20490  0.83520  0.54680  Biso   1.000  H
  C16      1.0000 0.11208  0.87251  0.38570  Biso   1.000  C
  H10      1.0000 0.08810  0.88180  0.34480  Biso   1.000  H
  C17      1.0000 0.13917  0.84490  0.33560  Biso   1.000  C
  H11      1.0000 0.13350  0.83500  0.26080  Biso   1.000  H
  C18      1.0000 0.15454  0.87260  0.55490  Biso   1.000  C
  H12      1.0000 0.15970  0.88200  0.63040  Biso   1.000  H
  C19      1.0000 0.08527  0.92195  0.65650  Biso   1.000  C
  H13      1.0000 0.09850  0.90900  0.71950  Biso   1.000  H
  C20      1.0000 0.05600  0.95132  0.66170  Biso   1.000  C
  H14      1.0000 0.04540  0.96290  0.73030  Biso   1.000  H
  O5       1.0000 0.26563  0.20938  0.89850  Biso   1.000  O
  O6       1.0000 0.30529  0.20904  0.73890  Biso   1.000  O
  N5       1.0000 0.45592  0.03819  0.05458  Biso   1.000  N
  N6       1.0000 0.40791  0.08551  0.04420  Biso   1.000  N
  C21      1.0000 0.43392  0.06080  0.98670  Biso   1.000  C
  H15      1.0000 0.43590  0.06000  0.90560  Biso   1.000  H
  C22      1.0000 0.32538  0.16829  0.89510  Biso   1.000  C
  C23      1.0000 0.29657  0.19784  0.83870  Biso   1.000  C
  C24      1.0000 0.38006  0.11368  0.99380  Biso   1.000  C
  C25      1.0000 0.31853  0.15496  0.00480  Biso   1.000  C
  H16      1.0000 0.29510  0.16480  0.04680  Biso   1.000  H
  C26      1.0000 0.38792  0.12749  0.88570  Biso   1.000  C
  H17      1.0000 0.41190  0.11820  0.84480  Biso   1.000  H
  C27      1.0000 0.36083  0.15510  0.83560  Biso   1.000  C
  H18      1.0000 0.36650  0.16500  0.76080  Biso   1.000  H
  C28      1.0000 0.34546  0.12740  0.05490  Biso   1.000  C
  H19      1.0000 0.34030  0.11800  0.13040  Biso   1.000  H
  C29      1.0000 0.41473  0.07805  0.15650  Biso   1.000  C
  H20      1.0000 0.40150  0.09100  0.21950  Biso   1.000  H
  C30      1.0000 0.44400  0.04868  0.16170  Biso   1.000  C
  H21      1.0000 0.45460  0.03710  0.23030  Biso   1.000  H
  O7       1.0000 0.76563  0.70938  0.39850  Biso   1.000  O
  O8       1.0000 0.80529  0.70904  0.23890  Biso   1.000  O
  N7       1.0000 0.95592  0.53819  0.55458  Biso   1.000  N
  N8       1.0000 0.90791  0.58551  0.54420  Biso   1.000  N
  C31      1.0000 0.93392  0.56080  0.48670  Biso   1.000  C
  H22      1.0000 0.93590  0.56000  0.40560  Biso   1.000  H
  C32      1.0000 0.82538  0.66829  0.39510  Biso   1.000  C
  C33      1.0000 0.79657  0.69784  0.33870  Biso   1.000  C
  C34      1.0000 0.88006  0.61368  0.49380  Biso   1.000  C
  C35      1.0000 0.81853  0.65496  0.50480  Biso   1.000  C
  H23      1.0000 0.79510  0.66480  0.54680  Biso   1.000  H
  C36      1.0000 0.88792  0.62749  0.38570  Biso   1.000  C
  H24      1.0000 0.91190  0.61820  0.34480  Biso   1.000  H
  C37      1.0000 0.86083  0.65510  0.33560  Biso   1.000  C
  H25      1.0000 0.86650  0.66500  0.26080  Biso   1.000  H
  C38      1.0000 0.84546  0.62740  0.55490  Biso   1.000  C
  H26      1.0000 0.84030  0.61800  0.63040  Biso   1.000  H
  C39      1.0000 0.91473  0.57805  0.65650  Biso   1.000  C
  H27      1.0000 0.90150  0.59100  0.71950  Biso   1.000  H
  C40      1.0000 0.94400  0.54868  0.66170  Biso   1.000  C
  H28      1.0000 0.95460  0.53710  0.73030  Biso   1.000  H
  O9       1.0000 0.26563  0.79062  0.10150  Biso   1.000  O
  O10      1.0000 0.30529  0.79096  0.26110  Biso   1.000  O
  N9       1.0000 0.45592  0.96181  0.94542  Biso   1.000  N
  N10      1.0000 0.40791  0.91449  0.95580  Biso   1.000  N
  C41      1.0000 0.43392  0.93920  0.01330  Biso   1.000  C
  H29      1.0000 0.43590  0.94000  0.09440  Biso   1.000  H
  C42      1.0000 0.32538  0.83171  0.10490  Biso   1.000  C
  C43      1.0000 0.29657  0.80216  0.16130  Biso   1.000  C
  C44      1.0000 0.38006  0.88632  0.00620  Biso   1.000  C
  C45      1.0000 0.31853  0.84504  0.99520  Biso   1.000  C
  H30      1.0000 0.29510  0.83520  0.95320  Biso   1.000  H
  C46      1.0000 0.38792  0.87251  0.11430  Biso   1.000  C
  H31      1.0000 0.41190  0.88180  0.15520  Biso   1.000  H
  C47      1.0000 0.36083  0.84490  0.16440  Biso   1.000  C
  H32      1.0000 0.36650  0.83500  0.23920  Biso   1.000  H
  C48      1.0000 0.34546  0.87260  0.94510  Biso   1.000  C
  H33      1.0000 0.34030  0.88200  0.86960  Biso   1.000  H
  C49      1.0000 0.41473  0.92195  0.84350  Biso   1.000  C
  H34      1.0000 0.40150  0.90900  0.78050  Biso   1.000  H
  C50      1.0000 0.44400  0.95132  0.83830  Biso   1.000  C
  H35      1.0000 0.45460  0.96290  0.76970  Biso   1.000  H
  O11      1.0000 0.76563  0.29062  0.60150  Biso   1.000  O
  O12      1.0000 0.80529  0.29096  0.76110  Biso   1.000  O
  N11      1.0000 0.95592  0.46181  0.44542  Biso   1.000  N
  N12      1.0000 0.90791  0.41449  0.45580  Biso   1.000  N
  C51      1.0000 0.93392  0.43920  0.51330  Biso   1.000  C
  H36      1.0000 0.93590  0.44000  0.59440  Biso   1.000  H
  C52      1.0000 0.82538  0.33171  0.60490  Biso   1.000  C
  C53      1.0000 0.79657  0.30216  0.66130  Biso   1.000  C
  C54      1.0000 0.88006  0.38632  0.50620  Biso   1.000  C
  C55      1.0000 0.81853  0.34504  0.49520  Biso   1.000  C
  H37      1.0000 0.79510  0.33520  0.45320  Biso   1.000  H
  C56      1.0000 0.88792  0.37251  0.61430  Biso   1.000  C
  H38      1.0000 0.91190  0.38180  0.65520  Biso   1.000  H
  C57      1.0000 0.86083  0.34490  0.66440  Biso   1.000  C
  H39      1.0000 0.86650  0.33500  0.73920  Biso   1.000  H
  C58      1.0000 0.84546  0.37260  0.44510  Biso   1.000  C
  H40      1.0000 0.84030  0.38200  0.36960  Biso   1.000  H
  C59      1.0000 0.91473  0.42195  0.34350  Biso   1.000  C
  H41      1.0000 0.90150  0.40900  0.28050  Biso   1.000  H
  C60      1.0000 0.94400  0.45132  0.33830  Biso   1.000  C
  H42      1.0000 0.95460  0.46290  0.26970  Biso   1.000  H
  O13      1.0000 0.73437  0.70938  0.10150  Biso   1.000  O
  O14      1.0000 0.69471  0.70904  0.26110  Biso   1.000  O
  N13      1.0000 0.54408  0.53819  0.94542  Biso   1.000  N
  N14      1.0000 0.59209  0.58551  0.95580  Biso   1.000  N
  C61      1.0000 0.56608  0.56080  0.01330  Biso   1.000  C
  H43      1.0000 0.56410  0.56000  0.09440  Biso   1.000  H
  C62      1.0000 0.67462  0.66829  0.10490  Biso   1.000  C
  C63      1.0000 0.70343  0.69784  0.16130  Biso   1.000  C
  C64      1.0000 0.61994  0.61368  0.00620  Biso   1.000  C
  C65      1.0000 0.68147  0.65496  0.99520  Biso   1.000  C
  H44      1.0000 0.70490  0.66480  0.95320  Biso   1.000  H
  C66      1.0000 0.61208  0.62749  0.11430  Biso   1.000  C
  H45      1.0000 0.58810  0.61820  0.15520  Biso   1.000  H
  C67      1.0000 0.63917  0.65510  0.16440  Biso   1.000  C
  H46      1.0000 0.63350  0.66500  0.23920  Biso   1.000  H
  C68      1.0000 0.65454  0.62740  0.94510  Biso   1.000  C
  H47      1.0000 0.65970  0.61800  0.86960  Biso   1.000  H
  C69      1.0000 0.58527  0.57805  0.84350  Biso   1.000  C
  H48      1.0000 0.59850  0.59100  0.78050  Biso   1.000  H
  C70      1.0000 0.55600  0.54868  0.83830  Biso   1.000  C
  H49      1.0000 0.54540  0.53710  0.76970  Biso   1.000  H
  O15      1.0000 0.23437  0.20938  0.60150  Biso   1.000  O
  O16      1.0000 0.19471  0.20904  0.76110  Biso   1.000  O
  N15      1.0000 0.04408  0.03819  0.44542  Biso   1.000  N
  N16      1.0000 0.09209  0.08551  0.45580  Biso   1.000  N
  C71      1.0000 0.06608  0.06080  0.51330  Biso   1.000  C
  H50      1.0000 0.06410  0.06000  0.59440  Biso   1.000  H
  C72      1.0000 0.17462  0.16829  0.60490  Biso   1.000  C
  C73      1.0000 0.20343  0.19784  0.66130  Biso   1.000  C
  C74      1.0000 0.11994  0.11368  0.50620  Biso   1.000  C
  C75      1.0000 0.18147  0.15496  0.49520  Biso   1.000  C
  H51      1.0000 0.20490  0.16480  0.45320  Biso   1.000  H
  C76      1.0000 0.11208  0.12749  0.61430  Biso   1.000  C
  H52      1.0000 0.08810  0.11820  0.65520  Biso   1.000  H
  C77      1.0000 0.13917  0.15510  0.66440  Biso   1.000  C
  H53      1.0000 0.13350  0.16500  0.73920  Biso   1.000  H
  C78      1.0000 0.15454  0.12740  0.44510  Biso   1.000  C
  H54      1.0000 0.15970  0.11800  0.36960  Biso   1.000  H
  C79      1.0000 0.08527  0.07805  0.34350  Biso   1.000  C
  H55      1.0000 0.09850  0.09100  0.28050  Biso   1.000  H
  C80      1.0000 0.05600  0.04868  0.33830  Biso   1.000  C
  H56      1.0000 0.04540  0.03710  0.26970  Biso   1.000  H
  O17      1.0000 0.26563  0.70938  0.10150  Biso   1.000  O
  O18      1.0000 0.30529  0.70904  0.26110  Biso   1.000  O
  N17      1.0000 0.45592  0.53819  0.94542  Biso   1.000  N
  N18      1.0000 0.40791  0.58551  0.95580  Biso   1.000  N
  C81      1.0000 0.43392  0.56080  0.01330  Biso   1.000  C
  H57      1.0000 0.43590  0.56000  0.09440  Biso   1.000  H
  C82      1.0000 0.32538  0.66829  0.10490  Biso   1.000  C
  C83      1.0000 0.29657  0.69784  0.16130  Biso   1.000  C
  C84      1.0000 0.38006  0.61368  0.00620  Biso   1.000  C
  C85      1.0000 0.31853  0.65496  0.99520  Biso   1.000  C
  H58      1.0000 0.29510  0.66480  0.95320  Biso   1.000  H
  C86      1.0000 0.38792  0.62749  0.11430  Biso   1.000  C
  H59      1.0000 0.41190  0.61820  0.15520  Biso   1.000  H
  C87      1.0000 0.36083  0.65510  0.16440  Biso   1.000  C
  H60      1.0000 0.36650  0.66500  0.23920  Biso   1.000  H
  C88      1.0000 0.34546  0.62740  0.94510  Biso   1.000  C
  H61      1.0000 0.34030  0.61800  0.86960  Biso   1.000  H
  C89      1.0000 0.41473  0.57805  0.84350  Biso   1.000  C
  H62      1.0000 0.40150  0.59100  0.78050  Biso   1.000  H
  C90      1.0000 0.44400  0.54868  0.83830  Biso   1.000  C
  H63      1.0000 0.45460  0.53710  0.76970  Biso   1.000  H
  O19      1.0000 0.76563  0.20938  0.60150  Biso   1.000  O
  O20      1.0000 0.80529  0.20904  0.76110  Biso   1.000  O
  N19      1.0000 0.95592  0.03819  0.44542  Biso   1.000  N
  N20      1.0000 0.90791  0.08551  0.45580  Biso   1.000  N
  C91      1.0000 0.93392  0.06080  0.51330  Biso   1.000  C
  H64      1.0000 0.93590  0.06000  0.59440  Biso   1.000  H
  C92      1.0000 0.82538  0.16829  0.60490  Biso   1.000  C
  C93      1.0000 0.79657  0.19784  0.66130  Biso   1.000  C
  C94      1.0000 0.88006  0.11368  0.50620  Biso   1.000  C
  C95      1.0000 0.81853  0.15496  0.49520  Biso   1.000  C
  H65      1.0000 0.79510  0.16480  0.45320  Biso   1.000  H
  C96      1.0000 0.88792  0.12749  0.61430  Biso   1.000  C
  H66      1.0000 0.91190  0.11820  0.65520  Biso   1.000  H
  C97      1.0000 0.86083  0.15510  0.66440  Biso   1.000  C
  H67      1.0000 0.86650  0.16500  0.73920  Biso   1.000  H
  C98      1.0000 0.84546  0.12740  0.44510  Biso   1.000  C
  H68      1.0000 0.84030  0.11800  0.36960  Biso   1.000  H
  C99      1.0000 0.91473  0.07805  0.34350  Biso   1.000  C
  H69      1.0000 0.90150  0.09100  0.28050  Biso   1.000  H
  C100     1.0000 0.94400  0.04868  0.33830  Biso   1.000  C
  H70      1.0000 0.95460  0.03710  0.26970  Biso   1.000  H
  O21      1.0000 0.73437  0.79062  0.10150  Biso   1.000  O
  O22      1.0000 0.69471  0.79096  0.26110  Biso   1.000  O
  N21      1.0000 0.54408  0.96181  0.94542  Biso   1.000  N
  N22      1.0000 0.59209  0.91449  0.95580  Biso   1.000  N
  C101     1.0000 0.56608  0.93920  0.01330  Biso   1.000  C
  H71      1.0000 0.56410  0.94000  0.09440  Biso   1.000  H
  C102     1.0000 0.67462  0.83171  0.10490  Biso   1.000  C
  C103     1.0000 0.70343  0.80216  0.16130  Biso   1.000  C
  C104     1.0000 0.61994  0.88632  0.00620  Biso   1.000  C
  C105     1.0000 0.68147  0.84504  0.99520  Biso   1.000  C
  H72      1.0000 0.70490  0.83520  0.95320  Biso   1.000  H
  C106     1.0000 0.61208  0.87251  0.11430  Biso   1.000  C
  H73      1.0000 0.58810  0.88180  0.15520  Biso   1.000  H
  C107     1.0000 0.63917  0.84490  0.16440  Biso   1.000  C
  H74      1.0000 0.63350  0.83500  0.23920  Biso   1.000  H
  C108     1.0000 0.65454  0.87260  0.94510  Biso   1.000  C
  H75      1.0000 0.65970  0.88200  0.86960  Biso   1.000  H
  C109     1.0000 0.58527  0.92195  0.84350  Biso   1.000  C
  H76      1.0000 0.59850  0.90900  0.78050  Biso   1.000  H
  C110     1.0000 0.55600  0.95132  0.83830  Biso   1.000  C
  H77      1.0000 0.54540  0.96290  0.76970  Biso   1.000  H
  O23      1.0000 0.23437  0.29062  0.60150  Biso   1.000  O
  O24      1.0000 0.19471  0.29096  0.76110  Biso   1.000  O
  N23      1.0000 0.04408  0.46181  0.44542  Biso   1.000  N
  N24      1.0000 0.09209  0.41449  0.45580  Biso   1.000  N
  C111     1.0000 0.06608  0.43920  0.51330  Biso   1.000  C
  H78      1.0000 0.06410  0.44000  0.59440  Biso   1.000  H
  C112     1.0000 0.17462  0.33171  0.60490  Biso   1.000  C
  C113     1.0000 0.20343  0.30216  0.66130  Biso   1.000  C
  C114     1.0000 0.11994  0.38632  0.50620  Biso   1.000  C
  C115     1.0000 0.18147  0.34504  0.49520  Biso   1.000  C
  H79      1.0000 0.20490  0.33520  0.45320  Biso   1.000  H
  C116     1.0000 0.11208  0.37251  0.61430  Biso   1.000  C
  H80      1.0000 0.08810  0.38180  0.65520  Biso   1.000  H
  C117     1.0000 0.13917  0.34490  0.66440  Biso   1.000  C
  H81      1.0000 0.13350  0.33500  0.73920  Biso   1.000  H
  C118     1.0000 0.15454  0.37260  0.44510  Biso   1.000  C
  H82      1.0000 0.15970  0.38200  0.36960  Biso   1.000  H
  C119     1.0000 0.08527  0.42195  0.34350  Biso   1.000  C
  H83      1.0000 0.09850  0.40900  0.28050  Biso   1.000  H
  C120     1.0000 0.05600  0.45132  0.33830  Biso   1.000  C
  H84      1.0000 0.04540  0.46290  0.26970  Biso   1.000  H
  O25      1.0000 0.73437  0.20938  0.89850  Biso   1.000  O
  O26      1.0000 0.69471  0.20904  0.73890  Biso   1.000  O
  N25      1.0000 0.54408  0.03819  0.05458  Biso   1.000  N
  N26      1.0000 0.59209  0.08551  0.04420  Biso   1.000  N
  C121     1.0000 0.56608  0.06080  0.98670  Biso   1.000  C
  H85      1.0000 0.56410  0.06000  0.90560  Biso   1.000  H
  C122     1.0000 0.67462  0.16829  0.89510  Biso   1.000  C
  C123     1.0000 0.70343  0.19784  0.83870  Biso   1.000  C
  C124     1.0000 0.61994  0.11368  0.99380  Biso   1.000  C
  C125     1.0000 0.68147  0.15496  0.00480  Biso   1.000  C
  H86      1.0000 0.70490  0.16480  0.04680  Biso   1.000  H
  C126     1.0000 0.61208  0.12749  0.88570  Biso   1.000  C
  H87      1.0000 0.58810  0.11820  0.84480  Biso   1.000  H
  C127     1.0000 0.63917  0.15510  0.83560  Biso   1.000  C
  H88      1.0000 0.63350  0.16500  0.76080  Biso   1.000  H
  C128     1.0000 0.65454  0.12740  0.05490  Biso   1.000  C
  H89      1.0000 0.65970  0.11800  0.13040  Biso   1.000  H
  C129     1.0000 0.58527  0.07805  0.15650  Biso   1.000  C
  H90      1.0000 0.59850  0.09100  0.21950  Biso   1.000  H
  C130     1.0000 0.55600  0.04868  0.16170  Biso   1.000  C
  H91      1.0000 0.54540  0.03710  0.23030  Biso   1.000  H
  O27      1.0000 0.23437  0.70938  0.39850  Biso   1.000  O
  O28      1.0000 0.19471  0.70904  0.23890  Biso   1.000  O
  N27      1.0000 0.04408  0.53819  0.55458  Biso   1.000  N
  N28      1.0000 0.09209  0.58551  0.54420  Biso   1.000  N
  C131     1.0000 0.06608  0.56080  0.48670  Biso   1.000  C
  H92      1.0000 0.06410  0.56000  0.40560  Biso   1.000  H
  C132     1.0000 0.17462  0.66829  0.39510  Biso   1.000  C
  C133     1.0000 0.20343  0.69784  0.33870  Biso   1.000  C
  C134     1.0000 0.11994  0.61368  0.49380  Biso   1.000  C
  C135     1.0000 0.18147  0.65496  0.50480  Biso   1.000  C
  H93      1.0000 0.20490  0.66480  0.54680  Biso   1.000  H
  C136     1.0000 0.11208  0.62749  0.38570  Biso   1.000  C
  H94      1.0000 0.08810  0.61820  0.34480  Biso   1.000  H
  C137     1.0000 0.13917  0.65510  0.33560  Biso   1.000  C
  H95      1.0000 0.13350  0.66500  0.26080  Biso   1.000  H
  C138     1.0000 0.15454  0.62740  0.55490  Biso   1.000  C
  H96      1.0000 0.15970  0.61800  0.63040  Biso   1.000  H
  C139     1.0000 0.08527  0.57805  0.65650  Biso   1.000  C
  H97      1.0000 0.09850  0.59100  0.71950  Biso   1.000  H
  C140     1.0000 0.05600  0.54868  0.66170  Biso   1.000  C
  H98      1.0000 0.04540  0.53710  0.73030  Biso   1.000  H
  O29      1.0000 0.26563  0.29062  0.89850  Biso   1.000  O
  O30      1.0000 0.30529  0.29096  0.73890  Biso   1.000  O
  N29      1.0000 0.45592  0.46181  0.05458  Biso   1.000  N
  N30      1.0000 0.40791  0.41449  0.04420  Biso   1.000  N
  C141     1.0000 0.43392  0.43920  0.98670  Biso   1.000  C
  H99      1.0000 0.43590  0.44000  0.90560  Biso   1.000  H
  C142     1.0000 0.32538  0.33171  0.89510  Biso   1.000  C
  C143     1.0000 0.29657  0.30216  0.83870  Biso   1.000  C
  C144     1.0000 0.38006  0.38632  0.99380  Biso   1.000  C
  C145     1.0000 0.31853  0.34504  0.00480  Biso   1.000  C
  H100     1.0000 0.29510  0.33520  0.04680  Biso   1.000  H
  C146     1.0000 0.38792  0.37251  0.88570  Biso   1.000  C
  H101     1.0000 0.41190  0.38180  0.84480  Biso   1.000  H
  C147     1.0000 0.36083  0.34490  0.83560  Biso   1.000  C
  H102     1.0000 0.36650  0.33500  0.76080  Biso   1.000  H
  C148     1.0000 0.34546  0.37260  0.05490  Biso   1.000  C
  H103     1.0000 0.34030  0.38200  0.13040  Biso   1.000  H
  C149     1.0000 0.41473  0.42195  0.15650  Biso   1.000  C
  H104     1.0000 0.40150  0.40900  0.21950  Biso   1.000  H
  C150     1.0000 0.44400  0.45132  0.16170  Biso   1.000  C
  H105     1.0000 0.45460  0.46290  0.23030  Biso   1.000  H
  O31      1.0000 0.76563  0.79062  0.39850  Biso   1.000  O
  O32      1.0000 0.80529  0.79096  0.23890  Biso   1.000  O
  N31      1.0000 0.95592  0.96181  0.55458  Biso   1.000  N
  N32      1.0000 0.90791  0.91449  0.54420  Biso   1.000  N
  C151     1.0000 0.93392  0.93920  0.48670  Biso   1.000  C
  H106     1.0000 0.93590  0.94000  0.40560  Biso   1.000  H
  C152     1.0000 0.82538  0.83171  0.39510  Biso   1.000  C
  C153     1.0000 0.79657  0.80216  0.33870  Biso   1.000  C
  C154     1.0000 0.88006  0.88632  0.49380  Biso   1.000  C
  C155     1.0000 0.81853  0.84504  0.50480  Biso   1.000  C
  H107     1.0000 0.79510  0.83520  0.54680  Biso   1.000  H
  C156     1.0000 0.88792  0.87251  0.38570  Biso   1.000  C
  H108     1.0000 0.91190  0.88180  0.34480  Biso   1.000  H
  C157     1.0000 0.86083  0.84490  0.33560  Biso   1.000  C
  H109     1.0000 0.86650  0.83500  0.26080  Biso   1.000  H
  C158     1.0000 0.84546  0.87260  0.55490  Biso   1.000  C
  H110     1.0000 0.84030  0.88200  0.63040  Biso   1.000  H
  C159     1.0000 0.91473  0.92195  0.65650  Biso   1.000  C
  H111     1.0000 0.90150  0.90900  0.71950  Biso   1.000  H
  C160     1.0000 0.94400  0.95132  0.66170  Biso   1.000  C
  H112     1.0000 0.95460  0.96290  0.73030  Biso   1.000  H
  Cu1      1.0000 0.50000  0.50000  0.00000  Biso   1.000  Cu
  Cu2      1.0000 0.00000  0.00000  0.50000  Biso   1.000  Cu
  Cu3      1.0000 0.50000  0.00000  0.00000  Biso   1.000  Cu
  Cu4      1.0000 0.00000  0.50000  0.50000  Biso   1.000  Cu
  Cu5      1.0000 0.77376  0.25000  0.84324  Biso   1.000  Cu
  Cu6      1.0000 0.27376  0.75000  0.34324  Biso   1.000  Cu
  Cu7      1.0000 0.22624  0.25000  0.84324  Biso   1.000  Cu
  Cu8      1.0000 0.72624  0.75000  0.34324  Biso   1.000  Cu
  Cu9      1.0000 0.22624  0.75000  0.15676  Biso   1.000  Cu
  Cu10     1.0000 0.72624  0.25000  0.65676  Biso   1.000  Cu
  Cu11     1.0000 0.77376  0.75000  0.15676  Biso   1.000  Cu
  Cu12     1.0000 0.27376  0.25000  0.65676  Biso   1.000  Cu
