data_image0
_cell_length_a       11.6752
_cell_length_b       11.6752
_cell_length_c       12.8954
_cell_angle_alpha    90
_cell_angle_beta     90
_cell_angle_gamma    90

_symmetry_space_group_name_H-M    "P 1"
_symmetry_int_tables_number       1

loop_
  _symmetry_equiv_pos_as_xyz
  'x, y, z'

loop_
  _atom_site_label
  _atom_site_occupancy
  _atom_site_fract_x
  _atom_site_fract_y
  _atom_site_fract_z
  _atom_site_thermal_displace_type
  _atom_site_B_iso_or_equiv
  _atom_site_type_symbol
  N1       1.0000 0.20086  0.13160  0.38789  Biso   1.000  N
  N2       1.0000 0.41190  0.27900  0.61089  Biso   1.000  N
  C1       1.0000 0.13320  0.08140  0.34200  Biso   1.000  C
  C2       1.0000 0.44900  0.35350  0.65890  Biso   1.000  C
  N3       1.0000 0.70086  0.63160  0.88789  Biso   1.000  N
  N4       1.0000 0.91190  0.77900  0.11089  Biso   1.000  N
  C3       1.0000 0.63320  0.58140  0.84200  Biso   1.000  C
  C4       1.0000 0.94900  0.85350  0.15890  Biso   1.000  C
  N5       1.0000 0.79914  0.86840  0.38789  Biso   1.000  N
  N6       1.0000 0.58810  0.72100  0.61089  Biso   1.000  N
  C5       1.0000 0.86680  0.91860  0.34200  Biso   1.000  C
  C6       1.0000 0.55100  0.64650  0.65890  Biso   1.000  C
  N7       1.0000 0.29914  0.36840  0.88789  Biso   1.000  N
  N8       1.0000 0.08810  0.22100  0.11089  Biso   1.000  N
  C7       1.0000 0.36680  0.41860  0.84200  Biso   1.000  C
  C8       1.0000 0.05100  0.14650  0.15890  Biso   1.000  C
  N9       1.0000 0.86840  0.20086  0.38789  Biso   1.000  N
  N10      1.0000 0.72100  0.41190  0.61089  Biso   1.000  N
  C9       1.0000 0.91860  0.13320  0.34200  Biso   1.000  C
  C10      1.0000 0.64650  0.44900  0.65890  Biso   1.000  C
  N11      1.0000 0.36840  0.70086  0.88789  Biso   1.000  N
  N12      1.0000 0.22100  0.91190  0.11089  Biso   1.000  N
  C11      1.0000 0.41860  0.63320  0.84200  Biso   1.000  C
  C12      1.0000 0.14650  0.94900  0.15890  Biso   1.000  C
  N13      1.0000 0.13160  0.79914  0.38789  Biso   1.000  N
  N14      1.0000 0.27900  0.58810  0.61089  Biso   1.000  N
  C13      1.0000 0.08140  0.86680  0.34200  Biso   1.000  C
  C14      1.0000 0.35350  0.55100  0.65890  Biso   1.000  C
  N15      1.0000 0.63160  0.29914  0.88789  Biso   1.000  N
  N16      1.0000 0.77900  0.08810  0.11089  Biso   1.000  N
  C15      1.0000 0.58140  0.36680  0.84200  Biso   1.000  C
  C16      1.0000 0.85350  0.05100  0.15890  Biso   1.000  C
  N17      1.0000 0.79914  0.86840  0.61211  Biso   1.000  N
  N18      1.0000 0.58810  0.72100  0.38911  Biso   1.000  N
  C17      1.0000 0.86680  0.91860  0.65800  Biso   1.000  C
  C18      1.0000 0.55100  0.64650  0.34110  Biso   1.000  C
  N19      1.0000 0.29914  0.36840  0.11211  Biso   1.000  N
  N20      1.0000 0.08810  0.22100  0.88911  Biso   1.000  N
  C19      1.0000 0.36680  0.41860  0.15800  Biso   1.000  C
  C20      1.0000 0.05100  0.14650  0.84110  Biso   1.000  C
  N21      1.0000 0.20086  0.13160  0.61211  Biso   1.000  N
  N22      1.0000 0.41190  0.27900  0.38911  Biso   1.000  N
  C21      1.0000 0.13320  0.08140  0.65800  Biso   1.000  C
  C22      1.0000 0.44900  0.35350  0.34110  Biso   1.000  C
  N23      1.0000 0.70086  0.63160  0.11211  Biso   1.000  N
  N24      1.0000 0.91190  0.77900  0.88911  Biso   1.000  N
  C23      1.0000 0.63320  0.58140  0.15800  Biso   1.000  C
  C24      1.0000 0.94900  0.85350  0.84110  Biso   1.000  C
  N25      1.0000 0.13160  0.79914  0.61211  Biso   1.000  N
  N26      1.0000 0.27900  0.58810  0.38911  Biso   1.000  N
  C25      1.0000 0.08140  0.86680  0.65800  Biso   1.000  C
  C26      1.0000 0.35350  0.55100  0.34110  Biso   1.000  C
  N27      1.0000 0.63160  0.29914  0.11211  Biso   1.000  N
  N28      1.0000 0.77900  0.08810  0.88911  Biso   1.000  N
  C27      1.0000 0.58140  0.36680  0.15800  Biso   1.000  C
  C28      1.0000 0.85350  0.05100  0.84110  Biso   1.000  C
  N29      1.0000 0.86840  0.20086  0.61211  Biso   1.000  N
  N30      1.0000 0.72100  0.41190  0.38911  Biso   1.000  N
  C29      1.0000 0.91860  0.13320  0.65800  Biso   1.000  C
  C30      1.0000 0.64650  0.44900  0.34110  Biso   1.000  C
  N31      1.0000 0.36840  0.70086  0.11211  Biso   1.000  N
  N32      1.0000 0.22100  0.91190  0.88911  Biso   1.000  N
  C31      1.0000 0.41860  0.63320  0.15800  Biso   1.000  C
  C32      1.0000 0.14650  0.94900  0.84110  Biso   1.000  C
  W1       1.0000 0.00000  0.00000  0.25101  Biso   1.000  W
  W2       1.0000 0.50000  0.50000  0.75101  Biso   1.000  W
  W3       1.0000 0.00000  0.00000  0.74899  Biso   1.000  W
  W4       1.0000 0.50000  0.50000  0.24899  Biso   1.000  W
  Ni1      1.0000 0.30589  0.20181  0.50000  Biso   1.000  Ni
  Ni2      1.0000 0.80589  0.70181  0.00000  Biso   1.000  Ni
  Ni3      1.0000 0.69411  0.79819  0.50000  Biso   1.000  Ni
  Ni4      1.0000 0.19411  0.29819  0.00000  Biso   1.000  Ni
  Ni5      1.0000 0.79819  0.30589  0.50000  Biso   1.000  Ni
  Ni6      1.0000 0.29819  0.80589  0.00000  Biso   1.000  Ni
  Ni7      1.0000 0.20181  0.69411  0.50000  Biso   1.000  Ni
  Ni8      1.0000 0.70181  0.19411  0.00000  Biso   1.000  Ni
