data_image0
_cell_length_a       12.932
_cell_length_b       14.338
_cell_length_c       14.51
_cell_angle_alpha    104.743
_cell_angle_beta     108.981
_cell_angle_gamma    108.119

_symmetry_space_group_name_H-M    "P 1"
_symmetry_int_tables_number       1

loop_
  _symmetry_equiv_pos_as_xyz
  'x, y, z'

loop_
  _atom_site_label
  _atom_site_occupancy
  _atom_site_fract_x
  _atom_site_fract_y
  _atom_site_fract_z
  _atom_site_thermal_displace_type
  _atom_site_B_iso_or_equiv
  _atom_site_type_symbol
  Eu1      1.0000 0.49806  0.89729  0.56945  Biso   1.000  Eu
  Mo1      1.0000 0.14214  0.71242  0.46809  Biso   1.000  Mo
  Mo2      1.0000 0.10426  0.47870  0.31954  Biso   1.000  Mo
  Mo3      1.0000 0.95852  0.26434  0.35082  Biso   1.000  Mo
  Mo4      1.0000 0.38727  0.64102  0.88939  Biso   1.000  Mo
  Mo5      1.0000 0.35948  0.40858  0.74064  Biso   1.000  Mo
  Mo6      1.0000 0.46854  0.26825  0.85139  Biso   1.000  Mo
  Na1      1.0000 0.54680  0.94260  0.90670  Biso   1.000  Na
  O1       1.0000 0.65310  0.92910  0.51190  Biso   1.000  O
  O2       1.0000 0.63070  0.02120  0.41010  Biso   1.000  O
  O3       1.0000 0.40860  0.90880  0.40630  Biso   1.000  O
  O4       1.0000 0.35170  0.94360  0.26720  Biso   1.000  O
  O5       1.0000 0.29120  0.76030  0.48660  Biso   1.000  O
  O6       1.0000 0.14860  0.56290  0.49460  Biso   1.000  O
  O7       1.0000 0.06510  0.59800  0.33080  Biso   1.000  O
  O8       1.0000 0.97670  0.61780  0.47910  Biso   1.000  O
  O9       1.0000 0.17890  0.76380  0.61750  Biso   1.000  O
  O10      1.0000 0.94230  0.41660  0.35320  Biso   1.000  O
  O11      1.0000 0.10750  0.36240  0.35790  Biso   1.000  O
  O12      1.0000 0.43720  0.84900  0.70640  Biso   1.000  O
  O13      1.0000 0.55190  0.64120  0.00700  Biso   1.000  O
  O14      1.0000 0.34970  0.47720  0.89600  Biso   1.000  O
  O15      1.0000 0.42960  0.56280  0.78910  Biso   1.000  O
  O16      1.0000 0.38010  0.67810  0.02360  Biso   1.000  O
  O17      1.0000 0.45940  0.76540  0.89520  Biso   1.000  O
  O18      1.0000 0.53010  0.44470  0.88420  Biso   1.000  O
  O19      1.0000 0.33010  0.28620  0.77310  Biso   1.000  O
  N1       1.0000 0.90170  0.86730  0.42310  Biso   1.000  N
  C1       1.0000 0.92860  0.89790  0.35020  Biso   1.000  C
  H1       1.0000 0.98320  0.87950  0.32730  Biso   1.000  H
  C2       1.0000 0.87390  0.95740  0.30960  Biso   1.000  C
  H2       1.0000 0.89140  0.98060  0.25840  Biso   1.000  H
  C3       1.0000 0.79540  0.98250  0.34280  Biso   1.000  C
  H3       1.0000 0.75830  0.02370  0.31590  Biso   1.000  H
  C4       1.0000 0.77050  0.94640  0.41710  Biso   1.000  C
  C5       1.0000 0.82170  0.88760  0.45570  Biso   1.000  C
  H4       1.0000 0.80200  0.86120  0.50450  Biso   1.000  H
  C6       1.0000 0.67590  0.96810  0.44960  Biso   1.000  C
  C7       1.0000 0.25080  0.76250  0.24810  Biso   1.000  C
  H5       1.0000 0.23690  0.74080  0.17370  Biso   1.000  H
  H6       1.0000 0.17460  0.75500  0.25210  Biso   1.000  H
  H7       1.0000 0.28090  0.71710  0.27820  Biso   1.000  H
  C8       1.0000 0.34280  0.87700  0.30960  Biso   1.000  C
  O20      1.0000 0.37340  0.97240  0.90400  Biso   1.000  O
  Eu2      1.0000 0.50194  0.10271  0.43055  Biso   1.000  Eu
  Mo7      1.0000 0.85786  0.28758  0.53191  Biso   1.000  Mo
  Mo8      1.0000 0.89574  0.52130  0.68046  Biso   1.000  Mo
  Mo9      1.0000 0.04148  0.73566  0.64918  Biso   1.000  Mo
  Mo10     1.0000 0.61273  0.35898  0.11061  Biso   1.000  Mo
  Mo11     1.0000 0.64052  0.59142  0.25936  Biso   1.000  Mo
  Mo12     1.0000 0.53146  0.73175  0.14861  Biso   1.000  Mo
  Na2      1.0000 0.45320  0.05740  0.09330  Biso   1.000  Na
  O21      1.0000 0.34690  0.07090  0.48810  Biso   1.000  O
  O22      1.0000 0.36930  0.97880  0.58990  Biso   1.000  O
  O23      1.0000 0.59140  0.09120  0.59370  Biso   1.000  O
  O24      1.0000 0.64830  0.05640  0.73280  Biso   1.000  O
  O25      1.0000 0.70880  0.23970  0.51340  Biso   1.000  O
  O26      1.0000 0.85140  0.43710  0.50540  Biso   1.000  O
  O27      1.0000 0.93490  0.40200  0.66920  Biso   1.000  O
  O28      1.0000 0.02330  0.38220  0.52090  Biso   1.000  O
  O29      1.0000 0.82110  0.23620  0.38250  Biso   1.000  O
  O30      1.0000 0.05770  0.58340  0.64680  Biso   1.000  O
  O31      1.0000 0.89250  0.63760  0.64210  Biso   1.000  O
  O32      1.0000 0.56280  0.15100  0.29360  Biso   1.000  O
  O33      1.0000 0.44810  0.35880  0.99300  Biso   1.000  O
  O34      1.0000 0.65030  0.52280  0.10400  Biso   1.000  O
  O35      1.0000 0.57040  0.43720  0.21090  Biso   1.000  O
  O36      1.0000 0.61990  0.32190  0.97640  Biso   1.000  O
  O37      1.0000 0.54060  0.23460  0.10480  Biso   1.000  O
  O38      1.0000 0.46990  0.55530  0.11580  Biso   1.000  O
  O39      1.0000 0.66990  0.71380  0.22690  Biso   1.000  O
  N2       1.0000 0.09830  0.13270  0.57690  Biso   1.000  N
  C9       1.0000 0.07140  0.10210  0.64980  Biso   1.000  C
  H8       1.0000 0.01680  0.12050  0.67270  Biso   1.000  H
  C10      1.0000 0.12610  0.04260  0.69040  Biso   1.000  C
  H9       1.0000 0.10860  0.01940  0.74160  Biso   1.000  H
  C11      1.0000 0.20460  0.01750  0.65720  Biso   1.000  C
  H10      1.0000 0.24170  0.97630  0.68410  Biso   1.000  H
  C12      1.0000 0.22950  0.05360  0.58290  Biso   1.000  C
  C13      1.0000 0.17830  0.11240  0.54430  Biso   1.000  C
  H11      1.0000 0.19800  0.13880  0.49550  Biso   1.000  H
  C14      1.0000 0.32410  0.03190  0.55040  Biso   1.000  C
  C15      1.0000 0.74920  0.23750  0.75190  Biso   1.000  C
  H12      1.0000 0.76310  0.25920  0.82630  Biso   1.000  H
  H13      1.0000 0.82540  0.24500  0.74790  Biso   1.000  H
  H14      1.0000 0.71910  0.28290  0.72180  Biso   1.000  H
  C16      1.0000 0.65720  0.12300  0.69040  Biso   1.000  C
  O40      1.0000 0.62660  0.02760  0.09600  Biso   1.000  O
  Al1      1.0000 0.00000  0.50000  0.50000  Biso   1.000  Al
  Al2      1.0000 0.50000  0.50000  0.00000  Biso   1.000  Al
