data_image0
_cell_length_a       6.5017
_cell_length_b       10.155
_cell_length_c       16.3582
_cell_angle_alpha    87.041
_cell_angle_beta     87.177
_cell_angle_gamma    81.427

_symmetry_space_group_name_H-M    "P 1"
_symmetry_int_tables_number       1

loop_
  _symmetry_equiv_pos_as_xyz
  'x, y, z'

loop_
  _atom_site_label
  _atom_site_occupancy
  _atom_site_fract_x
  _atom_site_fract_y
  _atom_site_fract_z
  _atom_site_thermal_displace_type
  _atom_site_B_iso_or_equiv
  _atom_site_type_symbol
  Co1      1.0000 0.86578  0.50211  0.26905  Biso   1.000  Co
  Co2      1.0000 0.02927  0.84552  0.99664  Biso   1.000  Co
  O1       1.0000 0.20220  0.00351  0.96482  Biso   1.000  O
  H1       1.0000 0.29510  0.00600  0.90490  Biso   1.000  H
  O2       1.0000 0.15720  0.58969  0.27394  Biso   1.000  O
  O3       1.0000 0.85220  0.71101  0.25593  Biso   1.000  O
  O4       1.0000 0.73830  0.20621  0.27031  Biso   1.000  O
  O5       1.0000 0.00580  0.31412  0.28765  Biso   1.000  O
  O6       1.0000 0.41370  0.13503  0.09857  Biso   1.000  O
  O7       1.0000 0.07280  0.14191  0.12089  Biso   1.000  O
  O8       1.0000 0.47010  0.84145  0.08791  Biso   1.000  O
  O9       1.0000 0.13970  0.81151  0.11239  Biso   1.000  O
  N1       1.0000 0.77380  0.52990  0.39350  Biso   1.000  N
  N2       1.0000 0.68890  0.62920  0.50948  Biso   1.000  N
  C1       1.0000 0.70810  0.64450  0.42743  Biso   1.000  C
  H2       1.0000 0.67870  0.72570  0.39830  Biso   1.000  H
  C2       1.0000 0.79430  0.43640  0.45792  Biso   1.000  C
  H3       1.0000 0.83660  0.34540  0.45290  Biso   1.000  H
  C3       1.0000 0.74360  0.49690  0.52962  Biso   1.000  C
  H4       1.0000 0.74570  0.45650  0.58200  Biso   1.000  H
  C4       1.0000 0.62520  0.73160  0.57008  Biso   1.000  C
  H5       1.0000 0.74000  0.73420  0.60540  Biso   1.000  H
  H6       1.0000 0.50980  0.70620  0.60410  Biso   1.000  H
  C5       1.0000 0.56080  0.86940  0.53231  Biso   1.000  C
  C6       1.0000 0.70600  0.94290  0.49483  Biso   1.000  C
  H7       1.0000 0.84540  0.90530  0.49110  Biso   1.000  H
  C7       1.0000 0.35330  0.92870  0.53702  Biso   1.000  C
  H8       1.0000 0.25330  0.88150  0.56190  Biso   1.000  H
  C8       1.0000 0.14070  0.82750  0.27997  Biso   1.000  C
  H9       1.0000 0.18030  0.82140  0.33720  Biso   1.000  H
  C9       1.0000 0.98350  0.95580  0.26999  Biso   1.000  C
  H10      1.0000 0.93340  0.96350  0.21480  Biso   1.000  H
  H11      1.0000 0.86510  0.95070  0.30790  Biso   1.000  H
  C10      1.0000 0.08150  0.07950  0.28618  Biso   1.000  C
  H12      1.0000 0.11970  0.06960  0.34360  Biso   1.000  H
  C11      1.0000 0.28500  0.08850  0.23590  Biso   1.000  C
  H13      1.0000 0.34970  0.15930  0.25830  Biso   1.000  H
  C12      1.0000 0.43590  0.95780  0.24743  Biso   1.000  C
  H14      1.0000 0.55960  0.96270  0.21240  Biso   1.000  H
  H15      1.0000 0.47810  0.94860  0.30370  Biso   1.000  H
  C13      1.0000 0.34250  0.83350  0.22760  Biso   1.000  C
  H16      1.0000 0.44210  0.75530  0.24370  Biso   1.000  H
  C14      1.0000 0.04290  0.70340  0.26698  Biso   1.000  C
  C15      1.0000 0.31240  0.82800  0.13572  Biso   1.000  C
  C16      1.0000 0.92550  0.20830  0.27927  Biso   1.000  C
  C17      1.0000 0.25350  0.12530  0.14495  Biso   1.000  C
  Co3      1.0000 0.13422  0.49789  0.73095  Biso   1.000  Co
  Co4      1.0000 0.97073  0.15448  0.00336  Biso   1.000  Co
  O10      1.0000 0.79780  0.99649  0.03518  Biso   1.000  O
  H17      1.0000 0.70490  0.99400  0.09510  Biso   1.000  H
  O11      1.0000 0.84280  0.41031  0.72606  Biso   1.000  O
  O12      1.0000 0.14780  0.28899  0.74407  Biso   1.000  O
  O13      1.0000 0.26170  0.79379  0.72969  Biso   1.000  O
  O14      1.0000 0.99420  0.68588  0.71235  Biso   1.000  O
  O15      1.0000 0.58630  0.86497  0.90143  Biso   1.000  O
  O16      1.0000 0.92720  0.85809  0.87911  Biso   1.000  O
  O17      1.0000 0.52990  0.15855  0.91209  Biso   1.000  O
  O18      1.0000 0.86030  0.18849  0.88761  Biso   1.000  O
  N3       1.0000 0.22620  0.47010  0.60650  Biso   1.000  N
  N4       1.0000 0.31110  0.37080  0.49052  Biso   1.000  N
  C18      1.0000 0.29190  0.35550  0.57257  Biso   1.000  C
  H18      1.0000 0.32130  0.27430  0.60170  Biso   1.000  H
  C19      1.0000 0.20570  0.56360  0.54208  Biso   1.000  C
  H19      1.0000 0.16340  0.65460  0.54710  Biso   1.000  H
  C20      1.0000 0.25640  0.50310  0.47038  Biso   1.000  C
  H20      1.0000 0.25430  0.54350  0.41800  Biso   1.000  H
  C21      1.0000 0.37480  0.26840  0.42992  Biso   1.000  C
  H21      1.0000 0.26000  0.26580  0.39460  Biso   1.000  H
  H22      1.0000 0.49020  0.29380  0.39590  Biso   1.000  H
  C22      1.0000 0.43920  0.13060  0.46769  Biso   1.000  C
  C23      1.0000 0.29400  0.05710  0.50517  Biso   1.000  C
  H23      1.0000 0.15460  0.09470  0.50890  Biso   1.000  H
  C24      1.0000 0.64670  0.07130  0.46298  Biso   1.000  C
  H24      1.0000 0.74670  0.11850  0.43810  Biso   1.000  H
  C25      1.0000 0.85930  0.17250  0.72003  Biso   1.000  C
  H25      1.0000 0.81970  0.17860  0.66280  Biso   1.000  H
  C26      1.0000 0.01650  0.04420  0.73001  Biso   1.000  C
  H26      1.0000 0.06660  0.03650  0.78520  Biso   1.000  H
  H27      1.0000 0.13490  0.04930  0.69210  Biso   1.000  H
  C27      1.0000 0.91850  0.92050  0.71382  Biso   1.000  C
  H28      1.0000 0.88030  0.93040  0.65640  Biso   1.000  H
  C28      1.0000 0.71500  0.91150  0.76410  Biso   1.000  C
  H29      1.0000 0.65030  0.84070  0.74170  Biso   1.000  H
  C29      1.0000 0.56410  0.04220  0.75257  Biso   1.000  C
  H30      1.0000 0.44040  0.03730  0.78760  Biso   1.000  H
  H31      1.0000 0.52190  0.05140  0.69630  Biso   1.000  H
  C30      1.0000 0.65750  0.16650  0.77240  Biso   1.000  C
  H32      1.0000 0.55790  0.24470  0.75630  Biso   1.000  H
  C31      1.0000 0.95710  0.29660  0.73302  Biso   1.000  C
  C32      1.0000 0.68760  0.17200  0.86428  Biso   1.000  C
  C33      1.0000 0.07450  0.79170  0.72073  Biso   1.000  C
  C34      1.0000 0.74650  0.87470  0.85505  Biso   1.000  C
  Co5      1.0000 0.50000  0.00000  0.00000  Biso   1.000  Co
