data_image0
_cell_length_a       10.031
_cell_length_b       14.541
_cell_length_c       23.562
_cell_angle_alpha    90
_cell_angle_beta     96.381
_cell_angle_gamma    90

_symmetry_space_group_name_H-M    "P 1"
_symmetry_int_tables_number       1

loop_
  _symmetry_equiv_pos_as_xyz
  'x, y, z'

loop_
  _atom_site_label
  _atom_site_occupancy
  _atom_site_fract_x
  _atom_site_fract_y
  _atom_site_fract_z
  _atom_site_thermal_displace_type
  _atom_site_B_iso_or_equiv
  _atom_site_type_symbol
  C1       1.0000 0.19530  0.46950  0.34510  Biso   1.000  C
  C2       1.0000 0.07010  0.42540  0.35970  Biso   1.000  C
  C3       1.0000 0.94590  0.46570  0.34340  Biso   1.000  C
  H1       1.0000 0.94070  0.52110  0.32360  Biso   1.000  H
  C4       1.0000 0.83080  0.42300  0.35660  Biso   1.000  C
  C5       1.0000 0.83880  0.33970  0.38460  Biso   1.000  C
  H2       1.0000 0.76070  0.30870  0.39100  Biso   1.000  H
  C6       1.0000 0.96080  0.30270  0.40300  Biso   1.000  C
  C7       1.0000 0.07770  0.34340  0.39020  Biso   1.000  C
  H3       1.0000 0.16030  0.31640  0.40170  Biso   1.000  H
  C8       1.0000 0.69440  0.46760  0.34040  Biso   1.000  C
  C9       1.0000 0.07300  0.17120  0.44590  Biso   1.000  C
  H4       1.0000 0.13150  0.20680  0.47310  Biso   1.000  H
  H5       1.0000 0.11970  0.16060  0.41260  Biso   1.000  H
  C10      1.0000 0.04160  0.07830  0.47270  Biso   1.000  C
  C11      1.0000 0.91390  0.07100  0.49090  Biso   1.000  C
  H6       1.0000 0.85570  0.12070  0.48500  Biso   1.000  H
  C12      1.0000 0.12890  0.00470  0.48330  Biso   1.000  C
  C13      1.0000 0.27050  0.00830  0.46550  Biso   1.000  C
  H7       1.0000 0.32010  0.95510  0.48120  Biso   1.000  H
  H8       1.0000 0.26490  0.00420  0.42420  Biso   1.000  H
  C14      1.0000 0.38230  0.09620  0.54010  Biso   1.000  C
  C15      1.0000 0.43310  0.18410  0.55570  Biso   1.000  C
  H9       1.0000 0.44150  0.22840  0.52790  Biso   1.000  H
  C16      1.0000 0.47060  0.20420  0.61330  Biso   1.000  C
  C17      1.0000 0.46050  0.13630  0.65380  Biso   1.000  C
  H10      1.0000 0.49010  0.14840  0.69190  Biso   1.000  H
  C18      1.0000 0.40720  0.05060  0.63860  Biso   1.000  C
  C19      1.0000 0.36920  0.03250  0.58200  Biso   1.000  C
  H11      1.0000 0.33340  0.97520  0.57170  Biso   1.000  H
  C20      1.0000 0.51680  0.29820  0.63280  Biso   1.000  C
  C21      1.0000 0.39500  0.98400  0.68450  Biso   1.000  C
  Cd1      1.0000 0.43808  0.53609  0.31945  Biso   1.000  Cd
  O1       1.0000 0.19010  0.54270  0.31810  Biso   1.000  O
  O2       1.0000 0.30480  0.43390  0.36310  Biso   1.000  O
  O3       1.0000 0.69080  0.54050  0.31590  Biso   1.000  O
  O4       1.0000 0.59460  0.42810  0.35250  Biso   1.000  O
  O5       1.0000 0.96110  0.21860  0.43070  Biso   1.000  O
  O6       1.0000 0.34350  0.08970  0.48370  Biso   1.000  O
  O7       1.0000 0.52190  0.35970  0.59850  Biso   1.000  O
  O8       1.0000 0.54800  0.31190  0.68380  Biso   1.000  O
  O9       1.0000 0.42420  0.00340  0.73120  Biso   1.000  O
  O10      1.0000 0.35180  0.90590  0.67070  Biso   1.000  O
  C22      1.0000 0.80470  0.96950  0.15490  Biso   1.000  C
  C23      1.0000 0.92990  0.92540  0.14030  Biso   1.000  C
  C24      1.0000 0.05410  0.96570  0.15660  Biso   1.000  C
  H12      1.0000 0.05930  0.02110  0.17640  Biso   1.000  H
  C25      1.0000 0.16920  0.92300  0.14340  Biso   1.000  C
  C26      1.0000 0.16120  0.83970  0.11540  Biso   1.000  C
  H13      1.0000 0.23930  0.80870  0.10900  Biso   1.000  H
  C27      1.0000 0.03920  0.80270  0.09700  Biso   1.000  C
  C28      1.0000 0.92230  0.84340  0.10980  Biso   1.000  C
  H14      1.0000 0.83970  0.81640  0.09830  Biso   1.000  H
  C29      1.0000 0.30560  0.96760  0.15960  Biso   1.000  C
  C30      1.0000 0.92700  0.67120  0.05410  Biso   1.000  C
  H15      1.0000 0.86850  0.70680  0.02690  Biso   1.000  H
  H16      1.0000 0.88030  0.66060  0.08740  Biso   1.000  H
  C31      1.0000 0.95840  0.57830  0.02730  Biso   1.000  C
  C32      1.0000 0.08610  0.57100  0.00910  Biso   1.000  C
  H17      1.0000 0.14430  0.62070  0.01500  Biso   1.000  H
  C33      1.0000 0.87110  0.50470  0.01670  Biso   1.000  C
  C34      1.0000 0.72950  0.50830  0.03450  Biso   1.000  C
  H18      1.0000 0.67990  0.45510  0.01880  Biso   1.000  H
  H19      1.0000 0.73510  0.50420  0.07580  Biso   1.000  H
  C35      1.0000 0.61770  0.59620  0.95990  Biso   1.000  C
  C36      1.0000 0.56690  0.68410  0.94430  Biso   1.000  C
  H20      1.0000 0.55850  0.72840  0.97210  Biso   1.000  H
  C37      1.0000 0.52940  0.70420  0.88670  Biso   1.000  C
  C38      1.0000 0.53950  0.63630  0.84620  Biso   1.000  C
  H21      1.0000 0.50990  0.64840  0.80810  Biso   1.000  H
  C39      1.0000 0.59280  0.55060  0.86140  Biso   1.000  C
  C40      1.0000 0.63080  0.53250  0.91800  Biso   1.000  C
  H22      1.0000 0.66660  0.47520  0.92830  Biso   1.000  H
  C41      1.0000 0.48320  0.79820  0.86720  Biso   1.000  C
  C42      1.0000 0.60500  0.48400  0.81550  Biso   1.000  C
  Cd2      1.0000 0.56192  0.03609  0.18055  Biso   1.000  Cd
  O11      1.0000 0.80990  0.04270  0.18190  Biso   1.000  O
  O12      1.0000 0.69520  0.93390  0.13690  Biso   1.000  O
  O13      1.0000 0.30920  0.04050  0.18410  Biso   1.000  O
  O14      1.0000 0.40540  0.92810  0.14750  Biso   1.000  O
  O15      1.0000 0.03890  0.71860  0.06930  Biso   1.000  O
  O16      1.0000 0.65650  0.58970  0.01630  Biso   1.000  O
  O17      1.0000 0.47810  0.85970  0.90150  Biso   1.000  O
  O18      1.0000 0.45200  0.81190  0.81620  Biso   1.000  O
  O19      1.0000 0.57580  0.50340  0.76880  Biso   1.000  O
  O20      1.0000 0.64820  0.40590  0.82930  Biso   1.000  O
  C43      1.0000 0.80470  0.53050  0.65490  Biso   1.000  C
  C44      1.0000 0.92990  0.57460  0.64030  Biso   1.000  C
  C45      1.0000 0.05410  0.53430  0.65660  Biso   1.000  C
  H23      1.0000 0.05930  0.47890  0.67640  Biso   1.000  H
  C46      1.0000 0.16920  0.57700  0.64340  Biso   1.000  C
  C47      1.0000 0.16120  0.66030  0.61540  Biso   1.000  C
  H24      1.0000 0.23930  0.69130  0.60900  Biso   1.000  H
  C48      1.0000 0.03920  0.69730  0.59700  Biso   1.000  C
  C49      1.0000 0.92230  0.65660  0.60980  Biso   1.000  C
  H25      1.0000 0.83970  0.68360  0.59830  Biso   1.000  H
  C50      1.0000 0.30560  0.53240  0.65960  Biso   1.000  C
  C51      1.0000 0.92700  0.82880  0.55410  Biso   1.000  C
  H26      1.0000 0.86850  0.79320  0.52690  Biso   1.000  H
  H27      1.0000 0.88030  0.83940  0.58740  Biso   1.000  H
  C52      1.0000 0.95840  0.92170  0.52730  Biso   1.000  C
  C53      1.0000 0.08610  0.92900  0.50910  Biso   1.000  C
  H28      1.0000 0.14430  0.87930  0.51500  Biso   1.000  H
  C54      1.0000 0.87110  0.99530  0.51670  Biso   1.000  C
  C55      1.0000 0.72950  0.99170  0.53450  Biso   1.000  C
  H29      1.0000 0.67990  0.04490  0.51880  Biso   1.000  H
  H30      1.0000 0.73510  0.99580  0.57580  Biso   1.000  H
  C56      1.0000 0.61770  0.90380  0.45990  Biso   1.000  C
  C57      1.0000 0.56690  0.81590  0.44430  Biso   1.000  C
  H31      1.0000 0.55850  0.77160  0.47210  Biso   1.000  H
  C58      1.0000 0.52940  0.79580  0.38670  Biso   1.000  C
  C59      1.0000 0.53950  0.86370  0.34620  Biso   1.000  C
  H32      1.0000 0.50990  0.85160  0.30810  Biso   1.000  H
  C60      1.0000 0.59280  0.94940  0.36140  Biso   1.000  C
  C61      1.0000 0.63080  0.96750  0.41800  Biso   1.000  C
  H33      1.0000 0.66660  0.02480  0.42830  Biso   1.000  H
  C62      1.0000 0.48320  0.70180  0.36720  Biso   1.000  C
  C63      1.0000 0.60500  0.01600  0.31550  Biso   1.000  C
  Cd3      1.0000 0.56192  0.46391  0.68055  Biso   1.000  Cd
  O21      1.0000 0.80990  0.45730  0.68190  Biso   1.000  O
  O22      1.0000 0.69520  0.56610  0.63690  Biso   1.000  O
  O23      1.0000 0.30920  0.45950  0.68410  Biso   1.000  O
  O24      1.0000 0.40540  0.57190  0.64750  Biso   1.000  O
  O25      1.0000 0.03890  0.78140  0.56930  Biso   1.000  O
  O26      1.0000 0.65650  0.91030  0.51630  Biso   1.000  O
  O27      1.0000 0.47810  0.64030  0.40150  Biso   1.000  O
  O28      1.0000 0.45200  0.68810  0.31620  Biso   1.000  O
  O29      1.0000 0.57580  0.99660  0.26880  Biso   1.000  O
  O30      1.0000 0.64820  0.09410  0.32930  Biso   1.000  O
  C64      1.0000 0.19530  0.03050  0.84510  Biso   1.000  C
  C65      1.0000 0.07010  0.07460  0.85970  Biso   1.000  C
  C66      1.0000 0.94590  0.03430  0.84340  Biso   1.000  C
  H34      1.0000 0.94070  0.97890  0.82360  Biso   1.000  H
  C67      1.0000 0.83080  0.07700  0.85660  Biso   1.000  C
  C68      1.0000 0.83880  0.16030  0.88460  Biso   1.000  C
  H35      1.0000 0.76070  0.19130  0.89100  Biso   1.000  H
  C69      1.0000 0.96080  0.19730  0.90300  Biso   1.000  C
  C70      1.0000 0.07770  0.15660  0.89020  Biso   1.000  C
  H36      1.0000 0.16030  0.18360  0.90170  Biso   1.000  H
  C71      1.0000 0.69440  0.03240  0.84040  Biso   1.000  C
  C72      1.0000 0.07300  0.32880  0.94590  Biso   1.000  C
  H37      1.0000 0.13150  0.29320  0.97310  Biso   1.000  H
  H38      1.0000 0.11970  0.33940  0.91260  Biso   1.000  H
  C73      1.0000 0.04160  0.42170  0.97270  Biso   1.000  C
  C74      1.0000 0.91390  0.42900  0.99090  Biso   1.000  C
  H39      1.0000 0.85570  0.37930  0.98500  Biso   1.000  H
  C75      1.0000 0.12890  0.49530  0.98330  Biso   1.000  C
  C76      1.0000 0.27050  0.49170  0.96550  Biso   1.000  C
  H40      1.0000 0.32010  0.54490  0.98120  Biso   1.000  H
  H41      1.0000 0.26490  0.49580  0.92420  Biso   1.000  H
  C77      1.0000 0.38230  0.40380  0.04010  Biso   1.000  C
  C78      1.0000 0.43310  0.31590  0.05570  Biso   1.000  C
  H42      1.0000 0.44150  0.27160  0.02790  Biso   1.000  H
  C79      1.0000 0.47060  0.29580  0.11330  Biso   1.000  C
  C80      1.0000 0.46050  0.36370  0.15380  Biso   1.000  C
  H43      1.0000 0.49010  0.35160  0.19190  Biso   1.000  H
  C81      1.0000 0.40720  0.44940  0.13860  Biso   1.000  C
  C82      1.0000 0.36920  0.46750  0.08200  Biso   1.000  C
  H44      1.0000 0.33340  0.52480  0.07170  Biso   1.000  H
  C83      1.0000 0.51680  0.20180  0.13280  Biso   1.000  C
  C84      1.0000 0.39500  0.51600  0.18450  Biso   1.000  C
  Cd4      1.0000 0.43808  0.96391  0.81945  Biso   1.000  Cd
  O31      1.0000 0.19010  0.95730  0.81810  Biso   1.000  O
  O32      1.0000 0.30480  0.06610  0.86310  Biso   1.000  O
  O33      1.0000 0.69080  0.95950  0.81590  Biso   1.000  O
  O34      1.0000 0.59460  0.07190  0.85250  Biso   1.000  O
  O35      1.0000 0.96110  0.28140  0.93070  Biso   1.000  O
  O36      1.0000 0.34350  0.41030  0.98370  Biso   1.000  O
  O37      1.0000 0.52190  0.14030  0.09850  Biso   1.000  O
  O38      1.0000 0.54800  0.18810  0.18380  Biso   1.000  O
  O39      1.0000 0.42420  0.49660  0.23120  Biso   1.000  O
  O40      1.0000 0.35180  0.59410  0.17070  Biso   1.000  O
