data_image0
_cell_length_a       26.6152
_cell_length_b       11.7449
_cell_length_c       29.5923
_cell_angle_alpha    90
_cell_angle_beta     90
_cell_angle_gamma    90

_symmetry_space_group_name_H-M    "P 1"
_symmetry_int_tables_number       1

loop_
  _symmetry_equiv_pos_as_xyz
  'x, y, z'

loop_
  _atom_site_label
  _atom_site_occupancy
  _atom_site_fract_x
  _atom_site_fract_y
  _atom_site_fract_z
  _atom_site_thermal_displace_type
  _atom_site_B_iso_or_equiv
  _atom_site_type_symbol
  Cd1      1.0000 0.72096  0.77963  0.48138  Biso   1.000  Cd
  Cd2      1.0000 0.49425  0.26071  0.62239  Biso   1.000  Cd
  O1       1.0000 0.72034  0.93840  0.53786  Biso   1.000  O
  O2       1.0000 0.67532  0.78590  0.54939  Biso   1.000  O
  O3       1.0000 0.56829  0.75710  0.69157  Biso   1.000  O
  O4       1.0000 0.54093  0.91990  0.71614  Biso   1.000  O
  O5       1.0000 0.57779  0.28700  0.62106  Biso   1.000  O
  O6       1.0000 0.55644  0.25220  0.69203  Biso   1.000  O
  O7       1.0000 0.64248  0.60750  0.69482  Biso   1.000  O
  H1       1.0000 0.62410  0.66550  0.69630  Biso   1.000  H
  O8       1.0000 0.57754  0.49320  0.68578  Biso   1.000  O
  O9       1.0000 0.45892  0.59710  0.71614  Biso   1.000  O
  O10      1.0000 0.42733  0.76210  0.69902  Biso   1.000  O
  O11      1.0000 0.27549  0.75030  0.58740  Biso   1.000  O
  O12      1.0000 0.25963  0.58150  0.56005  Biso   1.000  O
  O13      1.0000 0.35581  0.91140  0.70914  Biso   1.000  O
  H2       1.0000 0.37390  0.85280  0.70900  Biso   1.000  H
  O14      1.0000 0.41843  0.02240  0.68600  Biso   1.000  O
  O15      1.0000 0.40876  0.23480  0.62355  Biso   1.000  O
  O16      1.0000 0.44088  0.26320  0.69120  Biso   1.000  O
  C1       1.0000 0.69008  0.88310  0.56112  Biso   1.000  C
  C2       1.0000 0.66812  0.93590  0.60357  Biso   1.000  C
  C3       1.0000 0.63314  0.87590  0.62880  Biso   1.000  C
  H3       1.0000 0.62410  0.80240  0.62040  Biso   1.000  H
  C4       1.0000 0.61156  0.92600  0.66672  Biso   1.000  C
  C5       1.0000 0.62555  0.03580  0.67925  Biso   1.000  C
  H4       1.0000 0.61040  0.06980  0.70420  Biso   1.000  H
  C6       1.0000 0.66180  0.09560  0.65502  Biso   1.000  C
  C7       1.0000 0.68351  0.04400  0.61679  Biso   1.000  C
  H5       1.0000 0.70810  0.08220  0.60040  Biso   1.000  H
  C8       1.0000 0.57145  0.86430  0.69321  Biso   1.000  C
  C9       1.0000 0.67793  0.21290  0.66833  Biso   1.000  C
  C10      1.0000 0.64280  0.30210  0.67455  Biso   1.000  C
  C11      1.0000 0.65938  0.41100  0.68593  Biso   1.000  C
  C12      1.0000 0.71063  0.43140  0.69267  Biso   1.000  C
  H6       1.0000 0.72140  0.50350  0.70130  Biso   1.000  H
  C13      1.0000 0.74514  0.34560  0.68659  Biso   1.000  C
  H7       1.0000 0.77920  0.35960  0.69090  Biso   1.000  H
  C14      1.0000 0.72886  0.23850  0.67395  Biso   1.000  C
  H8       1.0000 0.75250  0.18160  0.66900  Biso   1.000  H
  C15      1.0000 0.58835  0.27940  0.66308  Biso   1.000  C
  C16      1.0000 0.62220  0.50640  0.68888  Biso   1.000  C
  C17      1.0000 0.42464  0.65300  0.69889  Biso   1.000  C
  C18      1.0000 0.38050  0.59360  0.67765  Biso   1.000  C
  C19      1.0000 0.35092  0.64870  0.64537  Biso   1.000  C
  H9       1.0000 0.35750  0.72390  0.63760  Biso   1.000  H
  C20      1.0000 0.31136  0.59030  0.62473  Biso   1.000  C
  C21      1.0000 0.30113  0.47740  0.63726  Biso   1.000  C
  H10      1.0000 0.27500  0.43850  0.62320  Biso   1.000  H
  C22      1.0000 0.32973  0.42200  0.67060  Biso   1.000  C
  C23      1.0000 0.36973  0.48220  0.68970  Biso   1.000  C
  H11      1.0000 0.38980  0.44630  0.71120  Biso   1.000  H
  C24      1.0000 0.28031  0.64530  0.58886  Biso   1.000  C
  C25      1.0000 0.31676  0.30480  0.68559  Biso   1.000  C
  C26      1.0000 0.35270  0.21580  0.68551  Biso   1.000  C
  C27      1.0000 0.33866  0.10710  0.70024  Biso   1.000  C
  C28      1.0000 0.29018  0.08810  0.71603  Biso   1.000  C
  H12      1.0000 0.28150  0.01690  0.72740  Biso   1.000  H
  C29      1.0000 0.25445  0.17450  0.71504  Biso   1.000  C
  H13      1.0000 0.22180  0.16100  0.72490  Biso   1.000  H
  C30      1.0000 0.26810  0.28080  0.69920  Biso   1.000  C
  H14      1.0000 0.24390  0.33780  0.69760  Biso   1.000  H
  C31      1.0000 0.37503  0.01090  0.69740  Biso   1.000  C
  C32      1.0000 0.40462  0.23850  0.66619  Biso   1.000  C
  Cd3      1.0000 0.77904  0.72037  0.98138  Biso   1.000  Cd
  Cd4      1.0000 0.00575  0.23929  0.12239  Biso   1.000  Cd
  O17      1.0000 0.77966  0.56160  0.03786  Biso   1.000  O
  O18      1.0000 0.82468  0.71410  0.04939  Biso   1.000  O
  O19      1.0000 0.93171  0.74290  0.19157  Biso   1.000  O
  O20      1.0000 0.95907  0.58010  0.21614  Biso   1.000  O
  O21      1.0000 0.92221  0.21300  0.12106  Biso   1.000  O
  O22      1.0000 0.94356  0.24780  0.19203  Biso   1.000  O
  O23      1.0000 0.85752  0.89250  0.19482  Biso   1.000  O
  H15      1.0000 0.87590  0.83450  0.19630  Biso   1.000  H
  O24      1.0000 0.92246  0.00680  0.18578  Biso   1.000  O
  O25      1.0000 0.04108  0.90290  0.21614  Biso   1.000  O
  O26      1.0000 0.07267  0.73790  0.19902  Biso   1.000  O
  O27      1.0000 0.22451  0.74970  0.08740  Biso   1.000  O
  O28      1.0000 0.24037  0.91850  0.06005  Biso   1.000  O
  O29      1.0000 0.14419  0.58860  0.20914  Biso   1.000  O
  H16      1.0000 0.12610  0.64720  0.20900  Biso   1.000  H
  O30      1.0000 0.08157  0.47760  0.18600  Biso   1.000  O
  O31      1.0000 0.09124  0.26520  0.12355  Biso   1.000  O
  O32      1.0000 0.05912  0.23680  0.19120  Biso   1.000  O
  C33      1.0000 0.80992  0.61690  0.06112  Biso   1.000  C
  C34      1.0000 0.83188  0.56410  0.10357  Biso   1.000  C
  C35      1.0000 0.86686  0.62410  0.12880  Biso   1.000  C
  H17      1.0000 0.87590  0.69760  0.12040  Biso   1.000  H
  C36      1.0000 0.88844  0.57400  0.16672  Biso   1.000  C
  C37      1.0000 0.87445  0.46420  0.17925  Biso   1.000  C
  H18      1.0000 0.88960  0.43020  0.20420  Biso   1.000  H
  C38      1.0000 0.83820  0.40440  0.15502  Biso   1.000  C
  C39      1.0000 0.81649  0.45600  0.11679  Biso   1.000  C
  H19      1.0000 0.79190  0.41780  0.10040  Biso   1.000  H
  C40      1.0000 0.92855  0.63570  0.19321  Biso   1.000  C
  C41      1.0000 0.82207  0.28710  0.16833  Biso   1.000  C
  C42      1.0000 0.85720  0.19790  0.17455  Biso   1.000  C
  C43      1.0000 0.84062  0.08900  0.18593  Biso   1.000  C
  C44      1.0000 0.78937  0.06860  0.19267  Biso   1.000  C
  H20      1.0000 0.77860  0.99650  0.20130  Biso   1.000  H
  C45      1.0000 0.75486  0.15440  0.18659  Biso   1.000  C
  H21      1.0000 0.72080  0.14040  0.19090  Biso   1.000  H
  C46      1.0000 0.77114  0.26150  0.17395  Biso   1.000  C
  H22      1.0000 0.74750  0.31840  0.16900  Biso   1.000  H
  C47      1.0000 0.91165  0.22060  0.16308  Biso   1.000  C
  C48      1.0000 0.87780  0.99360  0.18888  Biso   1.000  C
  C49      1.0000 0.07536  0.84700  0.19889  Biso   1.000  C
  C50      1.0000 0.11950  0.90640  0.17765  Biso   1.000  C
  C51      1.0000 0.14908  0.85130  0.14537  Biso   1.000  C
  H23      1.0000 0.14250  0.77610  0.13760  Biso   1.000  H
  C52      1.0000 0.18864  0.90970  0.12473  Biso   1.000  C
  C53      1.0000 0.19887  0.02260  0.13726  Biso   1.000  C
  H24      1.0000 0.22500  0.06150  0.12320  Biso   1.000  H
  C54      1.0000 0.17027  0.07800  0.17060  Biso   1.000  C
  C55      1.0000 0.13027  0.01780  0.18970  Biso   1.000  C
  H25      1.0000 0.11020  0.05370  0.21120  Biso   1.000  H
  C56      1.0000 0.21969  0.85470  0.08886  Biso   1.000  C
  C57      1.0000 0.18324  0.19520  0.18559  Biso   1.000  C
  C58      1.0000 0.14730  0.28420  0.18551  Biso   1.000  C
  C59      1.0000 0.16134  0.39290  0.20024  Biso   1.000  C
  C60      1.0000 0.20982  0.41190  0.21603  Biso   1.000  C
  H26      1.0000 0.21850  0.48310  0.22740  Biso   1.000  H
  C61      1.0000 0.24555  0.32550  0.21504  Biso   1.000  C
  H27      1.0000 0.27820  0.33900  0.22490  Biso   1.000  H
  C62      1.0000 0.23190  0.21920  0.19920  Biso   1.000  C
  H28      1.0000 0.25610  0.16220  0.19760  Biso   1.000  H
  C63      1.0000 0.12497  0.48910  0.19740  Biso   1.000  C
  C64      1.0000 0.09538  0.26150  0.16619  Biso   1.000  C
  Cd5      1.0000 0.27904  0.77963  0.01862  Biso   1.000  Cd
  Cd6      1.0000 0.50575  0.26071  0.87761  Biso   1.000  Cd
  O33      1.0000 0.27966  0.93840  0.96214  Biso   1.000  O
  O34      1.0000 0.32468  0.78590  0.95061  Biso   1.000  O
  O35      1.0000 0.43171  0.75710  0.80843  Biso   1.000  O
  O36      1.0000 0.45907  0.91990  0.78386  Biso   1.000  O
  O37      1.0000 0.42221  0.28700  0.87894  Biso   1.000  O
  O38      1.0000 0.44356  0.25220  0.80797  Biso   1.000  O
  O39      1.0000 0.35752  0.60750  0.80518  Biso   1.000  O
  H29      1.0000 0.37590  0.66550  0.80370  Biso   1.000  H
  O40      1.0000 0.42246  0.49320  0.81422  Biso   1.000  O
  O41      1.0000 0.54108  0.59710  0.78386  Biso   1.000  O
  O42      1.0000 0.57267  0.76210  0.80098  Biso   1.000  O
  O43      1.0000 0.72451  0.75030  0.91260  Biso   1.000  O
  O44      1.0000 0.74037  0.58150  0.93995  Biso   1.000  O
  O45      1.0000 0.64419  0.91140  0.79086  Biso   1.000  O
  H30      1.0000 0.62610  0.85280  0.79100  Biso   1.000  H
  O46      1.0000 0.58157  0.02240  0.81400  Biso   1.000  O
  O47      1.0000 0.59124  0.23480  0.87645  Biso   1.000  O
  O48      1.0000 0.55912  0.26320  0.80880  Biso   1.000  O
  C65      1.0000 0.30992  0.88310  0.93888  Biso   1.000  C
  C66      1.0000 0.33188  0.93590  0.89643  Biso   1.000  C
  C67      1.0000 0.36686  0.87590  0.87120  Biso   1.000  C
  H31      1.0000 0.37590  0.80240  0.87960  Biso   1.000  H
  C68      1.0000 0.38844  0.92600  0.83328  Biso   1.000  C
  C69      1.0000 0.37445  0.03580  0.82075  Biso   1.000  C
  H32      1.0000 0.38960  0.06980  0.79580  Biso   1.000  H
  C70      1.0000 0.33820  0.09560  0.84498  Biso   1.000  C
  C71      1.0000 0.31649  0.04400  0.88321  Biso   1.000  C
  H33      1.0000 0.29190  0.08220  0.89960  Biso   1.000  H
  C72      1.0000 0.42855  0.86430  0.80679  Biso   1.000  C
  C73      1.0000 0.32207  0.21290  0.83167  Biso   1.000  C
  C74      1.0000 0.35720  0.30210  0.82545  Biso   1.000  C
  C75      1.0000 0.34062  0.41100  0.81407  Biso   1.000  C
  C76      1.0000 0.28937  0.43140  0.80733  Biso   1.000  C
  H34      1.0000 0.27860  0.50350  0.79870  Biso   1.000  H
  C77      1.0000 0.25486  0.34560  0.81341  Biso   1.000  C
  H35      1.0000 0.22080  0.35960  0.80910  Biso   1.000  H
  C78      1.0000 0.27114  0.23850  0.82605  Biso   1.000  C
  H36      1.0000 0.24750  0.18160  0.83100  Biso   1.000  H
  C79      1.0000 0.41165  0.27940  0.83692  Biso   1.000  C
  C80      1.0000 0.37780  0.50640  0.81112  Biso   1.000  C
  C81      1.0000 0.57536  0.65300  0.80111  Biso   1.000  C
  C82      1.0000 0.61950  0.59360  0.82235  Biso   1.000  C
  C83      1.0000 0.64908  0.64870  0.85463  Biso   1.000  C
  H37      1.0000 0.64250  0.72390  0.86240  Biso   1.000  H
  C84      1.0000 0.68864  0.59030  0.87527  Biso   1.000  C
  C85      1.0000 0.69887  0.47740  0.86274  Biso   1.000  C
  H38      1.0000 0.72500  0.43850  0.87680  Biso   1.000  H
  C86      1.0000 0.67027  0.42200  0.82940  Biso   1.000  C
  C87      1.0000 0.63027  0.48220  0.81030  Biso   1.000  C
  H39      1.0000 0.61020  0.44630  0.78880  Biso   1.000  H
  C88      1.0000 0.71969  0.64530  0.91114  Biso   1.000  C
  C89      1.0000 0.68324  0.30480  0.81441  Biso   1.000  C
  C90      1.0000 0.64730  0.21580  0.81449  Biso   1.000  C
  C91      1.0000 0.66134  0.10710  0.79976  Biso   1.000  C
  C92      1.0000 0.70982  0.08810  0.78397  Biso   1.000  C
  H40      1.0000 0.71850  0.01690  0.77260  Biso   1.000  H
  C93      1.0000 0.74555  0.17450  0.78496  Biso   1.000  C
  H41      1.0000 0.77820  0.16100  0.77510  Biso   1.000  H
  C94      1.0000 0.73190  0.28080  0.80080  Biso   1.000  C
  H42      1.0000 0.75610  0.33780  0.80240  Biso   1.000  H
  C95      1.0000 0.62497  0.01090  0.80260  Biso   1.000  C
  C96      1.0000 0.59538  0.23850  0.83381  Biso   1.000  C
  Cd7      1.0000 0.22096  0.72037  0.51862  Biso   1.000  Cd
  Cd8      1.0000 0.99425  0.23929  0.37761  Biso   1.000  Cd
  O49      1.0000 0.22034  0.56160  0.46214  Biso   1.000  O
  O50      1.0000 0.17532  0.71410  0.45061  Biso   1.000  O
  O51      1.0000 0.06829  0.74290  0.30843  Biso   1.000  O
  O52      1.0000 0.04093  0.58010  0.28386  Biso   1.000  O
  O53      1.0000 0.07779  0.21300  0.37894  Biso   1.000  O
  O54      1.0000 0.05644  0.24780  0.30797  Biso   1.000  O
  O55      1.0000 0.14248  0.89250  0.30518  Biso   1.000  O
  H43      1.0000 0.12410  0.83450  0.30370  Biso   1.000  H
  O56      1.0000 0.07754  0.00680  0.31422  Biso   1.000  O
  O57      1.0000 0.95892  0.90290  0.28386  Biso   1.000  O
  O58      1.0000 0.92733  0.73790  0.30098  Biso   1.000  O
  O59      1.0000 0.77549  0.74970  0.41260  Biso   1.000  O
  O60      1.0000 0.75963  0.91850  0.43995  Biso   1.000  O
  O61      1.0000 0.85581  0.58860  0.29086  Biso   1.000  O
  H44      1.0000 0.87390  0.64720  0.29100  Biso   1.000  H
  O62      1.0000 0.91843  0.47760  0.31400  Biso   1.000  O
  O63      1.0000 0.90876  0.26520  0.37645  Biso   1.000  O
  O64      1.0000 0.94088  0.23680  0.30880  Biso   1.000  O
  C97      1.0000 0.19008  0.61690  0.43888  Biso   1.000  C
  C98      1.0000 0.16812  0.56410  0.39643  Biso   1.000  C
  C99      1.0000 0.13314  0.62410  0.37120  Biso   1.000  C
  H45      1.0000 0.12410  0.69760  0.37960  Biso   1.000  H
  C100     1.0000 0.11156  0.57400  0.33328  Biso   1.000  C
  C101     1.0000 0.12555  0.46420  0.32075  Biso   1.000  C
  H46      1.0000 0.11040  0.43020  0.29580  Biso   1.000  H
  C102     1.0000 0.16180  0.40440  0.34498  Biso   1.000  C
  C103     1.0000 0.18351  0.45600  0.38321  Biso   1.000  C
  H47      1.0000 0.20810  0.41780  0.39960  Biso   1.000  H
  C104     1.0000 0.07145  0.63570  0.30679  Biso   1.000  C
  C105     1.0000 0.17793  0.28710  0.33167  Biso   1.000  C
  C106     1.0000 0.14280  0.19790  0.32545  Biso   1.000  C
  C107     1.0000 0.15938  0.08900  0.31407  Biso   1.000  C
  C108     1.0000 0.21063  0.06860  0.30733  Biso   1.000  C
  H48      1.0000 0.22140  0.99650  0.29870  Biso   1.000  H
  C109     1.0000 0.24514  0.15440  0.31341  Biso   1.000  C
  H49      1.0000 0.27920  0.14040  0.30910  Biso   1.000  H
  C110     1.0000 0.22886  0.26150  0.32605  Biso   1.000  C
  H50      1.0000 0.25250  0.31840  0.33100  Biso   1.000  H
  C111     1.0000 0.08835  0.22060  0.33692  Biso   1.000  C
  C112     1.0000 0.12220  0.99360  0.31112  Biso   1.000  C
  C113     1.0000 0.92464  0.84700  0.30111  Biso   1.000  C
  C114     1.0000 0.88050  0.90640  0.32235  Biso   1.000  C
  C115     1.0000 0.85092  0.85130  0.35463  Biso   1.000  C
  H51      1.0000 0.85750  0.77610  0.36240  Biso   1.000  H
  C116     1.0000 0.81136  0.90970  0.37527  Biso   1.000  C
  C117     1.0000 0.80113  0.02260  0.36274  Biso   1.000  C
  H52      1.0000 0.77500  0.06150  0.37680  Biso   1.000  H
  C118     1.0000 0.82973  0.07800  0.32940  Biso   1.000  C
  C119     1.0000 0.86973  0.01780  0.31030  Biso   1.000  C
  H53      1.0000 0.88980  0.05370  0.28880  Biso   1.000  H
  C120     1.0000 0.78031  0.85470  0.41114  Biso   1.000  C
  C121     1.0000 0.81676  0.19520  0.31441  Biso   1.000  C
  C122     1.0000 0.85270  0.28420  0.31449  Biso   1.000  C
  C123     1.0000 0.83866  0.39290  0.29976  Biso   1.000  C
  C124     1.0000 0.79018  0.41190  0.28397  Biso   1.000  C
  H54      1.0000 0.78150  0.48310  0.27260  Biso   1.000  H
  C125     1.0000 0.75445  0.32550  0.28496  Biso   1.000  C
  H55      1.0000 0.72180  0.33900  0.27510  Biso   1.000  H
  C126     1.0000 0.76810  0.21920  0.30080  Biso   1.000  C
  H56      1.0000 0.74390  0.16220  0.30240  Biso   1.000  H
  C127     1.0000 0.87503  0.48910  0.30260  Biso   1.000  C
  C128     1.0000 0.90462  0.26150  0.33381  Biso   1.000  C
  Cd9      1.0000 0.50000  0.76026  0.75000  Biso   1.000  Cd
  K1       1.0000 0.50000  0.10980  0.75000  Biso   1.000  K
  K2       1.0000 0.50000  0.40606  0.75000  Biso   1.000  K
  Cd10     1.0000 0.00000  0.73974  0.25000  Biso   1.000  Cd
  K3       1.0000 0.00000  0.39020  0.25000  Biso   1.000  K
  K4       1.0000 0.00000  0.09394  0.25000  Biso   1.000  K
  Cd11     1.0000 0.27904  0.22037  0.51862  Biso   1.000  Cd
  Cd12     1.0000 0.50575  0.73929  0.37761  Biso   1.000  Cd
  O65      1.0000 0.27966  0.06160  0.46214  Biso   1.000  O
  O66      1.0000 0.32468  0.21410  0.45061  Biso   1.000  O
  O67      1.0000 0.43171  0.24290  0.30843  Biso   1.000  O
  O68      1.0000 0.45907  0.08010  0.28386  Biso   1.000  O
  O69      1.0000 0.42221  0.71300  0.37894  Biso   1.000  O
  O70      1.0000 0.44356  0.74780  0.30797  Biso   1.000  O
  O71      1.0000 0.35752  0.39250  0.30518  Biso   1.000  O
  H57      1.0000 0.37590  0.33450  0.30370  Biso   1.000  H
  O72      1.0000 0.42246  0.50680  0.31422  Biso   1.000  O
  O73      1.0000 0.54108  0.40290  0.28386  Biso   1.000  O
  O74      1.0000 0.57267  0.23790  0.30098  Biso   1.000  O
  O75      1.0000 0.72451  0.24970  0.41260  Biso   1.000  O
  O76      1.0000 0.74037  0.41850  0.43995  Biso   1.000  O
  O77      1.0000 0.64419  0.08860  0.29086  Biso   1.000  O
  H58      1.0000 0.62610  0.14720  0.29100  Biso   1.000  H
  O78      1.0000 0.58157  0.97760  0.31400  Biso   1.000  O
  O79      1.0000 0.59124  0.76520  0.37645  Biso   1.000  O
  O80      1.0000 0.55912  0.73680  0.30880  Biso   1.000  O
  C129     1.0000 0.30992  0.11690  0.43888  Biso   1.000  C
  C130     1.0000 0.33188  0.06410  0.39643  Biso   1.000  C
  C131     1.0000 0.36686  0.12410  0.37120  Biso   1.000  C
  H59      1.0000 0.37590  0.19760  0.37960  Biso   1.000  H
  C132     1.0000 0.38844  0.07400  0.33328  Biso   1.000  C
  C133     1.0000 0.37445  0.96420  0.32075  Biso   1.000  C
  H60      1.0000 0.38960  0.93020  0.29580  Biso   1.000  H
  C134     1.0000 0.33820  0.90440  0.34498  Biso   1.000  C
  C135     1.0000 0.31649  0.95600  0.38321  Biso   1.000  C
  H61      1.0000 0.29190  0.91780  0.39960  Biso   1.000  H
  C136     1.0000 0.42855  0.13570  0.30679  Biso   1.000  C
  C137     1.0000 0.32207  0.78710  0.33167  Biso   1.000  C
  C138     1.0000 0.35720  0.69790  0.32545  Biso   1.000  C
  C139     1.0000 0.34062  0.58900  0.31407  Biso   1.000  C
  C140     1.0000 0.28937  0.56860  0.30733  Biso   1.000  C
  H62      1.0000 0.27860  0.49650  0.29870  Biso   1.000  H
  C141     1.0000 0.25486  0.65440  0.31341  Biso   1.000  C
  H63      1.0000 0.22080  0.64040  0.30910  Biso   1.000  H
  C142     1.0000 0.27114  0.76150  0.32605  Biso   1.000  C
  H64      1.0000 0.24750  0.81840  0.33100  Biso   1.000  H
  C143     1.0000 0.41165  0.72060  0.33692  Biso   1.000  C
  C144     1.0000 0.37780  0.49360  0.31112  Biso   1.000  C
  C145     1.0000 0.57536  0.34700  0.30111  Biso   1.000  C
  C146     1.0000 0.61950  0.40640  0.32235  Biso   1.000  C
  C147     1.0000 0.64908  0.35130  0.35463  Biso   1.000  C
  H65      1.0000 0.64250  0.27610  0.36240  Biso   1.000  H
  C148     1.0000 0.68864  0.40970  0.37527  Biso   1.000  C
  C149     1.0000 0.69887  0.52260  0.36274  Biso   1.000  C
  H66      1.0000 0.72500  0.56150  0.37680  Biso   1.000  H
  C150     1.0000 0.67027  0.57800  0.32940  Biso   1.000  C
  C151     1.0000 0.63027  0.51780  0.31030  Biso   1.000  C
  H67      1.0000 0.61020  0.55370  0.28880  Biso   1.000  H
  C152     1.0000 0.71969  0.35470  0.41114  Biso   1.000  C
  C153     1.0000 0.68324  0.69520  0.31441  Biso   1.000  C
  C154     1.0000 0.64730  0.78420  0.31449  Biso   1.000  C
  C155     1.0000 0.66134  0.89290  0.29976  Biso   1.000  C
  C156     1.0000 0.70982  0.91190  0.28397  Biso   1.000  C
  H68      1.0000 0.71850  0.98310  0.27260  Biso   1.000  H
  C157     1.0000 0.74555  0.82550  0.28496  Biso   1.000  C
  H69      1.0000 0.77820  0.83900  0.27510  Biso   1.000  H
  C158     1.0000 0.73190  0.71920  0.30080  Biso   1.000  C
  H70      1.0000 0.75610  0.66220  0.30240  Biso   1.000  H
  C159     1.0000 0.62497  0.98910  0.30260  Biso   1.000  C
  C160     1.0000 0.59538  0.76150  0.33381  Biso   1.000  C
  Cd13     1.0000 0.22096  0.27963  0.01862  Biso   1.000  Cd
  Cd14     1.0000 0.99425  0.76071  0.87761  Biso   1.000  Cd
  O81      1.0000 0.22034  0.43840  0.96214  Biso   1.000  O
  O82      1.0000 0.17532  0.28590  0.95061  Biso   1.000  O
  O83      1.0000 0.06829  0.25710  0.80843  Biso   1.000  O
  O84      1.0000 0.04093  0.41990  0.78386  Biso   1.000  O
  O85      1.0000 0.07779  0.78700  0.87894  Biso   1.000  O
  O86      1.0000 0.05644  0.75220  0.80797  Biso   1.000  O
  O87      1.0000 0.14248  0.10750  0.80518  Biso   1.000  O
  H71      1.0000 0.12410  0.16550  0.80370  Biso   1.000  H
  O88      1.0000 0.07754  0.99320  0.81422  Biso   1.000  O
  O89      1.0000 0.95892  0.09710  0.78386  Biso   1.000  O
  O90      1.0000 0.92733  0.26210  0.80098  Biso   1.000  O
  O91      1.0000 0.77549  0.25030  0.91260  Biso   1.000  O
  O92      1.0000 0.75963  0.08150  0.93995  Biso   1.000  O
  O93      1.0000 0.85581  0.41140  0.79086  Biso   1.000  O
  H72      1.0000 0.87390  0.35280  0.79100  Biso   1.000  H
  O94      1.0000 0.91843  0.52240  0.81400  Biso   1.000  O
  O95      1.0000 0.90876  0.73480  0.87645  Biso   1.000  O
  O96      1.0000 0.94088  0.76320  0.80880  Biso   1.000  O
  C161     1.0000 0.19008  0.38310  0.93888  Biso   1.000  C
  C162     1.0000 0.16812  0.43590  0.89643  Biso   1.000  C
  C163     1.0000 0.13314  0.37590  0.87120  Biso   1.000  C
  H73      1.0000 0.12410  0.30240  0.87960  Biso   1.000  H
  C164     1.0000 0.11156  0.42600  0.83328  Biso   1.000  C
  C165     1.0000 0.12555  0.53580  0.82075  Biso   1.000  C
  H74      1.0000 0.11040  0.56980  0.79580  Biso   1.000  H
  C166     1.0000 0.16180  0.59560  0.84498  Biso   1.000  C
  C167     1.0000 0.18351  0.54400  0.88321  Biso   1.000  C
  H75      1.0000 0.20810  0.58220  0.89960  Biso   1.000  H
  C168     1.0000 0.07145  0.36430  0.80679  Biso   1.000  C
  C169     1.0000 0.17793  0.71290  0.83167  Biso   1.000  C
  C170     1.0000 0.14280  0.80210  0.82545  Biso   1.000  C
  C171     1.0000 0.15938  0.91100  0.81407  Biso   1.000  C
  C172     1.0000 0.21063  0.93140  0.80733  Biso   1.000  C
  H76      1.0000 0.22140  0.00350  0.79870  Biso   1.000  H
  C173     1.0000 0.24514  0.84560  0.81341  Biso   1.000  C
  H77      1.0000 0.27920  0.85960  0.80910  Biso   1.000  H
  C174     1.0000 0.22886  0.73850  0.82605  Biso   1.000  C
  H78      1.0000 0.25250  0.68160  0.83100  Biso   1.000  H
  C175     1.0000 0.08835  0.77940  0.83692  Biso   1.000  C
  C176     1.0000 0.12220  0.00640  0.81112  Biso   1.000  C
  C177     1.0000 0.92464  0.15300  0.80111  Biso   1.000  C
  C178     1.0000 0.88050  0.09360  0.82235  Biso   1.000  C
  C179     1.0000 0.85092  0.14870  0.85463  Biso   1.000  C
  H79      1.0000 0.85750  0.22390  0.86240  Biso   1.000  H
  C180     1.0000 0.81136  0.09030  0.87527  Biso   1.000  C
  C181     1.0000 0.80113  0.97740  0.86274  Biso   1.000  C
  H80      1.0000 0.77500  0.93850  0.87680  Biso   1.000  H
  C182     1.0000 0.82973  0.92200  0.82940  Biso   1.000  C
  C183     1.0000 0.86973  0.98220  0.81030  Biso   1.000  C
  H81      1.0000 0.88980  0.94630  0.78880  Biso   1.000  H
  C184     1.0000 0.78031  0.14530  0.91114  Biso   1.000  C
  C185     1.0000 0.81676  0.80480  0.81441  Biso   1.000  C
  C186     1.0000 0.85270  0.71580  0.81449  Biso   1.000  C
  C187     1.0000 0.83866  0.60710  0.79976  Biso   1.000  C
  C188     1.0000 0.79018  0.58810  0.78397  Biso   1.000  C
  H82      1.0000 0.78150  0.51690  0.77260  Biso   1.000  H
  C189     1.0000 0.75445  0.67450  0.78496  Biso   1.000  C
  H83      1.0000 0.72180  0.66100  0.77510  Biso   1.000  H
  C190     1.0000 0.76810  0.78080  0.80080  Biso   1.000  C
  H84      1.0000 0.74390  0.83780  0.80240  Biso   1.000  H
  C191     1.0000 0.87503  0.51090  0.80260  Biso   1.000  C
  C192     1.0000 0.90462  0.73850  0.83381  Biso   1.000  C
  Cd15     1.0000 0.72096  0.22037  0.98138  Biso   1.000  Cd
  Cd16     1.0000 0.49425  0.73929  0.12239  Biso   1.000  Cd
  O97      1.0000 0.72034  0.06160  0.03786  Biso   1.000  O
  O98      1.0000 0.67532  0.21410  0.04939  Biso   1.000  O
  O99      1.0000 0.56829  0.24290  0.19157  Biso   1.000  O
  O100     1.0000 0.54093  0.08010  0.21614  Biso   1.000  O
  O101     1.0000 0.57779  0.71300  0.12106  Biso   1.000  O
  O102     1.0000 0.55644  0.74780  0.19203  Biso   1.000  O
  O103     1.0000 0.64248  0.39250  0.19482  Biso   1.000  O
  H85      1.0000 0.62410  0.33450  0.19630  Biso   1.000  H
  O104     1.0000 0.57754  0.50680  0.18578  Biso   1.000  O
  O105     1.0000 0.45892  0.40290  0.21614  Biso   1.000  O
  O106     1.0000 0.42733  0.23790  0.19902  Biso   1.000  O
  O107     1.0000 0.27549  0.24970  0.08740  Biso   1.000  O
  O108     1.0000 0.25963  0.41850  0.06005  Biso   1.000  O
  O109     1.0000 0.35581  0.08860  0.20914  Biso   1.000  O
  H86      1.0000 0.37390  0.14720  0.20900  Biso   1.000  H
  O110     1.0000 0.41843  0.97760  0.18600  Biso   1.000  O
  O111     1.0000 0.40876  0.76520  0.12355  Biso   1.000  O
  O112     1.0000 0.44088  0.73680  0.19120  Biso   1.000  O
  C193     1.0000 0.69008  0.11690  0.06112  Biso   1.000  C
  C194     1.0000 0.66812  0.06410  0.10357  Biso   1.000  C
  C195     1.0000 0.63314  0.12410  0.12880  Biso   1.000  C
  H87      1.0000 0.62410  0.19760  0.12040  Biso   1.000  H
  C196     1.0000 0.61156  0.07400  0.16672  Biso   1.000  C
  C197     1.0000 0.62555  0.96420  0.17925  Biso   1.000  C
  H88      1.0000 0.61040  0.93020  0.20420  Biso   1.000  H
  C198     1.0000 0.66180  0.90440  0.15502  Biso   1.000  C
  C199     1.0000 0.68351  0.95600  0.11679  Biso   1.000  C
  H89      1.0000 0.70810  0.91780  0.10040  Biso   1.000  H
  C200     1.0000 0.57145  0.13570  0.19321  Biso   1.000  C
  C201     1.0000 0.67793  0.78710  0.16833  Biso   1.000  C
  C202     1.0000 0.64280  0.69790  0.17455  Biso   1.000  C
  C203     1.0000 0.65938  0.58900  0.18593  Biso   1.000  C
  C204     1.0000 0.71063  0.56860  0.19267  Biso   1.000  C
  H90      1.0000 0.72140  0.49650  0.20130  Biso   1.000  H
  C205     1.0000 0.74514  0.65440  0.18659  Biso   1.000  C
  H91      1.0000 0.77920  0.64040  0.19090  Biso   1.000  H
  C206     1.0000 0.72886  0.76150  0.17395  Biso   1.000  C
  H92      1.0000 0.75250  0.81840  0.16900  Biso   1.000  H
  C207     1.0000 0.58835  0.72060  0.16308  Biso   1.000  C
  C208     1.0000 0.62220  0.49360  0.18888  Biso   1.000  C
  C209     1.0000 0.42464  0.34700  0.19889  Biso   1.000  C
  C210     1.0000 0.38050  0.40640  0.17765  Biso   1.000  C
  C211     1.0000 0.35092  0.35130  0.14537  Biso   1.000  C
  H93      1.0000 0.35750  0.27610  0.13760  Biso   1.000  H
  C212     1.0000 0.31136  0.40970  0.12473  Biso   1.000  C
  C213     1.0000 0.30113  0.52260  0.13726  Biso   1.000  C
  H94      1.0000 0.27500  0.56150  0.12320  Biso   1.000  H
  C214     1.0000 0.32973  0.57800  0.17060  Biso   1.000  C
  C215     1.0000 0.36973  0.51780  0.18970  Biso   1.000  C
  H95      1.0000 0.38980  0.55370  0.21120  Biso   1.000  H
  C216     1.0000 0.28031  0.35470  0.08886  Biso   1.000  C
  C217     1.0000 0.31676  0.69520  0.18559  Biso   1.000  C
  C218     1.0000 0.35270  0.78420  0.18551  Biso   1.000  C
  C219     1.0000 0.33866  0.89290  0.20024  Biso   1.000  C
  C220     1.0000 0.29018  0.91190  0.21603  Biso   1.000  C
  H96      1.0000 0.28150  0.98310  0.22740  Biso   1.000  H
  C221     1.0000 0.25445  0.82550  0.21504  Biso   1.000  C
  H97      1.0000 0.22180  0.83900  0.22490  Biso   1.000  H
  C222     1.0000 0.26810  0.71920  0.19920  Biso   1.000  C
  H98      1.0000 0.24390  0.66220  0.19760  Biso   1.000  H
  C223     1.0000 0.37503  0.98910  0.19740  Biso   1.000  C
  C224     1.0000 0.40462  0.76150  0.16619  Biso   1.000  C
  Cd17     1.0000 0.77904  0.27963  0.48138  Biso   1.000  Cd
  Cd18     1.0000 0.00575  0.76071  0.62239  Biso   1.000  Cd
  O113     1.0000 0.77966  0.43840  0.53786  Biso   1.000  O
  O114     1.0000 0.82468  0.28590  0.54939  Biso   1.000  O
  O115     1.0000 0.93171  0.25710  0.69157  Biso   1.000  O
  O116     1.0000 0.95907  0.41990  0.71614  Biso   1.000  O
  O117     1.0000 0.92221  0.78700  0.62106  Biso   1.000  O
  O118     1.0000 0.94356  0.75220  0.69203  Biso   1.000  O
  O119     1.0000 0.85752  0.10750  0.69482  Biso   1.000  O
  H99      1.0000 0.87590  0.16550  0.69630  Biso   1.000  H
  O120     1.0000 0.92246  0.99320  0.68578  Biso   1.000  O
  O121     1.0000 0.04108  0.09710  0.71614  Biso   1.000  O
  O122     1.0000 0.07267  0.26210  0.69902  Biso   1.000  O
  O123     1.0000 0.22451  0.25030  0.58740  Biso   1.000  O
  O124     1.0000 0.24037  0.08150  0.56005  Biso   1.000  O
  O125     1.0000 0.14419  0.41140  0.70914  Biso   1.000  O
  H100     1.0000 0.12610  0.35280  0.70900  Biso   1.000  H
  O126     1.0000 0.08157  0.52240  0.68600  Biso   1.000  O
  O127     1.0000 0.09124  0.73480  0.62355  Biso   1.000  O
  O128     1.0000 0.05912  0.76320  0.69120  Biso   1.000  O
  C225     1.0000 0.80992  0.38310  0.56112  Biso   1.000  C
  C226     1.0000 0.83188  0.43590  0.60357  Biso   1.000  C
  C227     1.0000 0.86686  0.37590  0.62880  Biso   1.000  C
  H101     1.0000 0.87590  0.30240  0.62040  Biso   1.000  H
  C228     1.0000 0.88844  0.42600  0.66672  Biso   1.000  C
  C229     1.0000 0.87445  0.53580  0.67925  Biso   1.000  C
  H102     1.0000 0.88960  0.56980  0.70420  Biso   1.000  H
  C230     1.0000 0.83820  0.59560  0.65502  Biso   1.000  C
  C231     1.0000 0.81649  0.54400  0.61679  Biso   1.000  C
  H103     1.0000 0.79190  0.58220  0.60040  Biso   1.000  H
  C232     1.0000 0.92855  0.36430  0.69321  Biso   1.000  C
  C233     1.0000 0.82207  0.71290  0.66833  Biso   1.000  C
  C234     1.0000 0.85720  0.80210  0.67455  Biso   1.000  C
  C235     1.0000 0.84062  0.91100  0.68593  Biso   1.000  C
  C236     1.0000 0.78937  0.93140  0.69267  Biso   1.000  C
  H104     1.0000 0.77860  0.00350  0.70130  Biso   1.000  H
  C237     1.0000 0.75486  0.84560  0.68659  Biso   1.000  C
  H105     1.0000 0.72080  0.85960  0.69090  Biso   1.000  H
  C238     1.0000 0.77114  0.73850  0.67395  Biso   1.000  C
  H106     1.0000 0.74750  0.68160  0.66900  Biso   1.000  H
  C239     1.0000 0.91165  0.77940  0.66308  Biso   1.000  C
  C240     1.0000 0.87780  0.00640  0.68888  Biso   1.000  C
  C241     1.0000 0.07536  0.15300  0.69889  Biso   1.000  C
  C242     1.0000 0.11950  0.09360  0.67765  Biso   1.000  C
  C243     1.0000 0.14908  0.14870  0.64537  Biso   1.000  C
  H107     1.0000 0.14250  0.22390  0.63760  Biso   1.000  H
  C244     1.0000 0.18864  0.09030  0.62473  Biso   1.000  C
  C245     1.0000 0.19887  0.97740  0.63726  Biso   1.000  C
  H108     1.0000 0.22500  0.93850  0.62320  Biso   1.000  H
  C246     1.0000 0.17027  0.92200  0.67060  Biso   1.000  C
  C247     1.0000 0.13027  0.98220  0.68970  Biso   1.000  C
  H109     1.0000 0.11020  0.94630  0.71120  Biso   1.000  H
  C248     1.0000 0.21969  0.14530  0.58886  Biso   1.000  C
  C249     1.0000 0.18324  0.80480  0.68559  Biso   1.000  C
  C250     1.0000 0.14730  0.71580  0.68551  Biso   1.000  C
  C251     1.0000 0.16134  0.60710  0.70024  Biso   1.000  C
  C252     1.0000 0.20982  0.58810  0.71603  Biso   1.000  C
  H110     1.0000 0.21850  0.51690  0.72740  Biso   1.000  H
  C253     1.0000 0.24555  0.67450  0.71504  Biso   1.000  C
  H111     1.0000 0.27820  0.66100  0.72490  Biso   1.000  H
  C254     1.0000 0.23190  0.78080  0.69920  Biso   1.000  C
  H112     1.0000 0.25610  0.83780  0.69760  Biso   1.000  H
  C255     1.0000 0.12497  0.51090  0.69740  Biso   1.000  C
  C256     1.0000 0.09538  0.73850  0.66619  Biso   1.000  C
  Cd19     1.0000 0.50000  0.23974  0.25000  Biso   1.000  Cd
  K5       1.0000 0.50000  0.89020  0.25000  Biso   1.000  K
  K6       1.0000 0.50000  0.59394  0.25000  Biso   1.000  K
  Cd20     1.0000 0.00000  0.26026  0.75000  Biso   1.000  Cd
  K7       1.0000 0.00000  0.60980  0.75000  Biso   1.000  K
  K8       1.0000 0.00000  0.90606  0.75000  Biso   1.000  K
