data_image0
_cell_length_a       20.674
_cell_length_b       9.956
_cell_length_c       23.694
_cell_angle_alpha    90
_cell_angle_beta     101.154
_cell_angle_gamma    90

_symmetry_space_group_name_H-M    "P 1"
_symmetry_int_tables_number       1

loop_
  _symmetry_equiv_pos_as_xyz
  'x, y, z'

loop_
  _atom_site_label
  _atom_site_occupancy
  _atom_site_fract_x
  _atom_site_fract_y
  _atom_site_fract_z
  _atom_site_thermal_displace_type
  _atom_site_B_iso_or_equiv
  _atom_site_type_symbol
  V1       1.0000 0.77857  0.09001  0.72247  Biso   1.000  V
  V2       1.0000 0.67397  0.09421  0.82721  Biso   1.000  V
  V3       1.0000 0.56010  0.42283  0.93582  Biso   1.000  V
  P1       1.0000 0.60686  0.12820  0.93943  Biso   1.000  P
  P2       1.0000 0.68951  0.38410  0.87628  Biso   1.000  P
  P3       1.0000 0.78557  0.87470  0.82501  Biso   1.000  P
  P4       1.0000 0.44246  0.31420  0.99566  Biso   1.000  P
  O1       1.0000 0.73460  0.94590  0.85450  Biso   1.000  O
  O2       1.0000 0.74260  0.16340  0.78740  Biso   1.000  O
  O3       1.0000 0.63980  0.04830  0.89800  Biso   1.000  O
  O4       1.0000 0.65140  0.28950  0.82980  Biso   1.000  O
  O5       1.0000 0.64200  0.46270  0.90600  Biso   1.000  O
  O6       1.0000 0.51480  0.34130  0.99560  Biso   1.000  O
  O7       1.0000 0.43400  0.21310  0.04150  Biso   1.000  O
  O8       1.0000 0.40810  0.25240  0.93610  Biso   1.000  O
  O9       1.0000 0.59460  0.55600  0.99660  Biso   1.000  O
  O10      1.0000 0.56510  0.23990  0.90860  Biso   1.000  O
  O11      1.0000 0.73850  0.29870  0.91820  Biso   1.000  O
  O12      1.0000 0.65680  0.18540  0.99030  Biso   1.000  O
  O13      1.0000 0.56120  0.03310  0.96690  Biso   1.000  O
  O14      1.0000 0.72530  0.22280  0.67130  Biso   1.000  O
  O15      1.0000 0.76870  0.98580  0.65000  Biso   1.000  O
  O16      1.0000 0.77600  0.91580  0.76120  Biso   1.000  O
  O17      1.0000 0.85480  0.91070  0.85620  Biso   1.000  O
  O18      1.0000 0.72190  0.42710  0.02400  Biso   1.000  O
  H1       1.0000 0.68730  0.50190  0.01370  Biso   1.000  H
  H2       1.0000 0.73310  0.24850  0.78160  Biso   1.000  H
  H3       1.0000 0.38680  0.31230  0.90900  Biso   1.000  H
  V4       1.0000 0.27857  0.59001  0.72247  Biso   1.000  V
  V5       1.0000 0.17397  0.59421  0.82721  Biso   1.000  V
  V6       1.0000 0.06010  0.92283  0.93582  Biso   1.000  V
  P5       1.0000 0.10686  0.62820  0.93943  Biso   1.000  P
  P6       1.0000 0.18951  0.88410  0.87628  Biso   1.000  P
  P7       1.0000 0.28557  0.37470  0.82501  Biso   1.000  P
  P8       1.0000 0.94246  0.81420  0.99566  Biso   1.000  P
  O19      1.0000 0.23460  0.44590  0.85450  Biso   1.000  O
  O20      1.0000 0.24260  0.66340  0.78740  Biso   1.000  O
  O21      1.0000 0.13980  0.54830  0.89800  Biso   1.000  O
  O22      1.0000 0.15140  0.78950  0.82980  Biso   1.000  O
  O23      1.0000 0.14200  0.96270  0.90600  Biso   1.000  O
  O24      1.0000 0.01480  0.84130  0.99560  Biso   1.000  O
  O25      1.0000 0.93400  0.71310  0.04150  Biso   1.000  O
  O26      1.0000 0.90810  0.75240  0.93610  Biso   1.000  O
  O27      1.0000 0.09460  0.05600  0.99660  Biso   1.000  O
  O28      1.0000 0.06510  0.73990  0.90860  Biso   1.000  O
  O29      1.0000 0.23850  0.79870  0.91820  Biso   1.000  O
  O30      1.0000 0.15680  0.68540  0.99030  Biso   1.000  O
  O31      1.0000 0.06120  0.53310  0.96690  Biso   1.000  O
  O32      1.0000 0.22530  0.72280  0.67130  Biso   1.000  O
  O33      1.0000 0.26870  0.48580  0.65000  Biso   1.000  O
  O34      1.0000 0.27600  0.41580  0.76120  Biso   1.000  O
  O35      1.0000 0.35480  0.41070  0.85620  Biso   1.000  O
  O36      1.0000 0.22190  0.92710  0.02400  Biso   1.000  O
  H4       1.0000 0.18730  0.00190  0.01370  Biso   1.000  H
  H5       1.0000 0.23310  0.74850  0.78160  Biso   1.000  H
  H6       1.0000 0.88680  0.81230  0.90900  Biso   1.000  H
  V7       1.0000 0.22143  0.09001  0.77753  Biso   1.000  V
  V8       1.0000 0.32603  0.09421  0.67279  Biso   1.000  V
  V9       1.0000 0.43990  0.42283  0.56418  Biso   1.000  V
  P9       1.0000 0.39314  0.12820  0.56057  Biso   1.000  P
  P10      1.0000 0.31049  0.38410  0.62372  Biso   1.000  P
  P11      1.0000 0.21443  0.87470  0.67499  Biso   1.000  P
  P12      1.0000 0.55754  0.31420  0.50434  Biso   1.000  P
  O37      1.0000 0.26540  0.94590  0.64550  Biso   1.000  O
  O38      1.0000 0.25740  0.16340  0.71260  Biso   1.000  O
  O39      1.0000 0.36020  0.04830  0.60200  Biso   1.000  O
  O40      1.0000 0.34860  0.28950  0.67020  Biso   1.000  O
  O41      1.0000 0.35800  0.46270  0.59400  Biso   1.000  O
  O42      1.0000 0.48520  0.34130  0.50440  Biso   1.000  O
  O43      1.0000 0.56600  0.21310  0.45850  Biso   1.000  O
  O44      1.0000 0.59190  0.25240  0.56390  Biso   1.000  O
  O45      1.0000 0.40540  0.55600  0.50340  Biso   1.000  O
  O46      1.0000 0.43490  0.23990  0.59140  Biso   1.000  O
  O47      1.0000 0.26150  0.29870  0.58180  Biso   1.000  O
  O48      1.0000 0.34320  0.18540  0.50970  Biso   1.000  O
  O49      1.0000 0.43880  0.03310  0.53310  Biso   1.000  O
  O50      1.0000 0.27470  0.22280  0.82870  Biso   1.000  O
  O51      1.0000 0.23130  0.98580  0.85000  Biso   1.000  O
  O52      1.0000 0.22400  0.91580  0.73880  Biso   1.000  O
  O53      1.0000 0.14520  0.91070  0.64380  Biso   1.000  O
  O54      1.0000 0.27810  0.42710  0.47600  Biso   1.000  O
  H7       1.0000 0.31270  0.50190  0.48630  Biso   1.000  H
  H8       1.0000 0.26690  0.24850  0.71840  Biso   1.000  H
  H9       1.0000 0.61320  0.31230  0.59100  Biso   1.000  H
  V10      1.0000 0.72143  0.59001  0.77753  Biso   1.000  V
  V11      1.0000 0.82603  0.59421  0.67279  Biso   1.000  V
  V12      1.0000 0.93990  0.92283  0.56418  Biso   1.000  V
  P13      1.0000 0.89314  0.62820  0.56057  Biso   1.000  P
  P14      1.0000 0.81049  0.88410  0.62372  Biso   1.000  P
  P15      1.0000 0.71443  0.37470  0.67499  Biso   1.000  P
  P16      1.0000 0.05754  0.81420  0.50434  Biso   1.000  P
  O55      1.0000 0.76540  0.44590  0.64550  Biso   1.000  O
  O56      1.0000 0.75740  0.66340  0.71260  Biso   1.000  O
  O57      1.0000 0.86020  0.54830  0.60200  Biso   1.000  O
  O58      1.0000 0.84860  0.78950  0.67020  Biso   1.000  O
  O59      1.0000 0.85800  0.96270  0.59400  Biso   1.000  O
  O60      1.0000 0.98520  0.84130  0.50440  Biso   1.000  O
  O61      1.0000 0.06600  0.71310  0.45850  Biso   1.000  O
  O62      1.0000 0.09190  0.75240  0.56390  Biso   1.000  O
  O63      1.0000 0.90540  0.05600  0.50340  Biso   1.000  O
  O64      1.0000 0.93490  0.73990  0.59140  Biso   1.000  O
  O65      1.0000 0.76150  0.79870  0.58180  Biso   1.000  O
  O66      1.0000 0.84320  0.68540  0.50970  Biso   1.000  O
  O67      1.0000 0.93880  0.53310  0.53310  Biso   1.000  O
  O68      1.0000 0.77470  0.72280  0.82870  Biso   1.000  O
  O69      1.0000 0.73130  0.48580  0.85000  Biso   1.000  O
  O70      1.0000 0.72400  0.41580  0.73880  Biso   1.000  O
  O71      1.0000 0.64520  0.41070  0.64380  Biso   1.000  O
  O72      1.0000 0.77810  0.92710  0.47600  Biso   1.000  O
  H10      1.0000 0.81270  0.00190  0.48630  Biso   1.000  H
  H11      1.0000 0.76690  0.74850  0.71840  Biso   1.000  H
  H12      1.0000 0.11320  0.81230  0.59100  Biso   1.000  H
  V13      1.0000 0.22143  0.90999  0.27753  Biso   1.000  V
  V14      1.0000 0.32603  0.90579  0.17279  Biso   1.000  V
  V15      1.0000 0.43990  0.57717  0.06418  Biso   1.000  V
  P17      1.0000 0.39314  0.87180  0.06057  Biso   1.000  P
  P18      1.0000 0.31049  0.61590  0.12372  Biso   1.000  P
  P19      1.0000 0.21443  0.12530  0.17499  Biso   1.000  P
  P20      1.0000 0.55754  0.68580  0.00434  Biso   1.000  P
  O73      1.0000 0.26540  0.05410  0.14550  Biso   1.000  O
  O74      1.0000 0.25740  0.83660  0.21260  Biso   1.000  O
  O75      1.0000 0.36020  0.95170  0.10200  Biso   1.000  O
  O76      1.0000 0.34860  0.71050  0.17020  Biso   1.000  O
  O77      1.0000 0.35800  0.53730  0.09400  Biso   1.000  O
  O78      1.0000 0.48520  0.65870  0.00440  Biso   1.000  O
  O79      1.0000 0.56600  0.78690  0.95850  Biso   1.000  O
  O80      1.0000 0.59190  0.74760  0.06390  Biso   1.000  O
  O81      1.0000 0.40540  0.44400  0.00340  Biso   1.000  O
  O82      1.0000 0.43490  0.76010  0.09140  Biso   1.000  O
  O83      1.0000 0.26150  0.70130  0.08180  Biso   1.000  O
  O84      1.0000 0.34320  0.81460  0.00970  Biso   1.000  O
  O85      1.0000 0.43880  0.96690  0.03310  Biso   1.000  O
  O86      1.0000 0.27470  0.77720  0.32870  Biso   1.000  O
  O87      1.0000 0.23130  0.01420  0.35000  Biso   1.000  O
  O88      1.0000 0.22400  0.08420  0.23880  Biso   1.000  O
  O89      1.0000 0.14520  0.08930  0.14380  Biso   1.000  O
  O90      1.0000 0.27810  0.57290  0.97600  Biso   1.000  O
  H13      1.0000 0.31270  0.49810  0.98630  Biso   1.000  H
  H14      1.0000 0.26690  0.75150  0.21840  Biso   1.000  H
  H15      1.0000 0.61320  0.68770  0.09100  Biso   1.000  H
  V16      1.0000 0.72143  0.40999  0.27753  Biso   1.000  V
  V17      1.0000 0.82603  0.40579  0.17279  Biso   1.000  V
  V18      1.0000 0.93990  0.07717  0.06418  Biso   1.000  V
  P21      1.0000 0.89314  0.37180  0.06057  Biso   1.000  P
  P22      1.0000 0.81049  0.11590  0.12372  Biso   1.000  P
  P23      1.0000 0.71443  0.62530  0.17499  Biso   1.000  P
  P24      1.0000 0.05754  0.18580  0.00434  Biso   1.000  P
  O91      1.0000 0.76540  0.55410  0.14550  Biso   1.000  O
  O92      1.0000 0.75740  0.33660  0.21260  Biso   1.000  O
  O93      1.0000 0.86020  0.45170  0.10200  Biso   1.000  O
  O94      1.0000 0.84860  0.21050  0.17020  Biso   1.000  O
  O95      1.0000 0.85800  0.03730  0.09400  Biso   1.000  O
  O96      1.0000 0.98520  0.15870  0.00440  Biso   1.000  O
  O97      1.0000 0.06600  0.28690  0.95850  Biso   1.000  O
  O98      1.0000 0.09190  0.24760  0.06390  Biso   1.000  O
  O99      1.0000 0.90540  0.94400  0.00340  Biso   1.000  O
  O100     1.0000 0.93490  0.26010  0.09140  Biso   1.000  O
  O101     1.0000 0.76150  0.20130  0.08180  Biso   1.000  O
  O102     1.0000 0.84320  0.31460  0.00970  Biso   1.000  O
  O103     1.0000 0.93880  0.46690  0.03310  Biso   1.000  O
  O104     1.0000 0.77470  0.27720  0.32870  Biso   1.000  O
  O105     1.0000 0.73130  0.51420  0.35000  Biso   1.000  O
  O106     1.0000 0.72400  0.58420  0.23880  Biso   1.000  O
  O107     1.0000 0.64520  0.58930  0.14380  Biso   1.000  O
  O108     1.0000 0.77810  0.07290  0.97600  Biso   1.000  O
  H16      1.0000 0.81270  0.99810  0.98630  Biso   1.000  H
  H17      1.0000 0.76690  0.25150  0.21840  Biso   1.000  H
  H18      1.0000 0.11320  0.18770  0.09100  Biso   1.000  H
  V19      1.0000 0.77857  0.90999  0.22247  Biso   1.000  V
  V20      1.0000 0.67397  0.90579  0.32721  Biso   1.000  V
  V21      1.0000 0.56010  0.57717  0.43582  Biso   1.000  V
  P25      1.0000 0.60686  0.87180  0.43943  Biso   1.000  P
  P26      1.0000 0.68951  0.61590  0.37628  Biso   1.000  P
  P27      1.0000 0.78557  0.12530  0.32501  Biso   1.000  P
  P28      1.0000 0.44246  0.68580  0.49566  Biso   1.000  P
  O109     1.0000 0.73460  0.05410  0.35450  Biso   1.000  O
  O110     1.0000 0.74260  0.83660  0.28740  Biso   1.000  O
  O111     1.0000 0.63980  0.95170  0.39800  Biso   1.000  O
  O112     1.0000 0.65140  0.71050  0.32980  Biso   1.000  O
  O113     1.0000 0.64200  0.53730  0.40600  Biso   1.000  O
  O114     1.0000 0.51480  0.65870  0.49560  Biso   1.000  O
  O115     1.0000 0.43400  0.78690  0.54150  Biso   1.000  O
  O116     1.0000 0.40810  0.74760  0.43610  Biso   1.000  O
  O117     1.0000 0.59460  0.44400  0.49660  Biso   1.000  O
  O118     1.0000 0.56510  0.76010  0.40860  Biso   1.000  O
  O119     1.0000 0.73850  0.70130  0.41820  Biso   1.000  O
  O120     1.0000 0.65680  0.81460  0.49030  Biso   1.000  O
  O121     1.0000 0.56120  0.96690  0.46690  Biso   1.000  O
  O122     1.0000 0.72530  0.77720  0.17130  Biso   1.000  O
  O123     1.0000 0.76870  0.01420  0.15000  Biso   1.000  O
  O124     1.0000 0.77600  0.08420  0.26120  Biso   1.000  O
  O125     1.0000 0.85480  0.08930  0.35620  Biso   1.000  O
  O126     1.0000 0.72190  0.57290  0.52400  Biso   1.000  O
  H19      1.0000 0.68730  0.49810  0.51370  Biso   1.000  H
  H20      1.0000 0.73310  0.75150  0.28160  Biso   1.000  H
  H21      1.0000 0.38680  0.68770  0.40900  Biso   1.000  H
  V22      1.0000 0.27857  0.40999  0.22247  Biso   1.000  V
  V23      1.0000 0.17397  0.40579  0.32721  Biso   1.000  V
  V24      1.0000 0.06010  0.07717  0.43582  Biso   1.000  V
  P29      1.0000 0.10686  0.37180  0.43943  Biso   1.000  P
  P30      1.0000 0.18951  0.11590  0.37628  Biso   1.000  P
  P31      1.0000 0.28557  0.62530  0.32501  Biso   1.000  P
  P32      1.0000 0.94246  0.18580  0.49566  Biso   1.000  P
  O127     1.0000 0.23460  0.55410  0.35450  Biso   1.000  O
  O128     1.0000 0.24260  0.33660  0.28740  Biso   1.000  O
  O129     1.0000 0.13980  0.45170  0.39800  Biso   1.000  O
  O130     1.0000 0.15140  0.21050  0.32980  Biso   1.000  O
  O131     1.0000 0.14200  0.03730  0.40600  Biso   1.000  O
  O132     1.0000 0.01480  0.15870  0.49560  Biso   1.000  O
  O133     1.0000 0.93400  0.28690  0.54150  Biso   1.000  O
  O134     1.0000 0.90810  0.24760  0.43610  Biso   1.000  O
  O135     1.0000 0.09460  0.94400  0.49660  Biso   1.000  O
  O136     1.0000 0.06510  0.26010  0.40860  Biso   1.000  O
  O137     1.0000 0.23850  0.20130  0.41820  Biso   1.000  O
  O138     1.0000 0.15680  0.31460  0.49030  Biso   1.000  O
  O139     1.0000 0.06120  0.46690  0.46690  Biso   1.000  O
  O140     1.0000 0.22530  0.27720  0.17130  Biso   1.000  O
  O141     1.0000 0.26870  0.51420  0.15000  Biso   1.000  O
  O142     1.0000 0.27600  0.58420  0.26120  Biso   1.000  O
  O143     1.0000 0.35480  0.58930  0.35620  Biso   1.000  O
  O144     1.0000 0.22190  0.07290  0.52400  Biso   1.000  O
  H22      1.0000 0.18730  0.99810  0.51370  Biso   1.000  H
  H23      1.0000 0.23310  0.25150  0.28160  Biso   1.000  H
  H24      1.0000 0.88680  0.18770  0.40900  Biso   1.000  H
  V25      1.0000 0.75000  0.25000  0.00000  Biso   1.000  V
  V26      1.0000 0.25000  0.25000  0.50000  Biso   1.000  V
  V27      1.0000 0.25000  0.75000  0.00000  Biso   1.000  V
  V28      1.0000 0.75000  0.75000  0.50000  Biso   1.000  V
