data_image0
_cell_length_a       14.6814
_cell_length_b       24.2887
_cell_length_c       9.9609
_cell_angle_alpha    90
_cell_angle_beta     98.392
_cell_angle_gamma    90

_symmetry_space_group_name_H-M    "P 1"
_symmetry_int_tables_number       1

loop_
  _symmetry_equiv_pos_as_xyz
  'x, y, z'

loop_
  _atom_site_label
  _atom_site_occupancy
  _atom_site_fract_x
  _atom_site_fract_y
  _atom_site_fract_z
  _atom_site_thermal_displace_type
  _atom_site_B_iso_or_equiv
  _atom_site_type_symbol
  Zn1      1.0000 0.42710  0.12449  0.12505  Biso   1.000  Zn
  Zn2      1.0000 0.19940  0.18591  0.56240  Biso   1.000  Zn
  C1       1.0000 0.05900  0.04948  0.65670  Biso   1.000  C
  C2       1.0000 0.98330  0.04932  0.72630  Biso   1.000  C
  H1       1.0000 0.95780  0.08240  0.74920  Biso   1.000  H
  C3       1.0000 0.10140  0.10277  0.62150  Biso   1.000  C
  O1       1.0000 0.16260  0.10219  0.54670  Biso   1.000  O
  O2       1.0000 0.07720  0.14715  0.66960  Biso   1.000  O
  O3       1.0000 0.85670  0.05020  0.92910  Biso   1.000  O
  N1       1.0000 0.55820  0.15048  0.15820  Biso   1.000  N
  N2       1.0000 0.62000  0.14039  0.06780  Biso   1.000  N
  N3       1.0000 0.69910  0.16650  0.26520  Biso   1.000  N
  C4       1.0000 0.70280  0.15003  0.13630  Biso   1.000  C
  C5       1.0000 0.60850  0.16577  0.27160  Biso   1.000  C
  H2       1.0000 0.58370  0.17520  0.34920  Biso   1.000  H
  C6       1.0000 0.36690  0.22106  0.27400  Biso   1.000  C
  H3       1.0000 0.39690  0.24510  0.22240  Biso   1.000  H
  N4       1.0000 0.36380  0.16617  0.25520  Biso   1.000  N
  N5       1.0000 0.28860  0.18956  0.42380  Biso   1.000  N
  C7       1.0000 0.31500  0.14845  0.35100  Biso   1.000  C
  N6       1.0000 0.32310  0.23696  0.37280  Biso   1.000  N
  N7       1.0000 0.43250  0.04515  0.16170  Biso   1.000  N
  N8       1.0000 0.78280  0.14430  0.08110  Biso   1.000  N
  H4       1.0000 0.78070  0.13400  0.99810  Biso   1.000  H
  H5       1.0000 0.83510  0.15110  0.12960  Biso   1.000  H
  N9       1.0000 0.30210  0.09550  0.37800  Biso   1.000  N
  H6       1.0000 0.27520  0.08640  0.44600  Biso   1.000  H
  H7       1.0000 0.32060  0.07030  0.32750  Biso   1.000  H
  C8       1.0000 0.48190  0.02620  0.28610  Biso   1.000  C
  N10      1.0000 0.48190  0.97380  0.28610  Biso   1.000  N
  Zn3      1.0000 0.92710  0.62449  0.12505  Biso   1.000  Zn
  Zn4      1.0000 0.69940  0.68591  0.56240  Biso   1.000  Zn
  C9       1.0000 0.55900  0.54948  0.65670  Biso   1.000  C
  C10      1.0000 0.48330  0.54932  0.72630  Biso   1.000  C
  H8       1.0000 0.45780  0.58240  0.74920  Biso   1.000  H
  C11      1.0000 0.60140  0.60277  0.62150  Biso   1.000  C
  O4       1.0000 0.66260  0.60219  0.54670  Biso   1.000  O
  O5       1.0000 0.57720  0.64715  0.66960  Biso   1.000  O
  O6       1.0000 0.35670  0.55020  0.92910  Biso   1.000  O
  N11      1.0000 0.05820  0.65048  0.15820  Biso   1.000  N
  N12      1.0000 0.12000  0.64039  0.06780  Biso   1.000  N
  N13      1.0000 0.19910  0.66650  0.26520  Biso   1.000  N
  C12      1.0000 0.20280  0.65003  0.13630  Biso   1.000  C
  C13      1.0000 0.10850  0.66577  0.27160  Biso   1.000  C
  H9       1.0000 0.08370  0.67520  0.34920  Biso   1.000  H
  C14      1.0000 0.86690  0.72106  0.27400  Biso   1.000  C
  H10      1.0000 0.89690  0.74510  0.22240  Biso   1.000  H
  N14      1.0000 0.86380  0.66617  0.25520  Biso   1.000  N
  N15      1.0000 0.78860  0.68956  0.42380  Biso   1.000  N
  C15      1.0000 0.81500  0.64845  0.35100  Biso   1.000  C
  N16      1.0000 0.82310  0.73696  0.37280  Biso   1.000  N
  N17      1.0000 0.93250  0.54515  0.16170  Biso   1.000  N
  N18      1.0000 0.28280  0.64430  0.08110  Biso   1.000  N
  H11      1.0000 0.28070  0.63400  0.99810  Biso   1.000  H
  H12      1.0000 0.33510  0.65110  0.12960  Biso   1.000  H
  N19      1.0000 0.80210  0.59550  0.37800  Biso   1.000  N
  H13      1.0000 0.77520  0.58640  0.44600  Biso   1.000  H
  H14      1.0000 0.82060  0.57030  0.32750  Biso   1.000  H
  C16      1.0000 0.98190  0.52620  0.28610  Biso   1.000  C
  N20      1.0000 0.98190  0.47380  0.28610  Biso   1.000  N
  Zn5      1.0000 0.57290  0.12449  0.87495  Biso   1.000  Zn
  Zn6      1.0000 0.80060  0.18591  0.43760  Biso   1.000  Zn
  C17      1.0000 0.94100  0.04948  0.34330  Biso   1.000  C
  C18      1.0000 0.01670  0.04932  0.27370  Biso   1.000  C
  H15      1.0000 0.04220  0.08240  0.25080  Biso   1.000  H
  C19      1.0000 0.89860  0.10277  0.37850  Biso   1.000  C
  O7       1.0000 0.83740  0.10219  0.45330  Biso   1.000  O
  O8       1.0000 0.92280  0.14715  0.33040  Biso   1.000  O
  O9       1.0000 0.14330  0.05020  0.07090  Biso   1.000  O
  N21      1.0000 0.44180  0.15048  0.84180  Biso   1.000  N
  N22      1.0000 0.38000  0.14039  0.93220  Biso   1.000  N
  N23      1.0000 0.30090  0.16650  0.73480  Biso   1.000  N
  C20      1.0000 0.29720  0.15003  0.86370  Biso   1.000  C
  C21      1.0000 0.39150  0.16577  0.72840  Biso   1.000  C
  H16      1.0000 0.41630  0.17520  0.65080  Biso   1.000  H
  C22      1.0000 0.63310  0.22106  0.72600  Biso   1.000  C
  H17      1.0000 0.60310  0.24510  0.77760  Biso   1.000  H
  N24      1.0000 0.63620  0.16617  0.74480  Biso   1.000  N
  N25      1.0000 0.71140  0.18956  0.57620  Biso   1.000  N
  C23      1.0000 0.68500  0.14845  0.64900  Biso   1.000  C
  N26      1.0000 0.67690  0.23696  0.62720  Biso   1.000  N
  N27      1.0000 0.56750  0.04515  0.83830  Biso   1.000  N
  N28      1.0000 0.21720  0.14430  0.91890  Biso   1.000  N
  H18      1.0000 0.21930  0.13400  0.00190  Biso   1.000  H
  H19      1.0000 0.16490  0.15110  0.87040  Biso   1.000  H
  N29      1.0000 0.69790  0.09550  0.62200  Biso   1.000  N
  H20      1.0000 0.72480  0.08640  0.55400  Biso   1.000  H
  H21      1.0000 0.67940  0.07030  0.67250  Biso   1.000  H
  C24      1.0000 0.51810  0.02620  0.71390  Biso   1.000  C
  N30      1.0000 0.51810  0.97380  0.71390  Biso   1.000  N
  Zn7      1.0000 0.07290  0.62449  0.87495  Biso   1.000  Zn
  Zn8      1.0000 0.30060  0.68591  0.43760  Biso   1.000  Zn
  C25      1.0000 0.44100  0.54948  0.34330  Biso   1.000  C
  C26      1.0000 0.51670  0.54932  0.27370  Biso   1.000  C
  H22      1.0000 0.54220  0.58240  0.25080  Biso   1.000  H
  C27      1.0000 0.39860  0.60277  0.37850  Biso   1.000  C
  O10      1.0000 0.33740  0.60219  0.45330  Biso   1.000  O
  O11      1.0000 0.42280  0.64715  0.33040  Biso   1.000  O
  O12      1.0000 0.64330  0.55020  0.07090  Biso   1.000  O
  N31      1.0000 0.94180  0.65048  0.84180  Biso   1.000  N
  N32      1.0000 0.88000  0.64039  0.93220  Biso   1.000  N
  N33      1.0000 0.80090  0.66650  0.73480  Biso   1.000  N
  C28      1.0000 0.79720  0.65003  0.86370  Biso   1.000  C
  C29      1.0000 0.89150  0.66577  0.72840  Biso   1.000  C
  H23      1.0000 0.91630  0.67520  0.65080  Biso   1.000  H
  C30      1.0000 0.13310  0.72106  0.72600  Biso   1.000  C
  H24      1.0000 0.10310  0.74510  0.77760  Biso   1.000  H
  N34      1.0000 0.13620  0.66617  0.74480  Biso   1.000  N
  N35      1.0000 0.21140  0.68956  0.57620  Biso   1.000  N
  C31      1.0000 0.18500  0.64845  0.64900  Biso   1.000  C
  N36      1.0000 0.17690  0.73696  0.62720  Biso   1.000  N
  N37      1.0000 0.06750  0.54515  0.83830  Biso   1.000  N
  N38      1.0000 0.71720  0.64430  0.91890  Biso   1.000  N
  H25      1.0000 0.71930  0.63400  0.00190  Biso   1.000  H
  H26      1.0000 0.66490  0.65110  0.87040  Biso   1.000  H
  N39      1.0000 0.19790  0.59550  0.62200  Biso   1.000  N
  H27      1.0000 0.22480  0.58640  0.55400  Biso   1.000  H
  H28      1.0000 0.17940  0.57030  0.67250  Biso   1.000  H
  C32      1.0000 0.01810  0.52620  0.71390  Biso   1.000  C
  N40      1.0000 0.01810  0.47380  0.71390  Biso   1.000  N
  Zn9      1.0000 0.57290  0.87551  0.87495  Biso   1.000  Zn
  Zn10     1.0000 0.80060  0.81409  0.43760  Biso   1.000  Zn
  C33      1.0000 0.94100  0.95052  0.34330  Biso   1.000  C
  C34      1.0000 0.01670  0.95068  0.27370  Biso   1.000  C
  H29      1.0000 0.04220  0.91760  0.25080  Biso   1.000  H
  C35      1.0000 0.89860  0.89723  0.37850  Biso   1.000  C
  O13      1.0000 0.83740  0.89781  0.45330  Biso   1.000  O
  O14      1.0000 0.92280  0.85285  0.33040  Biso   1.000  O
  O15      1.0000 0.14330  0.94980  0.07090  Biso   1.000  O
  N41      1.0000 0.44180  0.84952  0.84180  Biso   1.000  N
  N42      1.0000 0.38000  0.85961  0.93220  Biso   1.000  N
  N43      1.0000 0.30090  0.83350  0.73480  Biso   1.000  N
  C36      1.0000 0.29720  0.84997  0.86370  Biso   1.000  C
  C37      1.0000 0.39150  0.83423  0.72840  Biso   1.000  C
  H30      1.0000 0.41630  0.82480  0.65080  Biso   1.000  H
  C38      1.0000 0.63310  0.77894  0.72600  Biso   1.000  C
  H31      1.0000 0.60310  0.75490  0.77760  Biso   1.000  H
  N44      1.0000 0.63620  0.83383  0.74480  Biso   1.000  N
  N45      1.0000 0.71140  0.81044  0.57620  Biso   1.000  N
  C39      1.0000 0.68500  0.85155  0.64900  Biso   1.000  C
  N46      1.0000 0.67690  0.76304  0.62720  Biso   1.000  N
  N47      1.0000 0.56750  0.95485  0.83830  Biso   1.000  N
  N48      1.0000 0.21720  0.85570  0.91890  Biso   1.000  N
  H32      1.0000 0.21930  0.86600  0.00190  Biso   1.000  H
  H33      1.0000 0.16490  0.84890  0.87040  Biso   1.000  H
  N49      1.0000 0.69790  0.90450  0.62200  Biso   1.000  N
  H34      1.0000 0.72480  0.91360  0.55400  Biso   1.000  H
  H35      1.0000 0.67940  0.92970  0.67250  Biso   1.000  H
  Zn11     1.0000 0.07290  0.37551  0.87495  Biso   1.000  Zn
  Zn12     1.0000 0.30060  0.31409  0.43760  Biso   1.000  Zn
  C40      1.0000 0.44100  0.45052  0.34330  Biso   1.000  C
  C41      1.0000 0.51670  0.45068  0.27370  Biso   1.000  C
  H36      1.0000 0.54220  0.41760  0.25080  Biso   1.000  H
  C42      1.0000 0.39860  0.39723  0.37850  Biso   1.000  C
  O16      1.0000 0.33740  0.39781  0.45330  Biso   1.000  O
  O17      1.0000 0.42280  0.35285  0.33040  Biso   1.000  O
  O18      1.0000 0.64330  0.44980  0.07090  Biso   1.000  O
  N50      1.0000 0.94180  0.34952  0.84180  Biso   1.000  N
  N51      1.0000 0.88000  0.35961  0.93220  Biso   1.000  N
  N52      1.0000 0.80090  0.33350  0.73480  Biso   1.000  N
  C43      1.0000 0.79720  0.34997  0.86370  Biso   1.000  C
  C44      1.0000 0.89150  0.33423  0.72840  Biso   1.000  C
  H37      1.0000 0.91630  0.32480  0.65080  Biso   1.000  H
  C45      1.0000 0.13310  0.27894  0.72600  Biso   1.000  C
  H38      1.0000 0.10310  0.25490  0.77760  Biso   1.000  H
  N53      1.0000 0.13620  0.33383  0.74480  Biso   1.000  N
  N54      1.0000 0.21140  0.31044  0.57620  Biso   1.000  N
  C46      1.0000 0.18500  0.35155  0.64900  Biso   1.000  C
  N55      1.0000 0.17690  0.26304  0.62720  Biso   1.000  N
  N56      1.0000 0.06750  0.45485  0.83830  Biso   1.000  N
  N57      1.0000 0.71720  0.35570  0.91890  Biso   1.000  N
  H39      1.0000 0.71930  0.36600  0.00190  Biso   1.000  H
  H40      1.0000 0.66490  0.34890  0.87040  Biso   1.000  H
  N58      1.0000 0.19790  0.40450  0.62200  Biso   1.000  N
  H41      1.0000 0.22480  0.41360  0.55400  Biso   1.000  H
  H42      1.0000 0.17940  0.42970  0.67250  Biso   1.000  H
  Zn13     1.0000 0.42710  0.87551  0.12505  Biso   1.000  Zn
  Zn14     1.0000 0.19940  0.81409  0.56240  Biso   1.000  Zn
  C47      1.0000 0.05900  0.95052  0.65670  Biso   1.000  C
  C48      1.0000 0.98330  0.95068  0.72630  Biso   1.000  C
  H43      1.0000 0.95780  0.91760  0.74920  Biso   1.000  H
  C49      1.0000 0.10140  0.89723  0.62150  Biso   1.000  C
  O19      1.0000 0.16260  0.89781  0.54670  Biso   1.000  O
  O20      1.0000 0.07720  0.85285  0.66960  Biso   1.000  O
  O21      1.0000 0.85670  0.94980  0.92910  Biso   1.000  O
  N59      1.0000 0.55820  0.84952  0.15820  Biso   1.000  N
  N60      1.0000 0.62000  0.85961  0.06780  Biso   1.000  N
  N61      1.0000 0.69910  0.83350  0.26520  Biso   1.000  N
  C50      1.0000 0.70280  0.84997  0.13630  Biso   1.000  C
  C51      1.0000 0.60850  0.83423  0.27160  Biso   1.000  C
  H44      1.0000 0.58370  0.82480  0.34920  Biso   1.000  H
  C52      1.0000 0.36690  0.77894  0.27400  Biso   1.000  C
  H45      1.0000 0.39690  0.75490  0.22240  Biso   1.000  H
  N62      1.0000 0.36380  0.83383  0.25520  Biso   1.000  N
  N63      1.0000 0.28860  0.81044  0.42380  Biso   1.000  N
  C53      1.0000 0.31500  0.85155  0.35100  Biso   1.000  C
  N64      1.0000 0.32310  0.76304  0.37280  Biso   1.000  N
  N65      1.0000 0.43250  0.95485  0.16170  Biso   1.000  N
  N66      1.0000 0.78280  0.85570  0.08110  Biso   1.000  N
  H46      1.0000 0.78070  0.86600  0.99810  Biso   1.000  H
  H47      1.0000 0.83510  0.84890  0.12960  Biso   1.000  H
  N67      1.0000 0.30210  0.90450  0.37800  Biso   1.000  N
  H48      1.0000 0.27520  0.91360  0.44600  Biso   1.000  H
  H49      1.0000 0.32060  0.92970  0.32750  Biso   1.000  H
  Zn15     1.0000 0.92710  0.37551  0.12505  Biso   1.000  Zn
  Zn16     1.0000 0.69940  0.31409  0.56240  Biso   1.000  Zn
  C54      1.0000 0.55900  0.45052  0.65670  Biso   1.000  C
  C55      1.0000 0.48330  0.45068  0.72630  Biso   1.000  C
  H50      1.0000 0.45780  0.41760  0.74920  Biso   1.000  H
  C56      1.0000 0.60140  0.39723  0.62150  Biso   1.000  C
  O22      1.0000 0.66260  0.39781  0.54670  Biso   1.000  O
  O23      1.0000 0.57720  0.35285  0.66960  Biso   1.000  O
  O24      1.0000 0.35670  0.44980  0.92910  Biso   1.000  O
  N68      1.0000 0.05820  0.34952  0.15820  Biso   1.000  N
  N69      1.0000 0.12000  0.35961  0.06780  Biso   1.000  N
  N70      1.0000 0.19910  0.33350  0.26520  Biso   1.000  N
  C57      1.0000 0.20280  0.34997  0.13630  Biso   1.000  C
  C58      1.0000 0.10850  0.33423  0.27160  Biso   1.000  C
  H51      1.0000 0.08370  0.32480  0.34920  Biso   1.000  H
  C59      1.0000 0.86690  0.27894  0.27400  Biso   1.000  C
  H52      1.0000 0.89690  0.25490  0.22240  Biso   1.000  H
  N71      1.0000 0.86380  0.33383  0.25520  Biso   1.000  N
  N72      1.0000 0.78860  0.31044  0.42380  Biso   1.000  N
  C60      1.0000 0.81500  0.35155  0.35100  Biso   1.000  C
  N73      1.0000 0.82310  0.26304  0.37280  Biso   1.000  N
  N74      1.0000 0.93250  0.45485  0.16170  Biso   1.000  N
  N75      1.0000 0.28280  0.35570  0.08110  Biso   1.000  N
  H53      1.0000 0.28070  0.36600  0.99810  Biso   1.000  H
  H54      1.0000 0.33510  0.34890  0.12960  Biso   1.000  H
  N76      1.0000 0.80210  0.40450  0.37800  Biso   1.000  N
  H55      1.0000 0.77520  0.41360  0.44600  Biso   1.000  H
  H56      1.0000 0.82060  0.42970  0.32750  Biso   1.000  H
  S1       1.0000 0.85032  0.00000  0.85170  Biso   1.000  S
  C61      1.0000 0.94620  0.00000  0.76140  Biso   1.000  C
  C62      1.0000 0.09620  0.00000  0.62100  Biso   1.000  C
  H57      1.0000 0.14610  0.00000  0.57320  Biso   1.000  H
  O25      1.0000 0.77020  0.00000  0.75190  Biso   1.000  O
  C63      1.0000 0.40860  0.00000  0.09680  Biso   1.000  C
  N77      1.0000 0.35540  0.00000  0.96840  Biso   1.000  N
  S2       1.0000 0.35032  0.50000  0.85170  Biso   1.000  S
  C64      1.0000 0.44620  0.50000  0.76140  Biso   1.000  C
  C65      1.0000 0.59620  0.50000  0.62100  Biso   1.000  C
  H58      1.0000 0.64610  0.50000  0.57320  Biso   1.000  H
  O26      1.0000 0.27020  0.50000  0.75190  Biso   1.000  O
  C66      1.0000 0.90860  0.50000  0.09680  Biso   1.000  C
  N78      1.0000 0.85540  0.50000  0.96840  Biso   1.000  N
  S3       1.0000 0.14968  0.00000  0.14830  Biso   1.000  S
  C67      1.0000 0.05380  0.00000  0.23860  Biso   1.000  C
  C68      1.0000 0.90380  0.00000  0.37900  Biso   1.000  C
  H59      1.0000 0.85390  0.00000  0.42680  Biso   1.000  H
  O27      1.0000 0.22980  0.00000  0.24810  Biso   1.000  O
  C69      1.0000 0.59140  0.00000  0.90320  Biso   1.000  C
  N79      1.0000 0.64460  0.00000  0.03160  Biso   1.000  N
  S4       1.0000 0.64968  0.50000  0.14830  Biso   1.000  S
  C70      1.0000 0.55380  0.50000  0.23860  Biso   1.000  C
  C71      1.0000 0.40380  0.50000  0.37900  Biso   1.000  C
  H60      1.0000 0.35390  0.50000  0.42680  Biso   1.000  H
  O28      1.0000 0.72980  0.50000  0.24810  Biso   1.000  O
  C72      1.0000 0.09140  0.50000  0.90320  Biso   1.000  C
  N80      1.0000 0.14460  0.50000  0.03160  Biso   1.000  N
