data_ZARLIP_clean
_audit_creation_date              2014-07-02
_audit_creation_method            'Materials Studio'
_symmetry_space_group_name_H-M    'P1'
_symmetry_Int_Tables_number       1
_symmetry_cell_setting            triclinic
loop_
_symmetry_equiv_pos_as_xyz
  x,y,z
_cell_length_a                    20.2587
_cell_length_b                    21.5010
_cell_length_c                    22.3879
_cell_angle_alpha                 110.7980
_cell_angle_beta                  108.6420
_cell_angle_gamma                 106.0540
loop_
_atom_site_label
_atom_site_type_symbol
_atom_site_fract_x
_atom_site_fract_y
_atom_site_fract_z
_atom_site_U_iso_or_equiv
_atom_site_adp_type
_atom_site_occupancy
Zn1    Zn    0.37608   0.61675   0.43208   0.01267  Uiso   1.00
Zn2    Zn    0.26310   0.67858   0.36153   0.01267  Uiso   1.00
Zn3    Zn    0.55600   0.81533   0.43208   0.01267  Uiso   1.00
Zn4    Zn    0.59843   0.68295   0.36153   0.01267  Uiso   1.00
Zn5    Zn    0.40162   0.65162   0.30324   0.01267  Uiso   1.00
H1     H     0.58660   0.90900   0.62220   0.01267  Uiso   1.00
H2     H     0.79630   0.09160   0.99240   0.01267  Uiso   1.00
H3     H     0.06990   0.04410   0.94400   0.01267  Uiso   1.00
H4     H     0.65070   0.97190   0.74820   0.01267  Uiso   1.00
H5     H     0.00120   0.84650   0.94120   0.01267  Uiso   1.00
H6     H     0.16040   0.03500   0.12820   0.01267  Uiso   1.00
H7     H     0.73870   0.90120   0.64020   0.01267  Uiso   1.00
H8     H     0.78790   0.73120   0.55540   0.01267  Uiso   1.00
H9     H     0.29620   0.28000   0.25880   0.01267  Uiso   1.00
H10    H     0.83360   0.93930   0.75420   0.01267  Uiso   1.00
H11    H     0.36080   0.40770   0.32680   0.01267  Uiso   1.00
H12    H     0.08630   0.27650   0.23300   0.01267  Uiso   1.00
H13    H     0.26630   0.80670   0.25040   0.01267  Uiso   1.00
H14    H     0.88180   0.76870   0.66980   0.01267  Uiso   1.00
H15    H     0.19180   0.39390   0.30280   0.01267  Uiso   1.00
H16    H     0.04930   0.48490   0.25140   0.01267  Uiso   1.00
H17    H     0.27800   0.42500   0.14940   0.01267  Uiso   1.00
H18    H     0.23640   0.86210   0.17900   0.01267  Uiso   1.00
H19    H     0.94300   0.37000   0.18760   0.01267  Uiso   1.00
H20    H     0.05160   0.73870   0.22900   0.01267  Uiso   1.00
H21    H     0.01940   0.79320   0.15740   0.01267  Uiso   1.00
H22    H     0.22270   0.29820   0.07960   0.01267  Uiso   1.00
H23    H     0.53560   0.71320   0.62220   0.01267  Uiso   1.00
H24    H     0.69610   0.90080   0.99240   0.01267  Uiso   1.00
H25    H     0.37410   0.89990   0.94400   0.01267  Uiso   1.00
H26    H     0.59750   0.77630   0.74820   0.01267  Uiso   1.00
H27    H     0.44000   0.09470   0.94120   0.01267  Uiso   1.00
H28    H     0.46780   0.09320   0.12820   0.01267  Uiso   1.00
H29    H     0.40150   0.73900   0.64020   0.01267  Uiso   1.00
H30    H     0.26750   0.82420   0.55540   0.01267  Uiso   1.00
H31    H     0.46260   0.97880   0.25880   0.01267  Uiso   1.00
H32    H     0.42060   0.81490   0.75420   0.01267  Uiso   1.00
H33    H     0.46600   0.91910   0.32680   0.01267  Uiso   1.00
H34    H     0.64670   0.95650   0.23300   0.01267  Uiso   1.00
H35    H     0.48410   0.44370   0.25040   0.01267  Uiso   1.00
H36    H     0.28800   0.90110   0.66980   0.01267  Uiso   1.00
H37    H     0.61100   0.90890   0.30280   0.01267  Uiso   1.00
H38    H     0.70210   0.76650   0.25140   0.01267  Uiso   1.00
H39    H     0.37140   0.72440   0.14940   0.01267  Uiso   1.00
H40    H     0.44260   0.31690   0.17900   0.01267  Uiso   1.00
H41    H     0.74460   0.81760   0.18760   0.01267  Uiso   1.00
H42    H     0.67740   0.49030   0.22900   0.01267  Uiso   1.00
H43    H     0.63800   0.36420   0.15740   0.01267  Uiso   1.00
H44    H     0.35690   0.78140   0.07960   0.01267  Uiso   1.00
H45    H     0.84110   0.09110   0.18220   0.01267  Uiso   1.00
C1     C     0.36330   0.51194   0.28888   0.01267  Uiso   1.00
C2     C     0.58917   0.88194   0.64776   0.01267  Uiso   1.00
C3     C     0.78946   0.06539   0.01808   0.01267  Uiso   1.00
C4     C     0.07221   0.01611   0.96866   0.01267  Uiso   1.00
C5     C     0.97225   0.90524   0.85612   0.01267  Uiso   1.00
C6     C     0.75325   0.81130   0.58624   0.01267  Uiso   1.00
C7     C     0.12186   0.05187   0.04254   0.01267  Uiso   1.00
C8     C     0.82939   0.10304   0.09410   0.01267  Uiso   1.00
C9     C     0.62695   0.91929   0.72270   0.01267  Uiso   1.00
C10    C     0.03154   0.89873   0.96688   0.01267  Uiso   1.00
C11    C     0.16801   0.13069   0.08242   0.01267  Uiso   1.00
C12    C     0.12639   0.01081   0.07798   0.01267  Uiso   1.00
C13    C     0.88762   0.17861   0.13226   0.01267  Uiso   1.00
C14    C     0.19987   0.52627   0.32664   0.01267  Uiso   1.00
C15    C     0.32657   0.42906   0.24530   0.01267  Uiso   1.00
C16    C     0.86687   0.85628   0.72376   0.01267  Uiso   1.00
C17    C     0.76761   0.87391   0.64612   0.01267  Uiso   1.00
C18    C     0.08169   0.93452   0.04076   0.01267  Uiso   1.00
C19    C     0.02606   0.93993   0.93062   0.01267  Uiso   1.00
C20    C     0.09176   0.89403   0.07964   0.01267  Uiso   1.00
C21    C     0.93879   0.23949   0.16494   0.01267  Uiso   1.00
C22    C     0.00427   0.31197   0.20520   0.01267  Uiso   1.00
C23    C     0.20533   0.19603   0.11856   0.01267  Uiso   1.00
C24    C     0.79646   0.77336   0.59594   0.01267  Uiso   1.00
C25    C     0.29209   0.30909   0.23552   0.01267  Uiso   1.00
C26    C     0.82382   0.89632   0.71382   0.01267  Uiso   1.00
C27    C     0.33062   0.38532   0.27596   0.01267  Uiso   1.00
C28    C     0.07821   0.31911   0.23796   0.01267  Uiso   1.00
C29    C     0.13112   0.45074   0.28400   0.01267  Uiso   1.00
C30    C     0.92538   0.88128   0.79450   0.01267  Uiso   1.00
C31    C     0.24786   0.27486   0.16194   0.01267  Uiso   1.00
C32    C     0.21574   0.80384   0.23130   0.01267  Uiso   1.00
C33    C     0.16256   0.76836   0.24604   0.01267  Uiso   1.00
C34    C     0.85262   0.79589   0.66428   0.01267  Uiso   1.00
C35    C     0.12541   0.83201   0.15980   0.01267  Uiso   1.00
C36    C     0.14118   0.38908   0.27860   0.01267  Uiso   1.00
C37    C     0.05688   0.44258   0.24894   0.01267  Uiso   1.00
C38    C     0.28331   0.39541   0.17196   0.01267  Uiso   1.00
C39    C     0.19787   0.83657   0.18832   0.01267  Uiso   1.00
C40    C     0.99374   0.37434   0.21044   0.01267  Uiso   1.00
C41    C     0.10633   0.86613   0.11536   0.01267  Uiso   1.00
C42    C     0.08919   0.76389   0.21858   0.01267  Uiso   1.00
C43    C     0.06989   0.79579   0.17578   0.01267  Uiso   1.00
C44    C     0.24785   0.32005   0.13078   0.01267  Uiso   1.00
C45    C     0.69149   0.78729   0.51344   0.01267  Uiso   1.00
C46    C     0.18267   0.73227   0.29274   0.01267  Uiso   1.00
C47    C     0.42558   0.77694   0.28888   0.01267  Uiso   1.00
C48    C     0.55859   0.76582   0.64776   0.01267  Uiso   1.00
C49    C     0.72862   0.95269   0.01808   0.01267  Uiso   1.00
C50    C     0.39645   0.95255   0.96866   0.01267  Uiso   1.00
C51    C     0.38387   0.95088   0.85612   0.01267  Uiso   1.00
C52    C     0.33299   0.77494   0.58624   0.01267  Uiso   1.00
C53    C     0.42068   0.99067   0.04254   0.01267  Uiso   1.00
C54    C     0.76471   0.99106   0.09410   0.01267  Uiso   1.00
C55    C     0.59575   0.80341   0.72270   0.01267  Uiso   1.00
C56    C     0.43534   0.06815   0.96688   0.01267  Uiso   1.00
C57    C     0.41441   0.95173   0.08242   0.01267  Uiso   1.00
C58    C     0.45159   0.06717   0.07798   0.01267  Uiso   1.00
C59    C     0.74464   0.95365   0.13226   0.01267  Uiso   1.00
C60    C     0.62677   0.80037   0.32664   0.01267  Uiso   1.00
C61    C     0.41873   0.81624   0.24530   0.01267  Uiso   1.00
C62    C     0.35689   0.86748   0.72376   0.01267  Uiso   1.00
C63    C     0.37851   0.77221   0.64612   0.01267  Uiso   1.00
C64    C     0.45907   0.10624   0.04076   0.01267  Uiso   1.00
C65    C     0.40456   0.99069   0.93062   0.01267  Uiso   1.00
C66    C     0.48788   0.18561   0.07964   0.01267  Uiso   1.00
C67    C     0.72615   0.92545   0.16494   0.01267  Uiso   1.00
C68    C     0.70093   0.89323   0.20520   0.01267  Uiso   1.00
C69    C     0.41323   0.92253   0.11856   0.01267  Uiso   1.00
C70    C     0.29948   0.82258   0.59594   0.01267  Uiso   1.00
C71    C     0.44343   0.92643   0.23552   0.01267  Uiso   1.00
C72    C     0.39000   0.81750   0.71382   0.01267  Uiso   1.00
C73    C     0.44534   0.89064   0.27596   0.01267  Uiso   1.00
C74    C     0.65975   0.91885   0.23796   0.01267  Uiso   1.00
C75    C     0.65288   0.83326   0.28400   0.01267  Uiso   1.00
C76    C     0.36912   0.91322   0.79450   0.01267  Uiso   1.00
C77    C     0.41408   0.88708   0.16194   0.01267  Uiso   1.00
C78    C     0.51556   0.42746   0.23130   0.01267  Uiso   1.00
C79    C     0.58348   0.47768   0.24604   0.01267  Uiso   1.00
C80    C     0.31166   0.86839   0.66428   0.01267  Uiso   1.00
C81    C     0.53439   0.32779   0.15980   0.01267  Uiso   1.00
C82    C     0.63742   0.88952   0.27860   0.01267  Uiso   1.00
C83    C     0.69206   0.80636   0.24894   0.01267  Uiso   1.00
C84    C     0.38865   0.77655   0.17196   0.01267  Uiso   1.00
C85    C     0.49045   0.35175   0.18832   0.01267  Uiso   1.00
C86    C     0.71670   0.83610   0.21044   0.01267  Uiso   1.00
C87    C     0.50903   0.24923   0.11536   0.01267  Uiso   1.00
C88    C     0.62939   0.45469   0.21858   0.01267  Uiso   1.00
C89    C     0.60589   0.37999   0.17578   0.01267  Uiso   1.00
C90    C     0.38293   0.81073   0.13078   0.01267  Uiso   1.00
C91    C     0.32195   0.72615   0.51344   0.01267  Uiso   1.00
C92    C     0.61007   0.56047   0.29274   0.01267  Uiso   1.00
C93    C     0.66925   0.91925   0.83850   0.01267  Uiso   1.00
C94    C     0.74033   0.99033   0.98066   0.01267  Uiso   1.00
C95    C     0.55504   0.80504   0.61008   0.01267  Uiso   1.00
C96    C     0.70139   0.95139   0.90278   0.01267  Uiso   1.00
C97    C     0.81544   0.06544   0.13088   0.01267  Uiso   1.00
C98    C     0.63030   0.88030   0.76060   0.01267  Uiso   1.00
C99    C     0.51462   0.76462   0.52924   0.01267  Uiso   1.00
O1     O     0.49766   0.69638   0.49736   0.01267  Uiso   1.00
O2     O     0.36472   0.67794   0.37892   0.01267  Uiso   1.00
O3     O     0.65570   0.82507   0.50878   0.01267  Uiso   1.00
O4     O     0.26239   0.53297   0.36696   0.01267  Uiso   1.00
O5     O     0.35490   0.54602   0.25300   0.01267  Uiso   1.00
O6     O     0.68080   0.72950   0.46122   0.01267  Uiso   1.00
O7     O     0.39879   0.54215   0.35576   0.01267  Uiso   1.00
O8     O     0.24793   0.73597   0.31302   0.01267  Uiso   1.00
O9     O     0.18623   0.57672   0.31670   0.01267  Uiso   1.00
O10    O     0.13295   0.70165   0.30680   0.01267  Uiso   1.00
O11    O     0.49970   0.80098   0.49736   0.01267  Uiso   1.00
O12    O     0.51420   0.70098   0.37892   0.01267  Uiso   1.00
O13    O     0.35308   0.68371   0.50878   0.01267  Uiso   1.00
O14    O     0.60457   0.83399   0.36696   0.01267  Uiso   1.00
O15    O     0.39810   0.70698   0.25300   0.01267  Uiso   1.00
O16    O     0.28042   0.73172   0.46122   0.01267  Uiso   1.00
O17    O     0.45697   0.81361   0.35576   0.01267  Uiso   1.00
O18    O     0.56509   0.57705   0.31302   0.01267  Uiso   1.00
O19    O     0.63047   0.73998   0.31670   0.01267  Uiso   1.00
O20    O     0.67385   0.60515   0.30680   0.01267  Uiso   1.00
Zn6    Zn    0.62392   0.38325   0.56792   0.01267  Uiso   1.00
Zn7    Zn    0.73690   0.32142   0.63847   0.01267  Uiso   1.00
Zn8    Zn    0.44400   0.18467   0.56792   0.01267  Uiso   1.00
Zn9    Zn    0.40157   0.31705   0.63847   0.01267  Uiso   1.00
Zn10   Zn    0.59838   0.34838   0.69676   0.01267  Uiso   1.00
H46    H     0.41340   0.09100   0.37780   0.01267  Uiso   1.00
H47    H     0.20370   0.90840   0.00760   0.01267  Uiso   1.00
H48    H     0.93010   0.95590   0.05600   0.01267  Uiso   1.00
H49    H     0.34930   0.02810   0.25180   0.01267  Uiso   1.00
H50    H     0.99880   0.15350   0.05880   0.01267  Uiso   1.00
H51    H     0.83960   0.96500   0.87180   0.01267  Uiso   1.00
H52    H     0.26130   0.09880   0.35980   0.01267  Uiso   1.00
H53    H     0.21210   0.26880   0.44460   0.01267  Uiso   1.00
H54    H     0.70380   0.72000   0.74120   0.01267  Uiso   1.00
H55    H     0.16640   0.06070   0.24580   0.01267  Uiso   1.00
H56    H     0.63920   0.59230   0.67320   0.01267  Uiso   1.00
H57    H     0.91370   0.72350   0.76700   0.01267  Uiso   1.00
H58    H     0.73370   0.19330   0.74960   0.01267  Uiso   1.00
H59    H     0.11820   0.23130   0.33020   0.01267  Uiso   1.00
H60    H     0.80820   0.60610   0.69720   0.01267  Uiso   1.00
H61    H     0.95070   0.51510   0.74860   0.01267  Uiso   1.00
H62    H     0.72200   0.57500   0.85060   0.01267  Uiso   1.00
H63    H     0.76360   0.13790   0.82100   0.01267  Uiso   1.00
H64    H     0.05700   0.63000   0.81240   0.01267  Uiso   1.00
H65    H     0.94840   0.26130   0.77100   0.01267  Uiso   1.00
H66    H     0.98060   0.20680   0.84260   0.01267  Uiso   1.00
H67    H     0.77730   0.70180   0.92040   0.01267  Uiso   1.00
H68    H     0.46440   0.28680   0.37780   0.01267  Uiso   1.00
H69    H     0.30390   0.09920   0.00760   0.01267  Uiso   1.00
H70    H     0.62590   0.10010   0.05600   0.01267  Uiso   1.00
H71    H     0.40250   0.22370   0.25180   0.01267  Uiso   1.00
H72    H     0.56000   0.90530   0.05880   0.01267  Uiso   1.00
H73    H     0.53220   0.90680   0.87180   0.01267  Uiso   1.00
H74    H     0.59850   0.26100   0.35980   0.01267  Uiso   1.00
H75    H     0.73250   0.17580   0.44460   0.01267  Uiso   1.00
H76    H     0.53740   0.02120   0.74120   0.01267  Uiso   1.00
H77    H     0.57940   0.18510   0.24580   0.01267  Uiso   1.00
H78    H     0.53400   0.08090   0.67320   0.01267  Uiso   1.00
H79    H     0.35330   0.04350   0.76700   0.01267  Uiso   1.00
H80    H     0.51590   0.55630   0.74960   0.01267  Uiso   1.00
H81    H     0.71200   0.09890   0.33020   0.01267  Uiso   1.00
H82    H     0.38900   0.09110   0.69720   0.01267  Uiso   1.00
H83    H     0.29790   0.23350   0.74860   0.01267  Uiso   1.00
H84    H     0.62860   0.27560   0.85060   0.01267  Uiso   1.00
H85    H     0.55740   0.68310   0.82100   0.01267  Uiso   1.00
H86    H     0.25540   0.18240   0.81240   0.01267  Uiso   1.00
H87    H     0.32260   0.50970   0.77100   0.01267  Uiso   1.00
H88    H     0.36200   0.63580   0.84260   0.01267  Uiso   1.00
H89    H     0.64310   0.21860   0.92040   0.01267  Uiso   1.00
H90    H     0.15890   0.90890   0.81780   0.01267  Uiso   1.00
C100   C     0.63670   0.48806   0.71112   0.01267  Uiso   1.00
C101   C     0.41083   0.11806   0.35224   0.01267  Uiso   1.00
C102   C     0.21054   0.93461   0.98192   0.01267  Uiso   1.00
C103   C     0.92779   0.98389   0.03134   0.01267  Uiso   1.00
C104   C     0.02775   0.09476   0.14388   0.01267  Uiso   1.00
C105   C     0.24675   0.18870   0.41376   0.01267  Uiso   1.00
C106   C     0.87814   0.94813   0.95746   0.01267  Uiso   1.00
C107   C     0.17061   0.89696   0.90590   0.01267  Uiso   1.00
C108   C     0.37305   0.08071   0.27730   0.01267  Uiso   1.00
C109   C     0.96846   0.10127   0.03312   0.01267  Uiso   1.00
C110   C     0.83199   0.86931   0.91758   0.01267  Uiso   1.00
C111   C     0.87361   0.98919   0.92202   0.01267  Uiso   1.00
C112   C     0.11238   0.82139   0.86774   0.01267  Uiso   1.00
C113   C     0.80013   0.47373   0.67336   0.01267  Uiso   1.00
C114   C     0.67343   0.57094   0.75470   0.01267  Uiso   1.00
C115   C     0.13313   0.14372   0.27624   0.01267  Uiso   1.00
C116   C     0.23239   0.12609   0.35388   0.01267  Uiso   1.00
C117   C     0.91831   0.06548   0.95924   0.01267  Uiso   1.00
C118   C     0.97394   0.06007   0.06938   0.01267  Uiso   1.00
C119   C     0.90824   0.10597   0.92036   0.01267  Uiso   1.00
C120   C     0.06121   0.76051   0.83506   0.01267  Uiso   1.00
C121   C     0.99573   0.68803   0.79480   0.01267  Uiso   1.00
C122   C     0.79467   0.80397   0.88144   0.01267  Uiso   1.00
C123   C     0.20354   0.22664   0.40406   0.01267  Uiso   1.00
C124   C     0.70791   0.69091   0.76448   0.01267  Uiso   1.00
C125   C     0.17618   0.10368   0.28618   0.01267  Uiso   1.00
C126   C     0.66938   0.61468   0.72404   0.01267  Uiso   1.00
C127   C     0.92179   0.68089   0.76204   0.01267  Uiso   1.00
C128   C     0.86888   0.54926   0.71600   0.01267  Uiso   1.00
C129   C     0.07462   0.11872   0.20550   0.01267  Uiso   1.00
C130   C     0.75214   0.72514   0.83806   0.01267  Uiso   1.00
C131   C     0.78426   0.19616   0.76870   0.01267  Uiso   1.00
C132   C     0.83744   0.23164   0.75396   0.01267  Uiso   1.00
C133   C     0.14738   0.20411   0.33572   0.01267  Uiso   1.00
C134   C     0.87459   0.16799   0.84020   0.01267  Uiso   1.00
C135   C     0.85882   0.61092   0.72140   0.01267  Uiso   1.00
C136   C     0.94312   0.55742   0.75106   0.01267  Uiso   1.00
C137   C     0.71669   0.60459   0.82804   0.01267  Uiso   1.00
C138   C     0.80213   0.16343   0.81168   0.01267  Uiso   1.00
C139   C     0.00626   0.62566   0.78956   0.01267  Uiso   1.00
C140   C     0.89367   0.13387   0.88464   0.01267  Uiso   1.00
C141   C     0.91081   0.23611   0.78142   0.01267  Uiso   1.00
C142   C     0.93011   0.20421   0.82422   0.01267  Uiso   1.00
C143   C     0.75215   0.67995   0.86922   0.01267  Uiso   1.00
C144   C     0.30851   0.21271   0.48656   0.01267  Uiso   1.00
C145   C     0.81733   0.26773   0.70726   0.01267  Uiso   1.00
C146   C     0.57442   0.22306   0.71112   0.01267  Uiso   1.00
C147   C     0.44141   0.23418   0.35224   0.01267  Uiso   1.00
C148   C     0.27138   0.04731   0.98192   0.01267  Uiso   1.00
C149   C     0.60355   0.04745   0.03134   0.01267  Uiso   1.00
C150   C     0.61613   0.04912   0.14388   0.01267  Uiso   1.00
C151   C     0.66701   0.22506   0.41376   0.01267  Uiso   1.00
C152   C     0.57932   0.00933   0.95746   0.01267  Uiso   1.00
C153   C     0.23529   0.00894   0.90590   0.01267  Uiso   1.00
C154   C     0.40425   0.19659   0.27730   0.01267  Uiso   1.00
C155   C     0.56466   0.93185   0.03312   0.01267  Uiso   1.00
C156   C     0.58559   0.04827   0.91758   0.01267  Uiso   1.00
C157   C     0.54841   0.93283   0.92202   0.01267  Uiso   1.00
C158   C     0.25536   0.04635   0.86774   0.01267  Uiso   1.00
C159   C     0.37323   0.19963   0.67336   0.01267  Uiso   1.00
C160   C     0.58127   0.18376   0.75470   0.01267  Uiso   1.00
C161   C     0.64311   0.13252   0.27624   0.01267  Uiso   1.00
C162   C     0.62149   0.22779   0.35388   0.01267  Uiso   1.00
C163   C     0.54093   0.89376   0.95924   0.01267  Uiso   1.00
C164   C     0.59544   0.00931   0.06938   0.01267  Uiso   1.00
C165   C     0.51212   0.81439   0.92036   0.01267  Uiso   1.00
C166   C     0.27385   0.07455   0.83506   0.01267  Uiso   1.00
C167   C     0.29907   0.10677   0.79480   0.01267  Uiso   1.00
C168   C     0.58677   0.07747   0.88144   0.01267  Uiso   1.00
C169   C     0.70052   0.17742   0.40406   0.01267  Uiso   1.00
C170   C     0.55657   0.07357   0.76448   0.01267  Uiso   1.00
C171   C     0.61000   0.18250   0.28618   0.01267  Uiso   1.00
C172   C     0.55466   0.10936   0.72404   0.01267  Uiso   1.00
C173   C     0.34025   0.08115   0.76204   0.01267  Uiso   1.00
C174   C     0.34712   0.16674   0.71600   0.01267  Uiso   1.00
C175   C     0.63088   0.08678   0.20550   0.01267  Uiso   1.00
C176   C     0.58592   0.11292   0.83806   0.01267  Uiso   1.00
C177   C     0.48444   0.57254   0.76870   0.01267  Uiso   1.00
C178   C     0.41652   0.52232   0.75396   0.01267  Uiso   1.00
C179   C     0.68834   0.13161   0.33572   0.01267  Uiso   1.00
C180   C     0.46561   0.67221   0.84020   0.01267  Uiso   1.00
C181   C     0.36258   0.11048   0.72140   0.01267  Uiso   1.00
C182   C     0.30794   0.19364   0.75106   0.01267  Uiso   1.00
C183   C     0.61135   0.22345   0.82804   0.01267  Uiso   1.00
C184   C     0.50955   0.64825   0.81168   0.01267  Uiso   1.00
C185   C     0.28330   0.16390   0.78956   0.01267  Uiso   1.00
C186   C     0.49097   0.75077   0.88464   0.01267  Uiso   1.00
C187   C     0.37061   0.54531   0.78142   0.01267  Uiso   1.00
C188   C     0.39411   0.62001   0.82422   0.01267  Uiso   1.00
C189   C     0.61707   0.18927   0.86922   0.01267  Uiso   1.00
C190   C     0.67805   0.27385   0.48656   0.01267  Uiso   1.00
C191   C     0.38993   0.43953   0.70726   0.01267  Uiso   1.00
C192   C     0.33075   0.08075   0.16150   0.01267  Uiso   1.00
C193   C     0.25967   0.00967   0.01934   0.01267  Uiso   1.00
C194   C     0.44496   0.19496   0.38992   0.01267  Uiso   1.00
C195   C     0.29861   0.04861   0.09722   0.01267  Uiso   1.00
C196   C     0.18456   0.93456   0.86912   0.01267  Uiso   1.00
C197   C     0.36970   0.11970   0.23940   0.01267  Uiso   1.00
C198   C     0.48538   0.23538   0.47076   0.01267  Uiso   1.00
O21    O     0.50234   0.30362   0.50264   0.01267  Uiso   1.00
O22    O     0.63528   0.32206   0.62108   0.01267  Uiso   1.00
O23    O     0.34430   0.17493   0.49122   0.01267  Uiso   1.00
O24    O     0.73761   0.46703   0.63304   0.01267  Uiso   1.00
O25    O     0.64510   0.45398   0.74700   0.01267  Uiso   1.00
O26    O     0.31920   0.27050   0.53878   0.01267  Uiso   1.00
O27    O     0.60121   0.45785   0.64424   0.01267  Uiso   1.00
O28    O     0.75207   0.26403   0.68698   0.01267  Uiso   1.00
O29    O     0.81377   0.42328   0.68330   0.01267  Uiso   1.00
O30    O     0.86705   0.29835   0.69320   0.01267  Uiso   1.00
O31    O     0.50030   0.19902   0.50264   0.01267  Uiso   1.00
O32    O     0.48580   0.29902   0.62108   0.01267  Uiso   1.00
O33    O     0.64692   0.31629   0.49122   0.01267  Uiso   1.00
O34    O     0.39543   0.16601   0.63304   0.01267  Uiso   1.00
O35    O     0.60190   0.29302   0.74700   0.01267  Uiso   1.00
O36    O     0.71958   0.26828   0.53878   0.01267  Uiso   1.00
O37    O     0.54303   0.18639   0.64424   0.01267  Uiso   1.00
O38    O     0.43491   0.42295   0.68698   0.01267  Uiso   1.00
O39    O     0.36953   0.26002   0.68330   0.01267  Uiso   1.00
O40    O     0.32615   0.39485   0.69320   0.01267  Uiso   1.00
