data_ZARMAI_charged
_audit_creation_date              2014-07-02
_audit_creation_method            'Materials Studio'
_symmetry_space_group_name_H-M    'P1'
_symmetry_Int_Tables_number       1
_symmetry_cell_setting            triclinic
loop_
_symmetry_equiv_pos_as_xyz
  x,y,z
_cell_length_a                    18.8292
_cell_length_b                    18.8292
_cell_length_c                    18.8292
_cell_angle_alpha                 68.7605
_cell_angle_beta                  74.0102
_cell_angle_gamma                 111.2390
loop_
_atom_site_label
_atom_site_type_symbol
_atom_site_fract_x
_atom_site_fract_y
_atom_site_fract_z
_atom_site_U_iso_or_equiv
_atom_site_adp_type
_atom_site_occupancy
Zn1    Zn    0.31125   0.85338   0.20431   0.01267  Uiso   1.00
Zn2    Zn    0.94231   0.14662   0.54213   0.01267  Uiso   1.00
Zn3    Zn    0.45787   0.51556   0.68875   0.01267  Uiso   1.00
Zn4    Zn    0.79569   0.48444   0.05769   0.01267  Uiso   1.00
Zn5    Zn    0.68875   0.14662   0.79569   0.01267  Uiso   1.00
Zn6    Zn    0.05769   0.85338   0.45787   0.01267  Uiso   1.00
Zn7    Zn    0.54213   0.48444   0.31125   0.01267  Uiso   1.00
Zn8    Zn    0.20431   0.51556   0.94231   0.01267  Uiso   1.00
Zn9    Zn    0.37965   0.65095   0.72870   0.01267  Uiso   1.00
Zn10   Zn    0.62035   0.34905   0.27130   0.01267  Uiso   1.00
Zn11   Zn    0.72870   0.10835   0.62035   0.01267  Uiso   1.00
Zn12   Zn    0.27130   0.89165   0.37965   0.01267  Uiso   1.00
H1     H     0.49300   0.84710   0.78710   0.01267  Uiso   1.00
H2     H     0.46720   0.93020   0.95480   0.01267  Uiso   1.00
H3     H     0.33640   0.34100   0.89180   0.01267  Uiso   1.00
H4     H     0.28090   0.69360   0.02230   0.01267  Uiso   1.00
H5     H     0.36580   0.15290   0.35410   0.01267  Uiso   1.00
H6     H     0.11500   0.06980   0.46300   0.01267  Uiso   1.00
H7     H     0.76720   0.65900   0.00460   0.01267  Uiso   1.00
H8     H     0.28410   0.30640   0.41270   0.01267  Uiso   1.00
H9     H     0.64590   0.28010   0.50700   0.01267  Uiso   1.00
H10    H     0.53700   0.42200   0.53280   0.01267  Uiso   1.00
H11    H     0.99540   0.22820   0.66360   0.01267  Uiso   1.00
H12    H     0.58730   0.30320   0.71910   0.01267  Uiso   1.00
H13    H     0.21290   0.71990   0.63420   0.01267  Uiso   1.00
H14    H     0.04520   0.57800   0.88500   0.01267  Uiso   1.00
H15    H     0.10820   0.77180   0.23280   0.01267  Uiso   1.00
H16    H     0.97770   0.69680   0.71590   0.01267  Uiso   1.00
H17    H     0.50700   0.15290   0.21290   0.01267  Uiso   1.00
H18    H     0.53280   0.06980   0.04520   0.01267  Uiso   1.00
H19    H     0.66360   0.65900   0.10820   0.01267  Uiso   1.00
H20    H     0.71910   0.30640   0.97770   0.01267  Uiso   1.00
H21    H     0.63420   0.84710   0.64590   0.01267  Uiso   1.00
H22    H     0.88500   0.93020   0.53700   0.01267  Uiso   1.00
H23    H     0.23280   0.34100   0.99540   0.01267  Uiso   1.00
H24    H     0.71590   0.69360   0.58730   0.01267  Uiso   1.00
H25    H     0.35410   0.71990   0.49300   0.01267  Uiso   1.00
H26    H     0.46300   0.57800   0.46720   0.01267  Uiso   1.00
H27    H     0.00460   0.77180   0.33640   0.01267  Uiso   1.00
H28    H     0.41270   0.69680   0.28090   0.01267  Uiso   1.00
H29    H     0.78710   0.28010   0.36580   0.01267  Uiso   1.00
H30    H     0.95480   0.42200   0.11500   0.01267  Uiso   1.00
H31    H     0.89180   0.22820   0.76720   0.01267  Uiso   1.00
H32    H     0.02230   0.30320   0.28410   0.01267  Uiso   1.00
C1     C     0.46270   0.83680   0.84150   0.01267  Uiso   1.00
C2     C     0.38320   0.75820   0.90200   0.01267  Uiso   1.00
C3     C     0.36650   0.80920   0.00330   0.01267  Uiso   1.00
C4     C     0.49490   0.89830   0.86400   0.01267  Uiso   1.00
C5     C     0.44600   0.88570   0.94250   0.01267  Uiso   1.00
C6     C     0.32570   0.38720   0.88190   0.01267  Uiso   1.00
C7     C     0.33440   0.74530   0.98310   0.01267  Uiso   1.00
C8     C     0.34780   0.68780   0.88100   0.01267  Uiso   1.00
C9     C     0.31650   0.79420   0.08650   0.01267  Uiso   1.00
C10    C     0.57700   0.98250   0.80370   0.01267  Uiso   1.00
C11    C     0.32170   0.16320   0.37410   0.01267  Uiso   1.00
C12    C     0.33980   0.24180   0.37500   0.01267  Uiso   1.00
C13    C     0.18750   0.19080   0.44270   0.01267  Uiso   1.00
C14    C     0.23770   0.10170   0.40340   0.01267  Uiso   1.00
C15    C     0.17180   0.11430   0.43970   0.01267  Uiso   1.00
C16    C     0.73090   0.61280   0.06150   0.01267  Uiso   1.00
C17    C     0.27160   0.25470   0.41090   0.01267  Uiso   1.00
C18    C     0.43120   0.31220   0.34000   0.01267  Uiso   1.00
C19    C     0.11930   0.20580   0.47770   0.01267  Uiso   1.00
C20    C     0.21380   0.01750   0.40550   0.01267  Uiso   1.00
C21    C     0.62590   0.30420   0.53730   0.01267  Uiso   1.00
C22    C     0.62500   0.28520   0.61680   0.01267  Uiso   1.00
C23    C     0.55730   0.36980   0.63350   0.01267  Uiso   1.00
C24    C     0.59660   0.35890   0.50510   0.01267  Uiso   1.00
C25    C     0.56030   0.38850   0.55400   0.01267  Uiso   1.00
C26    C     0.93850   0.20760   0.67430   0.01267  Uiso   1.00
C27    C     0.58910   0.31750   0.66560   0.01267  Uiso   1.00
C28    C     0.66000   0.22880   0.65220   0.01267  Uiso   1.00
C29    C     0.52230   0.40300   0.68350   0.01267  Uiso   1.00
C30    C     0.59450   0.38070   0.42300   0.01267  Uiso   1.00
C31    C     0.15850   0.69580   0.67830   0.01267  Uiso   1.00
C32    C     0.09800   0.71480   0.66020   0.01267  Uiso   1.00
C33    C     0.99670   0.63020   0.81250   0.01267  Uiso   1.00
C34    C     0.13600   0.64110   0.76230   0.01267  Uiso   1.00
C35    C     0.05750   0.61150   0.82820   0.01267  Uiso   1.00
C36    C     0.11810   0.79240   0.26910   0.01267  Uiso   1.00
C37    C     0.01690   0.68250   0.72840   0.01267  Uiso   1.00
C38    C     0.11900   0.77120   0.56880   0.01267  Uiso   1.00
C39    C     0.91350   0.59700   0.88070   0.01267  Uiso   1.00
C40    C     0.19630   0.61930   0.78620   0.01267  Uiso   1.00
C41    C     0.53730   0.16320   0.15850   0.01267  Uiso   1.00
C42    C     0.61680   0.24180   0.09800   0.01267  Uiso   1.00
C43    C     0.63350   0.19080   0.99670   0.01267  Uiso   1.00
C44    C     0.50510   0.10170   0.13600   0.01267  Uiso   1.00
C45    C     0.55400   0.11430   0.05750   0.01267  Uiso   1.00
C46    C     0.67430   0.61280   0.11810   0.01267  Uiso   1.00
C47    C     0.66560   0.25470   0.01690   0.01267  Uiso   1.00
C48    C     0.65220   0.31220   0.11900   0.01267  Uiso   1.00
C49    C     0.68350   0.20580   0.91350   0.01267  Uiso   1.00
C50    C     0.42300   0.01750   0.19630   0.01267  Uiso   1.00
C51    C     0.67830   0.83680   0.62590   0.01267  Uiso   1.00
C52    C     0.66020   0.75820   0.62500   0.01267  Uiso   1.00
C53    C     0.81250   0.80920   0.55730   0.01267  Uiso   1.00
C54    C     0.76230   0.89830   0.59660   0.01267  Uiso   1.00
C55    C     0.82820   0.88570   0.56030   0.01267  Uiso   1.00
C56    C     0.26910   0.38720   0.93850   0.01267  Uiso   1.00
C57    C     0.72840   0.74530   0.58910   0.01267  Uiso   1.00
C58    C     0.56880   0.68780   0.66000   0.01267  Uiso   1.00
C59    C     0.88070   0.79420   0.52230   0.01267  Uiso   1.00
C60    C     0.78620   0.98250   0.59450   0.01267  Uiso   1.00
C61    C     0.37410   0.69580   0.46270   0.01267  Uiso   1.00
C62    C     0.37500   0.71480   0.38320   0.01267  Uiso   1.00
C63    C     0.44270   0.63020   0.36650   0.01267  Uiso   1.00
C64    C     0.40340   0.64110   0.49490   0.01267  Uiso   1.00
C65    C     0.43970   0.61150   0.44600   0.01267  Uiso   1.00
C66    C     0.06150   0.79240   0.32570   0.01267  Uiso   1.00
C67    C     0.41090   0.68250   0.33440   0.01267  Uiso   1.00
C68    C     0.34000   0.77120   0.34780   0.01267  Uiso   1.00
C69    C     0.47770   0.59700   0.31650   0.01267  Uiso   1.00
C70    C     0.40550   0.61930   0.57700   0.01267  Uiso   1.00
C71    C     0.84150   0.30420   0.32170   0.01267  Uiso   1.00
C72    C     0.90200   0.28520   0.33980   0.01267  Uiso   1.00
C73    C     0.00330   0.36980   0.18750   0.01267  Uiso   1.00
C74    C     0.86400   0.35890   0.23770   0.01267  Uiso   1.00
C75    C     0.94250   0.38850   0.17180   0.01267  Uiso   1.00
C76    C     0.88190   0.20760   0.73090   0.01267  Uiso   1.00
C77    C     0.98310   0.31750   0.27160   0.01267  Uiso   1.00
C78    C     0.88100   0.22880   0.43120   0.01267  Uiso   1.00
C79    C     0.08650   0.40300   0.11930   0.01267  Uiso   1.00
C80    C     0.80370   0.38070   0.21380   0.01267  Uiso   1.00
N1     N     0.36630   0.46220   0.80790   0.01267  Uiso   1.00
N2     N     0.72990   0.53780   0.09590   0.01267  Uiso   1.00
N3     N     0.90410   0.17420   0.63370   0.01267  Uiso   1.00
N4     N     0.19210   0.82580   0.27010   0.01267  Uiso   1.00
N5     N     0.63370   0.53780   0.19210   0.01267  Uiso   1.00
N6     N     0.27010   0.46220   0.90410   0.01267  Uiso   1.00
N7     N     0.09590   0.82580   0.36630   0.01267  Uiso   1.00
N8     N     0.80790   0.17420   0.72990   0.01267  Uiso   1.00
N9     N     0.33380   0.51400   0.81980   0.01267  Uiso   1.00
N10    N     0.66620   0.48600   0.18020   0.01267  Uiso   1.00
N11    N     0.81980   0.15360   0.66620   0.01267  Uiso   1.00
N12    N     0.18020   0.84640   0.33380   0.01267  Uiso   1.00
O1     O     0.38520   0.69780   0.81100   0.01267  Uiso   1.00
O2     O     0.34770   0.85820   0.09850   0.01267  Uiso   1.00
O3     O     0.61470   0.00590   0.72720   0.01267  Uiso   1.00
O4     O     0.61050   0.02420   0.83530   0.01267  Uiso   1.00
O5     O     0.27530   0.61800   0.94230   0.01267  Uiso   1.00
O6     O     0.25050   0.72660   0.14290   0.01267  Uiso   1.00
O7     O     0.49120   0.30220   0.31260   0.01267  Uiso   1.00
O8     O     0.04330   0.14180   0.51050   0.01267  Uiso   1.00
O9     O     0.26690   0.99410   0.39120   0.01267  Uiso   1.00
O10    O     0.14050   0.97580   0.41370   0.01267  Uiso   1.00
O11    O     0.43970   0.38200   0.34270   0.01267  Uiso   1.00
O12    O     0.13050   0.27340   0.47610   0.01267  Uiso   1.00
O13    O     0.68740   0.19620   0.61480   0.01267  Uiso   1.00
O14    O     0.48950   0.44620   0.65230   0.01267  Uiso   1.00
O15    O     0.60880   0.34190   0.38530   0.01267  Uiso   1.00
O16    O     0.58630   0.44580   0.38950   0.01267  Uiso   1.00
O17    O     0.65730   0.21760   0.72470   0.01267  Uiso   1.00
O18    O     0.52390   0.39340   0.74950   0.01267  Uiso   1.00
O19    O     0.18900   0.80380   0.50880   0.01267  Uiso   1.00
O20    O     0.90150   0.55380   0.95670   0.01267  Uiso   1.00
O21    O     0.27280   0.65810   0.73310   0.01267  Uiso   1.00
O22    O     0.16470   0.55420   0.85950   0.01267  Uiso   1.00
O23    O     0.05770   0.78240   0.56030   0.01267  Uiso   1.00
O24    O     0.85710   0.60660   0.86950   0.01267  Uiso   1.00
O25    O     0.61480   0.30220   0.18900   0.01267  Uiso   1.00
O26    O     0.65230   0.14180   0.90150   0.01267  Uiso   1.00
O27    O     0.38530   0.99410   0.27280   0.01267  Uiso   1.00
O28    O     0.38950   0.97580   0.16470   0.01267  Uiso   1.00
O29    O     0.72470   0.38200   0.05770   0.01267  Uiso   1.00
O30    O     0.74950   0.27340   0.85710   0.01267  Uiso   1.00
O31    O     0.50880   0.69780   0.68740   0.01267  Uiso   1.00
O32    O     0.95670   0.85820   0.48950   0.01267  Uiso   1.00
O33    O     0.73310   0.00590   0.60880   0.01267  Uiso   1.00
O34    O     0.85950   0.02420   0.58630   0.01267  Uiso   1.00
O35    O     0.56030   0.61800   0.65730   0.01267  Uiso   1.00
O36    O     0.86950   0.72660   0.52390   0.01267  Uiso   1.00
O37    O     0.31260   0.80380   0.38520   0.01267  Uiso   1.00
O38    O     0.51050   0.55380   0.34770   0.01267  Uiso   1.00
O39    O     0.39120   0.65810   0.61470   0.01267  Uiso   1.00
O40    O     0.41370   0.55420   0.61050   0.01267  Uiso   1.00
O41    O     0.34270   0.78240   0.27530   0.01267  Uiso   1.00
O42    O     0.47610   0.60660   0.25050   0.01267  Uiso   1.00
O43    O     0.81100   0.19620   0.49120   0.01267  Uiso   1.00
O44    O     0.09850   0.44620   0.04330   0.01267  Uiso   1.00
O45    O     0.72720   0.34190   0.26690   0.01267  Uiso   1.00
O46    O     0.83530   0.44580   0.14050   0.01267  Uiso   1.00
O47    O     0.94230   0.21760   0.43970   0.01267  Uiso   1.00
O48    O     0.14290   0.39340   0.13050   0.01267  Uiso   1.00
H33    H     0.52640   0.52500   0.87240   0.01267  Uiso   1.00
H34    H     0.49070   0.42540   0.93890   0.01267  Uiso   1.00
H35    H     0.52960   0.46000   0.83980   0.01267  Uiso   1.00
H36    H     0.67770   0.62660   0.77710   0.01267  Uiso   1.00
H37    H     0.67760   0.56060   0.74500   0.01267  Uiso   1.00
H38    H     0.74450   0.59560   0.77630   0.01267  Uiso   1.00
H39    H     0.60260   0.47500   0.99860   0.01267  Uiso   1.00
H40    H     0.63570   0.57460   0.93470   0.01267  Uiso   1.00
H41    H     0.70020   0.54000   0.93040   0.01267  Uiso   1.00
H42    H     0.59630   0.37340   0.94890   0.01267  Uiso   1.00
H43    H     0.69440   0.43940   0.88300   0.01267  Uiso   1.00
H44    H     0.62810   0.40440   0.85110   0.01267  Uiso   1.00
C81    C     0.53420   0.47530   0.88250   0.01267  Uiso   1.00
C82    C     0.68660   0.57780   0.78540   0.01267  Uiso   1.00
C83    C     0.64220   0.52470   0.94110   0.01267  Uiso   1.00
C84    C     0.63680   0.42220   0.89120   0.01267  Uiso   1.00
N13    N     0.62360   0.50000   0.87640   0.01267  Uiso   1.00
H45    H     0.00140   0.39880   0.47360   0.01267  Uiso   1.00
H46    H     0.06530   0.42960   0.50930   0.01267  Uiso   1.00
H47    H     0.06960   0.36940   0.47040   0.01267  Uiso   1.00
H48    H     0.05110   0.45480   0.32230   0.01267  Uiso   1.00
H49    H     0.11700   0.42260   0.32240   0.01267  Uiso   1.00
H50    H     0.14890   0.52080   0.25550   0.01267  Uiso   1.00
H51    H     0.12760   0.60120   0.39740   0.01267  Uiso   1.00
H52    H     0.06110   0.57040   0.36430   0.01267  Uiso   1.00
H53    H     0.16020   0.63060   0.29980   0.01267  Uiso   1.00
H54    H     0.22290   0.54520   0.40370   0.01267  Uiso   1.00
H55    H     0.25500   0.57740   0.30560   0.01267  Uiso   1.00
H56    H     0.22370   0.47920   0.37190   0.01267  Uiso   1.00
C85    C     0.05890   0.41670   0.46580   0.01267  Uiso   1.00
C86    C     0.10880   0.47200   0.31340   0.01267  Uiso   1.00
C87    C     0.11750   0.58330   0.35780   0.01267  Uiso   1.00
C88    C     0.21460   0.52800   0.36320   0.01267  Uiso   1.00
N14    N     0.12360   0.50000   0.37640   0.01267  Uiso   1.00
H57    H     0.47360   0.47500   0.12760   0.01267  Uiso   1.00
H58    H     0.50930   0.57460   0.06110   0.01267  Uiso   1.00
H59    H     0.47040   0.54000   0.16020   0.01267  Uiso   1.00
H60    H     0.32230   0.37340   0.22290   0.01267  Uiso   1.00
H61    H     0.32240   0.43940   0.25500   0.01267  Uiso   1.00
H62    H     0.25550   0.40440   0.22370   0.01267  Uiso   1.00
H63    H     0.39740   0.52500   0.00140   0.01267  Uiso   1.00
H64    H     0.36430   0.42540   0.06530   0.01267  Uiso   1.00
H65    H     0.29980   0.46000   0.06960   0.01267  Uiso   1.00
H66    H     0.40370   0.62660   0.05110   0.01267  Uiso   1.00
H67    H     0.30560   0.56060   0.11700   0.01267  Uiso   1.00
H68    H     0.37190   0.59560   0.14890   0.01267  Uiso   1.00
C89    C     0.46580   0.52470   0.11750   0.01267  Uiso   1.00
C90    C     0.31340   0.42220   0.21460   0.01267  Uiso   1.00
C91    C     0.35780   0.47530   0.05890   0.01267  Uiso   1.00
C92    C     0.36320   0.57780   0.10880   0.01267  Uiso   1.00
N15    N     0.37640   0.50000   0.12360   0.01267  Uiso   1.00
H69    H     0.99860   0.60120   0.52640   0.01267  Uiso   1.00
H70    H     0.93470   0.57040   0.49070   0.01267  Uiso   1.00
H71    H     0.93040   0.63060   0.52960   0.01267  Uiso   1.00
H72    H     0.94890   0.54520   0.67770   0.01267  Uiso   1.00
H73    H     0.88300   0.57740   0.67760   0.01267  Uiso   1.00
H74    H     0.85110   0.47920   0.74450   0.01267  Uiso   1.00
H75    H     0.87240   0.39880   0.60260   0.01267  Uiso   1.00
H76    H     0.93890   0.42960   0.63570   0.01267  Uiso   1.00
H77    H     0.83980   0.36940   0.70020   0.01267  Uiso   1.00
H78    H     0.77710   0.45480   0.59630   0.01267  Uiso   1.00
H79    H     0.74500   0.42260   0.69440   0.01267  Uiso   1.00
H80    H     0.77630   0.52080   0.62810   0.01267  Uiso   1.00
C93    C     0.94110   0.58330   0.53420   0.01267  Uiso   1.00
C94    C     0.89120   0.52800   0.68660   0.01267  Uiso   1.00
C95    C     0.88250   0.41670   0.64220   0.01267  Uiso   1.00
C96    C     0.78540   0.47200   0.63680   0.01267  Uiso   1.00
N16    N     0.87640   0.50000   0.62360   0.01267  Uiso   1.00
