data_ZARPUF_clean
_audit_creation_date              2014-07-02
_audit_creation_method            'Materials Studio'
_symmetry_space_group_name_H-M    'P1'
_symmetry_Int_Tables_number       1
_symmetry_cell_setting            triclinic
loop_
_symmetry_equiv_pos_as_xyz
  x,y,z
_cell_length_a                    11.8830
_cell_length_b                    11.8830
_cell_length_c                    18.0660
_cell_angle_alpha                 90.0000
_cell_angle_beta                  90.0000
_cell_angle_gamma                 120.0000
loop_
_atom_site_label
_atom_site_type_symbol
_atom_site_fract_x
_atom_site_fract_y
_atom_site_fract_z
_atom_site_U_iso_or_equiv
_atom_site_adp_type
_atom_site_occupancy
U1     U     0.85652   0.44224   0.95772   0.01267  Uiso   1.00
U2     U     0.58572   0.14348   0.62439   0.01267  Uiso   1.00
U3     U     0.55776   0.41428   0.29106   0.01267  Uiso   1.00
U4     U     0.41428   0.55776   0.04228   0.01267  Uiso   1.00
U5     U     0.44224   0.85652   0.37561   0.01267  Uiso   1.00
U6     U     0.14348   0.58572   0.70894   0.01267  Uiso   1.00
P1     P     0.51290   0.33690   0.96886   0.01267  Uiso   1.00
P2     P     0.66120   0.48540   0.09944   0.01267  Uiso   1.00
P3     P     0.82400   0.48710   0.63553   0.01267  Uiso   1.00
P4     P     0.82420   0.33880   0.76611   0.01267  Uiso   1.00
P5     P     0.66310   0.17600   0.30219   0.01267  Uiso   1.00
P6     P     0.51460   0.17580   0.43277   0.01267  Uiso   1.00
P7     P     0.17600   0.66310   0.03114   0.01267  Uiso   1.00
P8     P     0.17580   0.51460   0.90056   0.01267  Uiso   1.00
P9     P     0.33690   0.51290   0.36447   0.01267  Uiso   1.00
P10    P     0.48540   0.66120   0.23389   0.01267  Uiso   1.00
P11    P     0.48710   0.82400   0.69781   0.01267  Uiso   1.00
P12    P     0.33880   0.82420   0.56723   0.01267  Uiso   1.00
H1     H     0.46270   0.29590   0.09460   0.01267  Uiso   1.00
H2     H     0.57730   0.26770   0.07340   0.01267  Uiso   1.00
H3     H     0.83320   0.53730   0.76127   0.01267  Uiso   1.00
H4     H     0.69040   0.42270   0.74007   0.01267  Uiso   1.00
H5     H     0.70410   0.16680   0.42793   0.01267  Uiso   1.00
H6     H     0.73230   0.30960   0.40673   0.01267  Uiso   1.00
H7     H     0.16680   0.70410   0.90540   0.01267  Uiso   1.00
H8     H     0.30960   0.73230   0.92660   0.01267  Uiso   1.00
H9     H     0.29590   0.46270   0.23873   0.01267  Uiso   1.00
H10    H     0.26770   0.57730   0.25993   0.01267  Uiso   1.00
H11    H     0.53730   0.83320   0.57207   0.01267  Uiso   1.00
H12    H     0.42270   0.69040   0.59327   0.01267  Uiso   1.00
C1     C     0.54440   0.32870   0.06620   0.01267  Uiso   1.00
C2     C     0.78430   0.45560   0.73287   0.01267  Uiso   1.00
C3     C     0.67130   0.21570   0.39953   0.01267  Uiso   1.00
C4     C     0.21570   0.67130   0.93380   0.01267  Uiso   1.00
C5     C     0.32870   0.54440   0.26713   0.01267  Uiso   1.00
C6     C     0.45560   0.78430   0.60047   0.01267  Uiso   1.00
O1     O     0.78820   0.52290   0.05920   0.01267  Uiso   1.00
O2     O     0.68550   0.47910   0.18200   0.01267  Uiso   1.00
O3     O     0.61340   0.57900   0.08190   0.01267  Uiso   1.00
O4     O     0.46450   0.43340   0.96040   0.01267  Uiso   1.00
O5     O     0.64350   0.38740   0.93060   0.01267  Uiso   1.00
O6     O     0.41520   0.20380   0.94010   0.01267  Uiso   1.00
O7     O     0.73470   0.21180   0.72587   0.01267  Uiso   1.00
O8     O     0.79360   0.31450   0.84867   0.01267  Uiso   1.00
O9     O     0.96560   0.38660   0.74857   0.01267  Uiso   1.00
O10    O     0.96890   0.53550   0.62707   0.01267  Uiso   1.00
O11    O     0.74390   0.35650   0.59727   0.01267  Uiso   1.00
O12    O     0.78860   0.58480   0.60677   0.01267  Uiso   1.00
O13    O     0.47710   0.26530   0.39253   0.01267  Uiso   1.00
O14    O     0.52090   0.20640   0.51533   0.01267  Uiso   1.00
O15    O     0.42100   0.03440   0.41523   0.01267  Uiso   1.00
O16    O     0.56660   0.03110   0.29373   0.01267  Uiso   1.00
O17    O     0.61260   0.25610   0.26393   0.01267  Uiso   1.00
O18    O     0.79620   0.21140   0.27343   0.01267  Uiso   1.00
O19    O     0.26530   0.47710   0.94080   0.01267  Uiso   1.00
O20    O     0.20640   0.52090   0.81800   0.01267  Uiso   1.00
O21    O     0.03440   0.42100   0.91810   0.01267  Uiso   1.00
O22    O     0.03110   0.56660   0.03960   0.01267  Uiso   1.00
O23    O     0.25610   0.61260   0.06940   0.01267  Uiso   1.00
O24    O     0.21140   0.79620   0.05990   0.01267  Uiso   1.00
O25    O     0.52290   0.78820   0.27413   0.01267  Uiso   1.00
O26    O     0.47910   0.68550   0.15133   0.01267  Uiso   1.00
O27    O     0.57900   0.61340   0.25143   0.01267  Uiso   1.00
O28    O     0.43340   0.46450   0.37293   0.01267  Uiso   1.00
O29    O     0.38740   0.64350   0.40273   0.01267  Uiso   1.00
O30    O     0.20380   0.41520   0.39323   0.01267  Uiso   1.00
O31    O     0.21180   0.73470   0.60747   0.01267  Uiso   1.00
O32    O     0.31450   0.79360   0.48467   0.01267  Uiso   1.00
O33    O     0.38660   0.96560   0.58477   0.01267  Uiso   1.00
O34    O     0.53550   0.96890   0.70627   0.01267  Uiso   1.00
O35    O     0.35650   0.74390   0.73607   0.01267  Uiso   1.00
O36    O     0.58480   0.78860   0.72657   0.01267  Uiso   1.00
