data_ZARQAM_clean
_audit_creation_date              2014-07-02
_audit_creation_method            'Materials Studio'
_symmetry_space_group_name_H-M    'P1'
_symmetry_Int_Tables_number       1
_symmetry_cell_setting            triclinic
loop_
_symmetry_equiv_pos_as_xyz
  x,y,z
_cell_length_a                    9.0805
_cell_length_b                    23.6130
_cell_length_c                    12.8303
_cell_angle_alpha                 90.0000
_cell_angle_beta                  90.0000
_cell_angle_gamma                 90.0000
loop_
_atom_site_label
_atom_site_type_symbol
_atom_site_fract_x
_atom_site_fract_y
_atom_site_fract_z
_atom_site_U_iso_or_equiv
_atom_site_adp_type
_atom_site_occupancy
K1     K     0.11450   0.78795   0.93630   0.01267  Uiso   1.00
K2     K     0.88550   0.21205   0.93630   0.01267  Uiso   1.00
K3     K     0.61450   0.71205   0.06370   0.01267  Uiso   1.00
K4     K     0.38550   0.28795   0.06370   0.01267  Uiso   1.00
U1     U     0.14598   0.73306   0.65762   0.01267  Uiso   1.00
U2     U     0.63491   0.56842   0.92325   0.01267  Uiso   1.00
U3     U     0.69495   0.82827   0.85075   0.01267  Uiso   1.00
U4     U     0.85402   0.26694   0.65762   0.01267  Uiso   1.00
U5     U     0.36509   0.43158   0.92325   0.01267  Uiso   1.00
U6     U     0.30505   0.17173   0.85075   0.01267  Uiso   1.00
U7     U     0.64598   0.76694   0.34238   0.01267  Uiso   1.00
U8     U     0.13491   0.93158   0.07675   0.01267  Uiso   1.00
U9     U     0.19495   0.67173   0.14925   0.01267  Uiso   1.00
U10    U     0.35402   0.23306   0.34238   0.01267  Uiso   1.00
U11    U     0.86509   0.06842   0.07675   0.01267  Uiso   1.00
U12    U     0.80505   0.32827   0.14925   0.01267  Uiso   1.00
P1     P     0.32160   0.66227   0.87770   0.01267  Uiso   1.00
P2     P     0.22840   0.55325   0.96460   0.01267  Uiso   1.00
P3     P     0.83110   0.68551   0.81430   0.01267  Uiso   1.00
P4     P     0.74730   0.74154   0.61730   0.01267  Uiso   1.00
P5     P     0.67840   0.33773   0.87770   0.01267  Uiso   1.00
P6     P     0.77160   0.44675   0.96460   0.01267  Uiso   1.00
P7     P     0.16890   0.31449   0.81430   0.01267  Uiso   1.00
P8     P     0.25270   0.25846   0.61730   0.01267  Uiso   1.00
P9     P     0.82160   0.83773   0.12230   0.01267  Uiso   1.00
P10    P     0.72840   0.94675   0.03540   0.01267  Uiso   1.00
P11    P     0.33110   0.81449   0.18570   0.01267  Uiso   1.00
P12    P     0.24730   0.75846   0.38270   0.01267  Uiso   1.00
P13    P     0.17840   0.16227   0.12230   0.01267  Uiso   1.00
P14    P     0.27160   0.05325   0.03540   0.01267  Uiso   1.00
P15    P     0.66890   0.18551   0.18570   0.01267  Uiso   1.00
P16    P     0.75270   0.24154   0.38270   0.01267  Uiso   1.00
H1     H     0.10790   0.60940   0.84710   0.01267  Uiso   1.00
H2     H     0.24670   0.57930   0.79340   0.01267  Uiso   1.00
H3     H     0.78360   0.64550   0.65150   0.01267  Uiso   1.00
H4     H     0.63300   0.66660   0.70400   0.01267  Uiso   1.00
H5     H     0.89210   0.39060   0.84710   0.01267  Uiso   1.00
H6     H     0.75330   0.42070   0.79340   0.01267  Uiso   1.00
H7     H     0.21640   0.35450   0.65150   0.01267  Uiso   1.00
H8     H     0.36700   0.33340   0.70400   0.01267  Uiso   1.00
H9     H     0.60790   0.89060   0.15290   0.01267  Uiso   1.00
H10    H     0.74670   0.92070   0.20660   0.01267  Uiso   1.00
H11    H     0.28360   0.85450   0.34850   0.01267  Uiso   1.00
H12    H     0.13300   0.83340   0.29600   0.01267  Uiso   1.00
H13    H     0.39210   0.10940   0.15290   0.01267  Uiso   1.00
H14    H     0.25330   0.07930   0.20660   0.01267  Uiso   1.00
H15    H     0.71640   0.14550   0.34850   0.01267  Uiso   1.00
H16    H     0.86700   0.16660   0.29600   0.01267  Uiso   1.00
C1     C     0.21250   0.59890   0.85710   0.01267  Uiso   1.00
C2     C     0.73730   0.67670   0.69140   0.01267  Uiso   1.00
C3     C     0.78750   0.40110   0.85710   0.01267  Uiso   1.00
C4     C     0.26270   0.32330   0.69140   0.01267  Uiso   1.00
C5     C     0.71250   0.90110   0.14290   0.01267  Uiso   1.00
C6     C     0.23730   0.82330   0.30860   0.01267  Uiso   1.00
C7     C     0.28750   0.09890   0.14290   0.01267  Uiso   1.00
C8     C     0.76270   0.17670   0.30860   0.01267  Uiso   1.00
O1     O     0.81660   0.62950   0.87620   0.01267  Uiso   1.00
O2     O     0.30930   0.70150   0.78610   0.01267  Uiso   1.00
O3     O     0.66050   0.58970   0.05470   0.01267  Uiso   1.00
O4     O     0.99160   0.70050   0.79150   0.01267  Uiso   1.00
O5     O     0.15440   0.80150   0.71560   0.01267  Uiso   1.00
O6     O     0.67220   0.78670   0.68220   0.01267  Uiso   1.00
O7     O     0.66730   0.73240   0.51390   0.01267  Uiso   1.00
O8     O     0.75290   0.73270   0.87250   0.01267  Uiso   1.00
O9     O     0.17360   0.58140   0.06040   0.01267  Uiso   1.00
O10    O     0.87940   0.84530   0.82400   0.01267  Uiso   1.00
O11    O     0.14690   0.49670   0.94210   0.01267  Uiso   1.00
O12    O     0.91130   0.75420   0.59770   0.01267  Uiso   1.00
O13    O     0.38990   0.53260   0.97060   0.01267  Uiso   1.00
O14    O     0.48220   0.64390   0.89480   0.01267  Uiso   1.00
O15    O     0.25820   0.68920   0.97520   0.01267  Uiso   1.00
O16    O     0.18340   0.37050   0.87620   0.01267  Uiso   1.00
O17    O     0.69070   0.29850   0.78610   0.01267  Uiso   1.00
O18    O     0.33950   0.41030   0.05470   0.01267  Uiso   1.00
O19    O     0.00840   0.29950   0.79150   0.01267  Uiso   1.00
O20    O     0.84560   0.19850   0.71560   0.01267  Uiso   1.00
O21    O     0.32780   0.21330   0.68220   0.01267  Uiso   1.00
O22    O     0.33270   0.26760   0.51390   0.01267  Uiso   1.00
O23    O     0.24710   0.26730   0.87250   0.01267  Uiso   1.00
O24    O     0.82640   0.41860   0.06040   0.01267  Uiso   1.00
O25    O     0.12060   0.15470   0.82400   0.01267  Uiso   1.00
O26    O     0.85310   0.50330   0.94210   0.01267  Uiso   1.00
O27    O     0.08870   0.24580   0.59770   0.01267  Uiso   1.00
O28    O     0.61010   0.46740   0.97060   0.01267  Uiso   1.00
O29    O     0.51780   0.35610   0.89480   0.01267  Uiso   1.00
O30    O     0.74180   0.31080   0.97520   0.01267  Uiso   1.00
O31    O     0.31660   0.87050   0.12380   0.01267  Uiso   1.00
O32    O     0.80930   0.79850   0.21390   0.01267  Uiso   1.00
O33    O     0.16050   0.91030   0.94530   0.01267  Uiso   1.00
O34    O     0.49160   0.79950   0.20850   0.01267  Uiso   1.00
O35    O     0.65440   0.69850   0.28440   0.01267  Uiso   1.00
O36    O     0.17220   0.71330   0.31780   0.01267  Uiso   1.00
O37    O     0.16730   0.76760   0.48610   0.01267  Uiso   1.00
O38    O     0.25290   0.76730   0.12750   0.01267  Uiso   1.00
O39    O     0.67360   0.91860   0.93960   0.01267  Uiso   1.00
O40    O     0.37940   0.65470   0.17600   0.01267  Uiso   1.00
O41    O     0.64690   0.00330   0.05790   0.01267  Uiso   1.00
O42    O     0.41130   0.74580   0.40230   0.01267  Uiso   1.00
O43    O     0.88990   0.96740   0.02940   0.01267  Uiso   1.00
O44    O     0.98220   0.85610   0.10520   0.01267  Uiso   1.00
O45    O     0.75820   0.81080   0.02480   0.01267  Uiso   1.00
O46    O     0.68340   0.12950   0.12380   0.01267  Uiso   1.00
O47    O     0.19070   0.20150   0.21390   0.01267  Uiso   1.00
O48    O     0.83950   0.08970   0.94530   0.01267  Uiso   1.00
O49    O     0.50840   0.20050   0.20850   0.01267  Uiso   1.00
O50    O     0.34560   0.30150   0.28440   0.01267  Uiso   1.00
O51    O     0.82780   0.28670   0.31780   0.01267  Uiso   1.00
O52    O     0.83270   0.23240   0.48610   0.01267  Uiso   1.00
O53    O     0.74710   0.23270   0.12750   0.01267  Uiso   1.00
O54    O     0.32640   0.08140   0.93960   0.01267  Uiso   1.00
O55    O     0.62060   0.34530   0.17600   0.01267  Uiso   1.00
O56    O     0.35310   0.99670   0.05790   0.01267  Uiso   1.00
O57    O     0.58870   0.25420   0.40230   0.01267  Uiso   1.00
O58    O     0.11010   0.03260   0.02940   0.01267  Uiso   1.00
O59    O     0.01780   0.14390   0.10520   0.01267  Uiso   1.00
O60    O     0.24180   0.18920   0.02480   0.01267  Uiso   1.00
