data_ZARTAP03_clean
_audit_creation_date              2014-07-02
_audit_creation_method            'Materials Studio'
_symmetry_space_group_name_H-M    'P1'
_symmetry_Int_Tables_number       1
_symmetry_cell_setting            triclinic
loop_
_symmetry_equiv_pos_as_xyz
  x,y,z
_cell_length_a                    7.3495
_cell_length_b                    13.1996
_cell_length_c                    13.1996
_cell_angle_alpha                 63.3634
_cell_angle_beta                  79.3040
_cell_angle_gamma                 100.6960
loop_
_atom_site_label
_atom_site_type_symbol
_atom_site_fract_x
_atom_site_fract_y
_atom_site_fract_z
_atom_site_U_iso_or_equiv
_atom_site_adp_type
_atom_site_occupancy
Fe1    Fe    0.00000   0.00000   0.00000   0.01267  Uiso   1.00
Fe2    Fe    0.50000   0.00000  -0.00000   0.01267  Uiso   1.00
H1     H     0.90490   0.74420   0.00040   0.01267  Uiso   1.00
H2     H     0.29650   0.55090   0.11490   0.01267  Uiso   1.00
H3     H     0.81990   0.62750   0.88820   0.01267  Uiso   1.00
H4     H     0.90530   0.00040   0.25540   0.01267  Uiso   1.00
H5     H     0.41140   0.11490   0.33420   0.01267  Uiso   1.00
H6     H     0.70810   0.88820   0.48430   0.01267  Uiso   1.00
H7     H     0.16070   0.25540   0.74420   0.01267  Uiso   1.00
H8     H     0.74560   0.33420   0.55090   0.01267  Uiso   1.00
H9     H     0.19240   0.48430   0.62750   0.01267  Uiso   1.00
H10    H     0.09510   0.25580   0.99960   0.01267  Uiso   1.00
H11    H     0.70350   0.44910   0.88510   0.01267  Uiso   1.00
H12    H     0.18010   0.37250   0.11180   0.01267  Uiso   1.00
H13    H     0.09470   0.99960   0.74460   0.01267  Uiso   1.00
H14    H     0.58860   0.88510   0.66580   0.01267  Uiso   1.00
H15    H     0.29190   0.11180   0.51570   0.01267  Uiso   1.00
H16    H     0.83930   0.74460   0.25580   0.01267  Uiso   1.00
H17    H     0.25440   0.66580   0.44910   0.01267  Uiso   1.00
H18    H     0.80760   0.51570   0.37250   0.01267  Uiso   1.00
C1     C     0.62734   0.71867   0.99995   0.01267  Uiso   1.00
C2     C     0.56470   0.60586   0.99976   0.01267  Uiso   1.00
C3     C     0.38000   0.53040   0.06680   0.01267  Uiso   1.00
C4     C     0.68890   0.57630   0.93300   0.01267  Uiso   1.00
C5     C     0.62729   0.99995   0.28138   0.01267  Uiso   1.00
C6     C     0.56446   0.99976   0.39438   0.01267  Uiso   1.00
C7     C     0.44680   0.06680   0.40280   0.01267  Uiso   1.00
C8     C     0.62190   0.93300   0.49070   0.01267  Uiso   1.00
C9     C     0.90867   0.28138   0.71867   0.01267  Uiso   1.00
C10    C     0.95884   0.39438   0.60586   0.01267  Uiso   1.00
C11    C     0.84960   0.40280   0.53040   0.01267  Uiso   1.00
C12    C     0.11260   0.49070   0.57630   0.01267  Uiso   1.00
C13    C     0.37266   0.28133   0.00005   0.01267  Uiso   1.00
C14    C     0.43530   0.39414   0.00024   0.01267  Uiso   1.00
C15    C     0.62000   0.46960   0.93320   0.01267  Uiso   1.00
C16    C     0.31110   0.42370   0.06700   0.01267  Uiso   1.00
C17    C     0.37271   0.00005   0.71862   0.01267  Uiso   1.00
C18    C     0.43554   0.00024   0.60562   0.01267  Uiso   1.00
C19    C     0.55320   0.93320   0.59720   0.01267  Uiso   1.00
C20    C     0.37810   0.06700   0.50930   0.01267  Uiso   1.00
C21    C     0.09133   0.71862   0.28133   0.01267  Uiso   1.00
C22    C     0.04116   0.60562   0.39414   0.01267  Uiso   1.00
C23    C     0.15040   0.59720   0.46960   0.01267  Uiso   1.00
C24    C     0.88740   0.50930   0.42370   0.01267  Uiso   1.00
N1     N     0.50387   0.78194   0.00013   0.01267  Uiso   1.00
N2     N     0.60919   0.87621   0.99984   0.01267  Uiso   1.00
N3     N     0.78612   0.87017   0.00001   0.01267  Uiso   1.00
N4     N     0.80035   0.77052   0.00017   0.01267  Uiso   1.00
N5     N     0.50400   0.00013   0.21793   0.01267  Uiso   1.00
N6     N     0.60903   0.99984   0.12395   0.01267  Uiso   1.00
N7     N     0.78613   0.00001   0.12982   0.01267  Uiso   1.00
N8     N     0.80052   0.00017   0.22931   0.01267  Uiso   1.00
N9     N     0.72193   0.21793   0.78194   0.01267  Uiso   1.00
N10    N     0.73298   0.12395   0.87621   0.01267  Uiso   1.00
N11    N     0.91595   0.12982   0.87017   0.01267  Uiso   1.00
N12    N     0.02983   0.22931   0.77052   0.01267  Uiso   1.00
N13    N     0.49613   0.21806   0.99987   0.01267  Uiso   1.00
N14    N     0.39081   0.12379   0.00016   0.01267  Uiso   1.00
N15    N     0.21388   0.12983   0.99999   0.01267  Uiso   1.00
N16    N     0.19965   0.22948   0.99983   0.01267  Uiso   1.00
N17    N     0.49600   0.99987   0.78207   0.01267  Uiso   1.00
N18    N     0.39097   0.00016   0.87605   0.01267  Uiso   1.00
N19    N     0.21387   0.99999   0.87018   0.01267  Uiso   1.00
N20    N     0.19948   0.99983   0.77069   0.01267  Uiso   1.00
N21    N     0.27807   0.78207   0.21806   0.01267  Uiso   1.00
N22    N     0.26702   0.87605   0.12379   0.01267  Uiso   1.00
N23    N     0.08405   0.87018   0.12983   0.01267  Uiso   1.00
N24    N     0.97017   0.77069   0.22948   0.01267  Uiso   1.00
