data_ZASJAG_clean
_audit_creation_date              2014-07-02
_audit_creation_method            'Materials Studio'
_symmetry_space_group_name_H-M    'P1'
_symmetry_Int_Tables_number       1
_symmetry_cell_setting            triclinic
loop_
_symmetry_equiv_pos_as_xyz
  x,y,z
_cell_length_a                    7.5440
_cell_length_b                    14.7297
_cell_length_c                    14.7297
_cell_angle_alpha                 116.9160
_cell_angle_beta                  104.4280
_cell_angle_gamma                 75.5721
loop_
_atom_site_label
_atom_site_type_symbol
_atom_site_fract_x
_atom_site_fract_y
_atom_site_fract_z
_atom_site_U_iso_or_equiv
_atom_site_adp_type
_atom_site_occupancy
Cd1    Cd    0.75157   0.91890   0.13262   0.01267  Uiso   1.00
Cd2    Cd    0.25157   0.86738   0.08110   0.01267  Uiso   1.00
H1     H     0.86140   0.61530   0.83890   0.01267  Uiso   1.00
H2     H     0.95870   0.44570   0.72650   0.01267  Uiso   1.00
H3     H     0.21410   0.56970   0.07330   0.01267  Uiso   1.00
H4     H     0.30630   0.40280   0.96380   0.01267  Uiso   1.00
H5     H     0.03100   0.28940   0.63220   0.01267  Uiso   1.00
H6     H     0.93760   0.22170   0.47570   0.01267  Uiso   1.00
H7     H     0.79670   0.13700   0.30780   0.01267  Uiso   1.00
H8     H     0.05850   0.87320   0.30180   0.01267  Uiso   1.00
H9     H     0.20420   0.94870   0.46490   0.01267  Uiso   1.00
H10    H     0.33780   0.02050   0.61290   0.01267  Uiso   1.00
H11    H     0.57710   0.95110   0.67550   0.01267  Uiso   1.00
H12    H     0.79550   0.86110   0.76450   0.01267  Uiso   1.00
H13    H     0.74980   0.10870   0.03210   0.01267  Uiso   1.00
H14    H     0.53300   0.19820   0.94500   0.01267  Uiso   1.00
H15    H     0.36140   0.16110   0.38470   0.01267  Uiso   1.00
H16    H     0.45870   0.27350   0.55430   0.01267  Uiso   1.00
H17    H     0.71410   0.92670   0.43030   0.01267  Uiso   1.00
H18    H     0.80630   0.03620   0.59720   0.01267  Uiso   1.00
H19    H     0.53100   0.36780   0.71060   0.01267  Uiso   1.00
H20    H     0.43760   0.52430   0.77830   0.01267  Uiso   1.00
H21    H     0.29670   0.69220   0.86300   0.01267  Uiso   1.00
H22    H     0.55850   0.69820   0.12680   0.01267  Uiso   1.00
H23    H     0.70420   0.53510   0.05130   0.01267  Uiso   1.00
H24    H     0.83780   0.38710   0.97950   0.01267  Uiso   1.00
H25    H     0.07710   0.32450   0.04890   0.01267  Uiso   1.00
H26    H     0.29550   0.23550   0.13890   0.01267  Uiso   1.00
H27    H     0.24980   0.96790   0.89130   0.01267  Uiso   1.00
H28    H     0.03300   0.05500   0.80180   0.01267  Uiso   1.00
C1     C     0.96430   0.72060   0.03700   0.01267  Uiso   1.00
C2     C     0.02810   0.61090   0.96550   0.01267  Uiso   1.00
C3     C     0.95220   0.57300   0.86400   0.01267  Uiso   1.00
C4     C     0.00950   0.46990   0.79610   0.01267  Uiso   1.00
C5     C     0.14100   0.40510   0.83310   0.01267  Uiso   1.00
C6     C     0.16270   0.54510   0.00390   0.01267  Uiso   1.00
C7     C     0.21680   0.44530   0.93810   0.01267  Uiso   1.00
C8     C     0.19940   0.29480   0.76420   0.01267  Uiso   1.00
C9     C     0.12020   0.24970   0.66130   0.01267  Uiso   1.00
C10    C     0.17290   0.14640   0.60220   0.01267  Uiso   1.00
C11    C     0.08630   0.09500   0.49340   0.01267  Uiso   1.00
C12    C     0.96400   0.15030   0.44250   0.01267  Uiso   1.00
C13    C     0.87940   0.09810   0.34030   0.01267  Uiso   1.00
C14    C     0.03200   0.94450   0.33670   0.01267  Uiso   1.00
C15    C     0.11980   0.98980   0.43560   0.01267  Uiso   1.00
C16    C     0.30280   0.09090   0.64990   0.01267  Uiso   1.00
C17    C     0.38160   0.13830   0.75150   0.01267  Uiso   1.00
C18    C     0.52660   0.08230   0.80510   0.01267  Uiso   1.00
C19    C     0.60850   0.98190   0.74690   0.01267  Uiso   1.00
C20    C     0.74180   0.92860   0.80100   0.01267  Uiso   1.00
C21    C     0.79280   0.97600   0.90780   0.01267  Uiso   1.00
C22    C     0.71510   0.07600   0.96100   0.01267  Uiso   1.00
C23    C     0.58240   0.12980   0.90840   0.01267  Uiso   1.00
C24    C     0.94350   0.92210   0.96270   0.01267  Uiso   1.00
C25    C     0.46430   0.96300   0.27940   0.01267  Uiso   1.00
C26    C     0.52810   0.03450   0.38910   0.01267  Uiso   1.00
C27    C     0.45220   0.13600   0.42700   0.01267  Uiso   1.00
C28    C     0.50950   0.20390   0.53010   0.01267  Uiso   1.00
C29    C     0.64100   0.16690   0.59490   0.01267  Uiso   1.00
C30    C     0.66270   0.99610   0.45490   0.01267  Uiso   1.00
C31    C     0.71680   0.06190   0.55470   0.01267  Uiso   1.00
C32    C     0.69940   0.23580   0.70520   0.01267  Uiso   1.00
C33    C     0.62020   0.33870   0.75030   0.01267  Uiso   1.00
C34    C     0.67290   0.39780   0.85360   0.01267  Uiso   1.00
C35    C     0.58630   0.50660   0.90500   0.01267  Uiso   1.00
C36    C     0.46400   0.55750   0.84970   0.01267  Uiso   1.00
C37    C     0.37940   0.65970   0.90190   0.01267  Uiso   1.00
C38    C     0.53200   0.66330   0.05550   0.01267  Uiso   1.00
C39    C     0.61980   0.56440   0.01020   0.01267  Uiso   1.00
C40    C     0.80280   0.35010   0.90910   0.01267  Uiso   1.00
C41    C     0.88160   0.24850   0.86170   0.01267  Uiso   1.00
C42    C     0.02660   0.19490   0.91770   0.01267  Uiso   1.00
C43    C     0.10850   0.25310   0.01810   0.01267  Uiso   1.00
C44    C     0.24180   0.19900   0.07140   0.01267  Uiso   1.00
C45    C     0.29280   0.09220   0.02400   0.01267  Uiso   1.00
C46    C     0.21510   0.03900   0.92400   0.01267  Uiso   1.00
C47    C     0.08240   0.09160   0.87020   0.01267  Uiso   1.00
C48    C     0.44350   0.03730   0.07790   0.01267  Uiso   1.00
N1     N     0.32690   0.23850   0.80930   0.01267  Uiso   1.00
N2     N     0.91160   0.99640   0.28760   0.01267  Uiso   1.00
N3     N     0.82690   0.19070   0.76150   0.01267  Uiso   1.00
N4     N     0.41160   0.71240   0.00360   0.01267  Uiso   1.00
O1     O     0.80570   0.76080   0.01420   0.01267  Uiso   1.00
O2     O     0.08270   0.76850   0.11470   0.01267  Uiso   1.00
O3     O     0.95780   0.95950   0.06070   0.01267  Uiso   1.00
O4     O     0.05330   0.84590   0.91270   0.01267  Uiso   1.00
O5     O     0.30570   0.98580   0.23920   0.01267  Uiso   1.00
O6     O     0.58270   0.88530   0.23150   0.01267  Uiso   1.00
O7     O     0.45780   0.93930   0.04050   0.01267  Uiso   1.00
O8     O     0.55330   0.08730   0.15410   0.01267  Uiso   1.00
