data_ZASTUK_clean
_audit_creation_date              2014-07-02
_audit_creation_method            'Materials Studio'
_symmetry_space_group_name_H-M    'P1'
_symmetry_Int_Tables_number       1
_symmetry_cell_setting            triclinic
loop_
_symmetry_equiv_pos_as_xyz
  x,y,z
_cell_length_a                    9.5316
_cell_length_b                    12.8267
_cell_length_c                    15.8537
_cell_angle_alpha                 66.1381
_cell_angle_beta                  89.1159
_cell_angle_gamma                 87.8141
loop_
_atom_site_label
_atom_site_type_symbol
_atom_site_fract_x
_atom_site_fract_y
_atom_site_fract_z
_atom_site_U_iso_or_equiv
_atom_site_adp_type
_atom_site_occupancy
Mn1    Mn    0.50000   0.50000   0.00000   0.01267  Uiso   1.00
Mn2    Mn    0.00000   0.50000   0.00000   0.01267  Uiso   1.00
Mn3    Mn    0.25000   0.40620   0.18760   0.01267  Uiso   1.00
Mn4    Mn    0.75000   0.59380   0.81240   0.01267  Uiso   1.00
H1     H     0.10800   0.27200   0.96420   0.01267  Uiso   1.00
H2     H     0.15080   0.17990   0.06160   0.01267  Uiso   1.00
H3     H     0.33660   0.11120   0.14100   0.01267  Uiso   1.00
H4     H     0.37520   0.13160   0.84360   0.01267  Uiso   1.00
H5     H     0.49330   0.96570   0.22480   0.01267  Uiso   1.00
H6     H     0.71860   0.26330   0.27400   0.01267  Uiso   1.00
H7     H     0.72480   0.20930   0.20160   0.01267  Uiso   1.00
H8     H     0.54900   0.28380   0.36700   0.01267  Uiso   1.00
H9     H     0.62150   0.91380   0.38960   0.01267  Uiso   1.00
H10    H     0.43100   0.26190   0.50260   0.01267  Uiso   1.00
H11    H     0.39200   0.76380   0.96420   0.01267  Uiso   1.00
H12    H     0.34920   0.75850   0.06160   0.01267  Uiso   1.00
H13    H     0.16340   0.74780   0.14100   0.01267  Uiso   1.00
H14    H     0.12480   0.02480   0.84360   0.01267  Uiso   1.00
H15    H     0.00670   0.80950   0.22480   0.01267  Uiso   1.00
H16    H     0.78140   0.46270   0.27400   0.01267  Uiso   1.00
H17    H     0.77520   0.58910   0.20160   0.01267  Uiso   1.00
H18    H     0.95100   0.34920   0.36700   0.01267  Uiso   1.00
H19    H     0.87850   0.69660   0.38960   0.01267  Uiso   1.00
H20    H     0.06900   0.23550   0.50260   0.01267  Uiso   1.00
H21    H     0.89200   0.72800   0.03580   0.01267  Uiso   1.00
H22    H     0.84920   0.82010   0.93840   0.01267  Uiso   1.00
H23    H     0.66340   0.88880   0.85900   0.01267  Uiso   1.00
H24    H     0.62480   0.86840   0.15640   0.01267  Uiso   1.00
H25    H     0.50670   0.03430   0.77520   0.01267  Uiso   1.00
H26    H     0.28140   0.73670   0.72600   0.01267  Uiso   1.00
H27    H     0.27520   0.79070   0.79840   0.01267  Uiso   1.00
H28    H     0.45100   0.71620   0.63300   0.01267  Uiso   1.00
H29    H     0.37850   0.08620   0.61040   0.01267  Uiso   1.00
H30    H     0.56900   0.73810   0.49740   0.01267  Uiso   1.00
H31    H     0.60800   0.23620   0.03580   0.01267  Uiso   1.00
H32    H     0.65080   0.24150   0.93840   0.01267  Uiso   1.00
H33    H     0.83660   0.25220   0.85900   0.01267  Uiso   1.00
H34    H     0.87520   0.97520   0.15640   0.01267  Uiso   1.00
H35    H     0.99330   0.19050   0.77520   0.01267  Uiso   1.00
H36    H     0.21860   0.53730   0.72600   0.01267  Uiso   1.00
H37    H     0.22480   0.41090   0.79840   0.01267  Uiso   1.00
H38    H     0.04900   0.65080   0.63300   0.01267  Uiso   1.00
H39    H     0.12150   0.30340   0.61040   0.01267  Uiso   1.00
H40    H     0.93100   0.76450   0.49740   0.01267  Uiso   1.00
C1     C     0.18690   0.23818   0.00544   0.01267  Uiso   1.00
C2     C     0.37100   0.10150   0.01950   0.01267  Uiso   1.00
C3     C     0.54820   0.30677   0.19046   0.01267  Uiso   1.00
C4     C     0.45210   0.04438   0.97364   0.01267  Uiso   1.00
C5     C     0.25120   0.32966   0.02896   0.01267  Uiso   1.00
C6     C     0.38830   0.07254   0.11172   0.01267  Uiso   1.00
C7     C     0.43780   0.07333   0.87854   0.01267  Uiso   1.00
C8     C     0.48320   0.98502   0.16196   0.01267  Uiso   1.00
C9     C     0.53420   0.00527   0.45926   0.01267  Uiso   1.00
C10    C     0.66360   0.22503   0.24474   0.01267  Uiso   1.00
C11    C     0.56320   0.11777   0.39266   0.01267  Uiso   1.00
C12    C     0.52720   0.21129   0.40962   0.01267  Uiso   1.00
C13    C     0.57450   0.90679   0.44342   0.01267  Uiso   1.00
C14    C     0.45680   0.19748   0.49204   0.01267  Uiso   1.00
C15    C     0.31310   0.75638   0.00544   0.01267  Uiso   1.00
C16    C     0.12900   0.87900   0.01950   0.01267  Uiso   1.00
C17    C     0.95180   0.50277   0.19046   0.01267  Uiso   1.00
C18    C     0.04790   0.98198   0.97364   0.01267  Uiso   1.00
C19    C     0.24880   0.64138   0.02896   0.01267  Uiso   1.00
C20    C     0.11170   0.81574   0.11172   0.01267  Uiso   1.00
C21    C     0.06220   0.04813   0.87854   0.01267  Uiso   1.00
C22    C     0.01680   0.85302   0.16196   0.01267  Uiso   1.00
C23    C     0.96580   0.53547   0.45926   0.01267  Uiso   1.00
C24    C     0.83640   0.53023   0.24474   0.01267  Uiso   1.00
C25    C     0.93680   0.48957   0.39266   0.01267  Uiso   1.00
C26    C     0.97280   0.37909   0.40962   0.01267  Uiso   1.00
C27    C     0.92550   0.64979   0.44342   0.01267  Uiso   1.00
C28    C     0.04320   0.31048   0.49204   0.01267  Uiso   1.00
C29    C     0.81310   0.76182   0.99456   0.01267  Uiso   1.00
C30    C     0.62900   0.89850   0.98050   0.01267  Uiso   1.00
C31    C     0.45180   0.69323   0.80954   0.01267  Uiso   1.00
C32    C     0.54790   0.95562   0.02636   0.01267  Uiso   1.00
C33    C     0.74880   0.67034   0.97104   0.01267  Uiso   1.00
C34    C     0.61170   0.92746   0.88828   0.01267  Uiso   1.00
C35    C     0.56220   0.92667   0.12146   0.01267  Uiso   1.00
C36    C     0.51680   0.01498   0.83804   0.01267  Uiso   1.00
C37    C     0.46580   0.99473   0.54074   0.01267  Uiso   1.00
C38    C     0.33640   0.77497   0.75526   0.01267  Uiso   1.00
C39    C     0.43680   0.88223   0.60734   0.01267  Uiso   1.00
C40    C     0.47280   0.78871   0.59038   0.01267  Uiso   1.00
C41    C     0.42550   0.09321   0.55658   0.01267  Uiso   1.00
C42    C     0.54320   0.80252   0.50796   0.01267  Uiso   1.00
C43    C     0.68690   0.24362   0.99456   0.01267  Uiso   1.00
C44    C     0.87100   0.12100   0.98050   0.01267  Uiso   1.00
C45    C     0.04820   0.49723   0.80954   0.01267  Uiso   1.00
C46    C     0.95210   0.01802   0.02636   0.01267  Uiso   1.00
C47    C     0.75120   0.35862   0.97104   0.01267  Uiso   1.00
C48    C     0.88830   0.18426   0.88828   0.01267  Uiso   1.00
C49    C     0.93780   0.95187   0.12146   0.01267  Uiso   1.00
C50    C     0.98320   0.14698   0.83804   0.01267  Uiso   1.00
C51    C     0.03420   0.46453   0.54074   0.01267  Uiso   1.00
C52    C     0.16360   0.46977   0.75526   0.01267  Uiso   1.00
C53    C     0.06320   0.51043   0.60734   0.01267  Uiso   1.00
C54    C     0.02720   0.62091   0.59038   0.01267  Uiso   1.00
C55    C     0.07450   0.35021   0.55658   0.01267  Uiso   1.00
C56    C     0.95680   0.68952   0.50796   0.01267  Uiso   1.00
O1     O     0.59219   0.39309   0.12622   0.01267  Uiso   1.00
O2     O     0.37189   0.35919   0.00402   0.01267  Uiso   1.00
O3     O     0.28195   0.18561   0.96334   0.01267  Uiso   1.00
O4     O     0.16903   0.36881   0.07426   0.01267  Uiso   1.00
O5     O     0.42265   0.28385   0.21214   0.01267  Uiso   1.00
O6     O     0.62380   0.11955   0.31364   0.01267  Uiso   1.00
O7     O     0.90781   0.48069   0.12622   0.01267  Uiso   1.00
O8     O     0.12811   0.63679   0.00402   0.01267  Uiso   1.00
O9     O     0.21805   0.85105   0.96334   0.01267  Uiso   1.00
O10    O     0.33097   0.55693   0.07426   0.01267  Uiso   1.00
O11    O     0.07735   0.50401   0.21214   0.01267  Uiso   1.00
O12    O     0.87620   0.56681   0.31364   0.01267  Uiso   1.00
O13    O     0.40781   0.60691   0.87378   0.01267  Uiso   1.00
O14    O     0.62811   0.64081   0.99598   0.01267  Uiso   1.00
O15    O     0.71805   0.81439   0.03666   0.01267  Uiso   1.00
O16    O     0.83097   0.63119   0.92574   0.01267  Uiso   1.00
O17    O     0.57735   0.71615   0.78786   0.01267  Uiso   1.00
O18    O     0.37620   0.88045   0.68636   0.01267  Uiso   1.00
O19    O     0.09219   0.51931   0.87378   0.01267  Uiso   1.00
O20    O     0.87189   0.36321   0.99598   0.01267  Uiso   1.00
O21    O     0.78195   0.14895   0.03666   0.01267  Uiso   1.00
O22    O     0.66903   0.44307   0.92574   0.01267  Uiso   1.00
O23    O     0.92265   0.49599   0.78786   0.01267  Uiso   1.00
O24    O     0.12380   0.43319   0.68636   0.01267  Uiso   1.00
