data_ZASWOF_clean
_audit_creation_date              2014-07-02
_audit_creation_method            'Materials Studio'
_symmetry_space_group_name_H-M    'P1'
_symmetry_Int_Tables_number       1
_symmetry_cell_setting            triclinic
loop_
_symmetry_equiv_pos_as_xyz
  x,y,z
_cell_length_a                    5.7070
_cell_length_b                    8.7490
_cell_length_c                    13.4420
_cell_angle_alpha                 90.0000
_cell_angle_beta                  90.0000
_cell_angle_gamma                 90.0000
loop_
_atom_site_label
_atom_site_type_symbol
_atom_site_fract_x
_atom_site_fract_y
_atom_site_fract_z
_atom_site_U_iso_or_equiv
_atom_site_adp_type
_atom_site_occupancy
Np1    Np    0.50000   0.67307   0.47682   0.01267  Uiso   1.00
Np2    Np    0.00000   0.32693   0.52318   0.01267  Uiso   1.00
Np3    Np    0.50000   0.82693   0.97682   0.01267  Uiso   1.00
Np4    Np    0.00000   0.17307   0.02318   0.01267  Uiso   1.00
C1     C     0.49500   0.76130   0.23540   0.01267  Uiso   1.00
C2     C     0.34100   0.62700   0.23000   0.01267  Uiso   1.00
C3     C     0.99500   0.23870   0.76460   0.01267  Uiso   1.00
C4     C     0.84100   0.37300   0.77000   0.01267  Uiso   1.00
C5     C     0.49500   0.73870   0.73540   0.01267  Uiso   1.00
C6     C     0.34100   0.87300   0.73000   0.01267  Uiso   1.00
C7     C     0.99500   0.26130   0.26460   0.01267  Uiso   1.00
C8     C     0.84100   0.12700   0.27000   0.01267  Uiso   1.00
O1     O     0.73200   0.52950   0.47100   0.01267  Uiso   1.00
O2     O     0.60500   0.78800   0.31540   0.01267  Uiso   1.00
O3     O     0.54800   0.83480   0.15560   0.01267  Uiso   1.00
O4     O     0.31800   0.56700   0.32540   0.01267  Uiso   1.00
O5     O     0.23200   0.47050   0.52900   0.01267  Uiso   1.00
O6     O     0.10500   0.21200   0.68460   0.01267  Uiso   1.00
O7     O     0.04800   0.16520   0.84440   0.01267  Uiso   1.00
O8     O     0.81800   0.43300   0.67460   0.01267  Uiso   1.00
O9     O     0.73200   0.97050   0.97100   0.01267  Uiso   1.00
O10    O     0.60500   0.71200   0.81540   0.01267  Uiso   1.00
O11    O     0.54800   0.66520   0.65560   0.01267  Uiso   1.00
O12    O     0.31800   0.93300   0.82540   0.01267  Uiso   1.00
O13    O     0.23200   0.02950   0.02900   0.01267  Uiso   1.00
O14    O     0.10500   0.28800   0.18460   0.01267  Uiso   1.00
O15    O     0.04800   0.33480   0.34440   0.01267  Uiso   1.00
O16    O     0.81800   0.06700   0.17460   0.01267  Uiso   1.00
