data_image0
_cell_length_a       23.7046
_cell_length_b       15.7987
_cell_length_c       16.2398
_cell_angle_alpha    90
_cell_angle_beta     124.204
_cell_angle_gamma    90

_symmetry_space_group_name_H-M    "P 1"
_symmetry_int_tables_number       1

loop_
  _symmetry_equiv_pos_as_xyz
  'x, y, z'

loop_
  _atom_site_label
  _atom_site_occupancy
  _atom_site_fract_x
  _atom_site_fract_y
  _atom_site_fract_z
  _atom_site_thermal_displace_type
  _atom_site_B_iso_or_equiv
  _atom_site_type_symbol
  Pr1      1.0000 0.81085  0.82930  0.62146  Biso   1.000  Pr
  C1       1.0000 0.12780  0.46310  0.32250  Biso   1.000  C
  C2       1.0000 0.13990  0.54500  0.35910  Biso   1.000  C
  H1       1.0000 0.17660  0.55620  0.42590  Biso   1.000  H
  C3       1.0000 0.09830  0.61080  0.29800  Biso   1.000  C
  C4       1.0000 0.04410  0.59470  0.20010  Biso   1.000  C
  C5       1.0000 0.03110  0.51200  0.16530  Biso   1.000  C
  H2       1.0000 0.99330  0.50020  0.09950  Biso   1.000  H
  C6       1.0000 0.07260  0.44690  0.22570  Biso   1.000  C
  H3       1.0000 0.06340  0.39050  0.20110  Biso   1.000  H
  C7       1.0000 0.01800  0.69030  0.07290  Biso   1.000  C
  C8       1.0000 0.08370  0.68700  0.09580  Biso   1.000  C
  H4       1.0000 0.11910  0.66100  0.15570  Biso   1.000  H
  C9       1.0000 0.09766  0.72210  0.03060  Biso   1.000  C
  C10      1.0000 0.04522  0.75810  0.94120  Biso   1.000  C
  H5       1.0000 0.05430  0.78020  0.89530  Biso   1.000  H
  C11      1.0000 0.97928  0.76130  0.91950  Biso   1.000  C
  C12      1.0000 0.96551  0.72760  0.98580  Biso   1.000  C
  H6       1.0000 0.92080  0.73030  0.97150  Biso   1.000  H
  C13      1.0000 0.17580  0.39240  0.38680  Biso   1.000  C
  C14      1.0000 0.17012  0.71990  0.06080  Biso   1.000  C
  C15      1.0000 0.92194  0.79870  0.82330  Biso   1.000  C
  N1       1.0000 0.11450  0.69590  0.34040  Biso   1.000  N
  O1       1.0000 0.16684  0.32285  0.34360  Biso   1.000  O
  O2       1.0000 0.22042  0.40942  0.47600  Biso   1.000  O
  O3       1.0000 0.15100  0.70230  0.43150  Biso   1.000  O
  O4       1.0000 0.09180  0.75690  0.28540  Biso   1.000  O
  O5       1.0000 0.21266  0.67820  0.13690  Biso   1.000  O
  O6       1.0000 0.18734  0.75944  0.01050  Biso   1.000  O
  O7       1.0000 0.93390  0.82467  0.76070  Biso   1.000  O
  O8       1.0000 0.86339  0.80175  0.80648  Biso   1.000  O
  O9       1.0000 0.00074  0.65720  0.13540  Biso   1.000  O
  Pr2      1.0000 0.31085  0.32930  0.62146  Biso   1.000  Pr
  C16      1.0000 0.62780  0.96310  0.32250  Biso   1.000  C
  C17      1.0000 0.63990  0.04500  0.35910  Biso   1.000  C
  H7       1.0000 0.67660  0.05620  0.42590  Biso   1.000  H
  C18      1.0000 0.59830  0.11080  0.29800  Biso   1.000  C
  C19      1.0000 0.54410  0.09470  0.20010  Biso   1.000  C
  C20      1.0000 0.53110  0.01200  0.16530  Biso   1.000  C
  H8       1.0000 0.49330  0.00020  0.09950  Biso   1.000  H
  C21      1.0000 0.57260  0.94690  0.22570  Biso   1.000  C
  H9       1.0000 0.56340  0.89050  0.20110  Biso   1.000  H
  C22      1.0000 0.51800  0.19030  0.07290  Biso   1.000  C
  C23      1.0000 0.58370  0.18700  0.09580  Biso   1.000  C
  H10      1.0000 0.61910  0.16100  0.15570  Biso   1.000  H
  C24      1.0000 0.59766  0.22210  0.03060  Biso   1.000  C
  C25      1.0000 0.54522  0.25810  0.94120  Biso   1.000  C
  H11      1.0000 0.55430  0.28020  0.89530  Biso   1.000  H
  C26      1.0000 0.47928  0.26130  0.91950  Biso   1.000  C
  C27      1.0000 0.46551  0.22760  0.98580  Biso   1.000  C
  H12      1.0000 0.42080  0.23030  0.97150  Biso   1.000  H
  C28      1.0000 0.67580  0.89240  0.38680  Biso   1.000  C
  C29      1.0000 0.67012  0.21990  0.06080  Biso   1.000  C
  C30      1.0000 0.42194  0.29870  0.82330  Biso   1.000  C
  N2       1.0000 0.61450  0.19590  0.34040  Biso   1.000  N
  O10      1.0000 0.66684  0.82285  0.34360  Biso   1.000  O
  O11      1.0000 0.72042  0.90942  0.47600  Biso   1.000  O
  O12      1.0000 0.65100  0.20230  0.43150  Biso   1.000  O
  O13      1.0000 0.59180  0.25690  0.28540  Biso   1.000  O
  O14      1.0000 0.71266  0.17820  0.13690  Biso   1.000  O
  O15      1.0000 0.68734  0.25944  0.01050  Biso   1.000  O
  O16      1.0000 0.43390  0.32467  0.76070  Biso   1.000  O
  O17      1.0000 0.36339  0.30175  0.80648  Biso   1.000  O
  O18      1.0000 0.50074  0.15720  0.13540  Biso   1.000  O
  Pr3      1.0000 0.18915  0.82930  0.87854  Biso   1.000  Pr
  C31      1.0000 0.87220  0.46310  0.17750  Biso   1.000  C
  C32      1.0000 0.86010  0.54500  0.14090  Biso   1.000  C
  H13      1.0000 0.82340  0.55620  0.07410  Biso   1.000  H
  C33      1.0000 0.90170  0.61080  0.20200  Biso   1.000  C
  C34      1.0000 0.95590  0.59470  0.29990  Biso   1.000  C
  C35      1.0000 0.96890  0.51200  0.33470  Biso   1.000  C
  H14      1.0000 0.00670  0.50020  0.40050  Biso   1.000  H
  C36      1.0000 0.92740  0.44690  0.27430  Biso   1.000  C
  H15      1.0000 0.93660  0.39050  0.29890  Biso   1.000  H
  C37      1.0000 0.98200  0.69030  0.42710  Biso   1.000  C
  C38      1.0000 0.91630  0.68700  0.40420  Biso   1.000  C
  H16      1.0000 0.88090  0.66100  0.34430  Biso   1.000  H
  C39      1.0000 0.90234  0.72210  0.46940  Biso   1.000  C
  C40      1.0000 0.95478  0.75810  0.55880  Biso   1.000  C
  H17      1.0000 0.94570  0.78020  0.60470  Biso   1.000  H
  C41      1.0000 0.02072  0.76130  0.58050  Biso   1.000  C
  C42      1.0000 0.03449  0.72760  0.51420  Biso   1.000  C
  H18      1.0000 0.07920  0.73030  0.52850  Biso   1.000  H
  C43      1.0000 0.82420  0.39240  0.11320  Biso   1.000  C
  C44      1.0000 0.82988  0.71990  0.43920  Biso   1.000  C
  C45      1.0000 0.07806  0.79870  0.67670  Biso   1.000  C
  N3       1.0000 0.88550  0.69590  0.15960  Biso   1.000  N
  O19      1.0000 0.83316  0.32285  0.15640  Biso   1.000  O
  O20      1.0000 0.77958  0.40942  0.02400  Biso   1.000  O
  O21      1.0000 0.84900  0.70230  0.06850  Biso   1.000  O
  O22      1.0000 0.90820  0.75690  0.21460  Biso   1.000  O
  O23      1.0000 0.78734  0.67820  0.36310  Biso   1.000  O
  O24      1.0000 0.81266  0.75944  0.48950  Biso   1.000  O
  O25      1.0000 0.06610  0.82467  0.73930  Biso   1.000  O
  O26      1.0000 0.13661  0.80175  0.69352  Biso   1.000  O
  O27      1.0000 0.99926  0.65720  0.36460  Biso   1.000  O
  Pr4      1.0000 0.68915  0.32930  0.87854  Biso   1.000  Pr
  C46      1.0000 0.37220  0.96310  0.17750  Biso   1.000  C
  C47      1.0000 0.36010  0.04500  0.14090  Biso   1.000  C
  H19      1.0000 0.32340  0.05620  0.07410  Biso   1.000  H
  C48      1.0000 0.40170  0.11080  0.20200  Biso   1.000  C
  C49      1.0000 0.45590  0.09470  0.29990  Biso   1.000  C
  C50      1.0000 0.46890  0.01200  0.33470  Biso   1.000  C
  H20      1.0000 0.50670  0.00020  0.40050  Biso   1.000  H
  C51      1.0000 0.42740  0.94690  0.27430  Biso   1.000  C
  H21      1.0000 0.43660  0.89050  0.29890  Biso   1.000  H
  C52      1.0000 0.48200  0.19030  0.42710  Biso   1.000  C
  C53      1.0000 0.41630  0.18700  0.40420  Biso   1.000  C
  H22      1.0000 0.38090  0.16100  0.34430  Biso   1.000  H
  C54      1.0000 0.40234  0.22210  0.46940  Biso   1.000  C
  C55      1.0000 0.45478  0.25810  0.55880  Biso   1.000  C
  H23      1.0000 0.44570  0.28020  0.60470  Biso   1.000  H
  C56      1.0000 0.52072  0.26130  0.58050  Biso   1.000  C
  C57      1.0000 0.53449  0.22760  0.51420  Biso   1.000  C
  H24      1.0000 0.57920  0.23030  0.52850  Biso   1.000  H
  C58      1.0000 0.32420  0.89240  0.11320  Biso   1.000  C
  C59      1.0000 0.32988  0.21990  0.43920  Biso   1.000  C
  C60      1.0000 0.57806  0.29870  0.67670  Biso   1.000  C
  N4       1.0000 0.38550  0.19590  0.15960  Biso   1.000  N
  O28      1.0000 0.33316  0.82285  0.15640  Biso   1.000  O
  O29      1.0000 0.27958  0.90942  0.02400  Biso   1.000  O
  O30      1.0000 0.34900  0.20230  0.06850  Biso   1.000  O
  O31      1.0000 0.40820  0.25690  0.21460  Biso   1.000  O
  O32      1.0000 0.28734  0.17820  0.36310  Biso   1.000  O
  O33      1.0000 0.31266  0.25944  0.48950  Biso   1.000  O
  O34      1.0000 0.56610  0.32467  0.73930  Biso   1.000  O
  O35      1.0000 0.63661  0.30175  0.69352  Biso   1.000  O
  O36      1.0000 0.49926  0.15720  0.36460  Biso   1.000  O
  Pr5      1.0000 0.18915  0.17070  0.37854  Biso   1.000  Pr
  C61      1.0000 0.87220  0.53690  0.67750  Biso   1.000  C
  C62      1.0000 0.86010  0.45500  0.64090  Biso   1.000  C
  H25      1.0000 0.82340  0.44380  0.57410  Biso   1.000  H
  C63      1.0000 0.90170  0.38920  0.70200  Biso   1.000  C
  C64      1.0000 0.95590  0.40530  0.79990  Biso   1.000  C
  C65      1.0000 0.96890  0.48800  0.83470  Biso   1.000  C
  H26      1.0000 0.00670  0.49980  0.90050  Biso   1.000  H
  C66      1.0000 0.92740  0.55310  0.77430  Biso   1.000  C
  H27      1.0000 0.93660  0.60950  0.79890  Biso   1.000  H
  C67      1.0000 0.98200  0.30970  0.92710  Biso   1.000  C
  C68      1.0000 0.91630  0.31300  0.90420  Biso   1.000  C
  H28      1.0000 0.88090  0.33900  0.84430  Biso   1.000  H
  C69      1.0000 0.90234  0.27790  0.96940  Biso   1.000  C
  C70      1.0000 0.95478  0.24190  0.05880  Biso   1.000  C
  H29      1.0000 0.94570  0.21980  0.10470  Biso   1.000  H
  C71      1.0000 0.02072  0.23870  0.08050  Biso   1.000  C
  C72      1.0000 0.03449  0.27240  0.01420  Biso   1.000  C
  H30      1.0000 0.07920  0.26970  0.02850  Biso   1.000  H
  C73      1.0000 0.82420  0.60760  0.61320  Biso   1.000  C
  C74      1.0000 0.82988  0.28010  0.93920  Biso   1.000  C
  C75      1.0000 0.07806  0.20130  0.17670  Biso   1.000  C
  N5       1.0000 0.88550  0.30410  0.65960  Biso   1.000  N
  O37      1.0000 0.83316  0.67715  0.65640  Biso   1.000  O
  O38      1.0000 0.77958  0.59058  0.52400  Biso   1.000  O
  O39      1.0000 0.84900  0.29770  0.56850  Biso   1.000  O
  O40      1.0000 0.90820  0.24310  0.71460  Biso   1.000  O
  O41      1.0000 0.78734  0.32180  0.86310  Biso   1.000  O
  O42      1.0000 0.81266  0.24056  0.98950  Biso   1.000  O
  O43      1.0000 0.06610  0.17533  0.23930  Biso   1.000  O
  O44      1.0000 0.13661  0.19825  0.19352  Biso   1.000  O
  O45      1.0000 0.99926  0.34280  0.86460  Biso   1.000  O
  Pr6      1.0000 0.68915  0.67070  0.37854  Biso   1.000  Pr
  C76      1.0000 0.37220  0.03690  0.67750  Biso   1.000  C
  C77      1.0000 0.36010  0.95500  0.64090  Biso   1.000  C
  H31      1.0000 0.32340  0.94380  0.57410  Biso   1.000  H
  C78      1.0000 0.40170  0.88920  0.70200  Biso   1.000  C
  C79      1.0000 0.45590  0.90530  0.79990  Biso   1.000  C
  C80      1.0000 0.46890  0.98800  0.83470  Biso   1.000  C
  H32      1.0000 0.50670  0.99980  0.90050  Biso   1.000  H
  C81      1.0000 0.42740  0.05310  0.77430  Biso   1.000  C
  H33      1.0000 0.43660  0.10950  0.79890  Biso   1.000  H
  C82      1.0000 0.48200  0.80970  0.92710  Biso   1.000  C
  C83      1.0000 0.41630  0.81300  0.90420  Biso   1.000  C
  H34      1.0000 0.38090  0.83900  0.84430  Biso   1.000  H
  C84      1.0000 0.40234  0.77790  0.96940  Biso   1.000  C
  C85      1.0000 0.45478  0.74190  0.05880  Biso   1.000  C
  H35      1.0000 0.44570  0.71980  0.10470  Biso   1.000  H
  C86      1.0000 0.52072  0.73870  0.08050  Biso   1.000  C
  C87      1.0000 0.53449  0.77240  0.01420  Biso   1.000  C
  H36      1.0000 0.57920  0.76970  0.02850  Biso   1.000  H
  C88      1.0000 0.32420  0.10760  0.61320  Biso   1.000  C
  C89      1.0000 0.32988  0.78010  0.93920  Biso   1.000  C
  C90      1.0000 0.57806  0.70130  0.17670  Biso   1.000  C
  N6       1.0000 0.38550  0.80410  0.65960  Biso   1.000  N
  O46      1.0000 0.33316  0.17715  0.65640  Biso   1.000  O
  O47      1.0000 0.27958  0.09058  0.52400  Biso   1.000  O
  O48      1.0000 0.34900  0.79770  0.56850  Biso   1.000  O
  O49      1.0000 0.40820  0.74310  0.71460  Biso   1.000  O
  O50      1.0000 0.28734  0.82180  0.86310  Biso   1.000  O
  O51      1.0000 0.31266  0.74056  0.98950  Biso   1.000  O
  O52      1.0000 0.56610  0.67533  0.23930  Biso   1.000  O
  O53      1.0000 0.63661  0.69825  0.19352  Biso   1.000  O
  O54      1.0000 0.49926  0.84280  0.86460  Biso   1.000  O
  Pr7      1.0000 0.81085  0.17070  0.12146  Biso   1.000  Pr
  C91      1.0000 0.12780  0.53690  0.82250  Biso   1.000  C
  C92      1.0000 0.13990  0.45500  0.85910  Biso   1.000  C
  H37      1.0000 0.17660  0.44380  0.92590  Biso   1.000  H
  C93      1.0000 0.09830  0.38920  0.79800  Biso   1.000  C
  C94      1.0000 0.04410  0.40530  0.70010  Biso   1.000  C
  C95      1.0000 0.03110  0.48800  0.66530  Biso   1.000  C
  H38      1.0000 0.99330  0.49980  0.59950  Biso   1.000  H
  C96      1.0000 0.07260  0.55310  0.72570  Biso   1.000  C
  H39      1.0000 0.06340  0.60950  0.70110  Biso   1.000  H
  C97      1.0000 0.01800  0.30970  0.57290  Biso   1.000  C
  C98      1.0000 0.08370  0.31300  0.59580  Biso   1.000  C
  H40      1.0000 0.11910  0.33900  0.65570  Biso   1.000  H
  C99      1.0000 0.09766  0.27790  0.53060  Biso   1.000  C
  C100     1.0000 0.04522  0.24190  0.44120  Biso   1.000  C
  H41      1.0000 0.05430  0.21980  0.39530  Biso   1.000  H
  C101     1.0000 0.97928  0.23870  0.41950  Biso   1.000  C
  C102     1.0000 0.96551  0.27240  0.48580  Biso   1.000  C
  H42      1.0000 0.92080  0.26970  0.47150  Biso   1.000  H
  C103     1.0000 0.17580  0.60760  0.88680  Biso   1.000  C
  C104     1.0000 0.17012  0.28010  0.56080  Biso   1.000  C
  C105     1.0000 0.92194  0.20130  0.32330  Biso   1.000  C
  N7       1.0000 0.11450  0.30410  0.84040  Biso   1.000  N
  O55      1.0000 0.16684  0.67715  0.84360  Biso   1.000  O
  O56      1.0000 0.22042  0.59058  0.97600  Biso   1.000  O
  O57      1.0000 0.15100  0.29770  0.93150  Biso   1.000  O
  O58      1.0000 0.09180  0.24310  0.78540  Biso   1.000  O
  O59      1.0000 0.21266  0.32180  0.63690  Biso   1.000  O
  O60      1.0000 0.18734  0.24056  0.51050  Biso   1.000  O
  O61      1.0000 0.93390  0.17533  0.26070  Biso   1.000  O
  O62      1.0000 0.86339  0.19825  0.30648  Biso   1.000  O
  O63      1.0000 0.00074  0.34280  0.63540  Biso   1.000  O
  Pr8      1.0000 0.31085  0.67070  0.12146  Biso   1.000  Pr
  C106     1.0000 0.62780  0.03690  0.82250  Biso   1.000  C
  C107     1.0000 0.63990  0.95500  0.85910  Biso   1.000  C
  H43      1.0000 0.67660  0.94380  0.92590  Biso   1.000  H
  C108     1.0000 0.59830  0.88920  0.79800  Biso   1.000  C
  C109     1.0000 0.54410  0.90530  0.70010  Biso   1.000  C
  C110     1.0000 0.53110  0.98800  0.66530  Biso   1.000  C
  H44      1.0000 0.49330  0.99980  0.59950  Biso   1.000  H
  C111     1.0000 0.57260  0.05310  0.72570  Biso   1.000  C
  H45      1.0000 0.56340  0.10950  0.70110  Biso   1.000  H
  C112     1.0000 0.51800  0.80970  0.57290  Biso   1.000  C
  C113     1.0000 0.58370  0.81300  0.59580  Biso   1.000  C
  H46      1.0000 0.61910  0.83900  0.65570  Biso   1.000  H
  C114     1.0000 0.59766  0.77790  0.53060  Biso   1.000  C
  C115     1.0000 0.54522  0.74190  0.44120  Biso   1.000  C
  H47      1.0000 0.55430  0.71980  0.39530  Biso   1.000  H
  C116     1.0000 0.47928  0.73870  0.41950  Biso   1.000  C
  C117     1.0000 0.46551  0.77240  0.48580  Biso   1.000  C
  H48      1.0000 0.42080  0.76970  0.47150  Biso   1.000  H
  C118     1.0000 0.67580  0.10760  0.88680  Biso   1.000  C
  C119     1.0000 0.67012  0.78010  0.56080  Biso   1.000  C
  C120     1.0000 0.42194  0.70130  0.32330  Biso   1.000  C
  N8       1.0000 0.61450  0.80410  0.84040  Biso   1.000  N
  O64      1.0000 0.66684  0.17715  0.84360  Biso   1.000  O
  O65      1.0000 0.72042  0.09058  0.97600  Biso   1.000  O
  O66      1.0000 0.65100  0.79770  0.93150  Biso   1.000  O
  O67      1.0000 0.59180  0.74310  0.78540  Biso   1.000  O
  O68      1.0000 0.71266  0.82180  0.63690  Biso   1.000  O
  O69      1.0000 0.68734  0.74056  0.51050  Biso   1.000  O
  O70      1.0000 0.43390  0.67533  0.26070  Biso   1.000  O
  O71      1.0000 0.36339  0.69825  0.30648  Biso   1.000  O
  O72      1.0000 0.50074  0.84280  0.63540  Biso   1.000  O
