data_image0
_cell_length_a       23.649
_cell_length_b       15.7654
_cell_length_c       16.2182
_cell_angle_alpha    90
_cell_angle_beta     124.272
_cell_angle_gamma    90

_symmetry_space_group_name_H-M    "P 1"
_symmetry_int_tables_number       1

loop_
  _symmetry_equiv_pos_as_xyz
  'x, y, z'

loop_
  _atom_site_label
  _atom_site_occupancy
  _atom_site_fract_x
  _atom_site_fract_y
  _atom_site_fract_z
  _atom_site_thermal_displace_type
  _atom_site_B_iso_or_equiv
  _atom_site_type_symbol
  Nd1      1.0000 0.68931  0.32871  0.87863  Biso   1.000  Nd
  C1       1.0000 0.40210  0.22260  0.46970  Biso   1.000  C
  C2       1.0000 0.41620  0.18760  0.40410  Biso   1.000  C
  H1       1.0000 0.38070  0.16210  0.34370  Biso   1.000  H
  C3       1.0000 0.48230  0.19040  0.42770  Biso   1.000  C
  C4       1.0000 0.53430  0.22780  0.51460  Biso   1.000  C
  H2       1.0000 0.57920  0.23060  0.52900  Biso   1.000  H
  C5       1.0000 0.52070  0.26150  0.58140  Biso   1.000  C
  C6       1.0000 0.45470  0.25820  0.55930  Biso   1.000  C
  H3       1.0000 0.44560  0.28010  0.60520  Biso   1.000  H
  C7       1.0000 0.45480  0.09470  0.29920  Biso   1.000  C
  C8       1.0000 0.40140  0.11100  0.20120  Biso   1.000  C
  C9       1.0000 0.35990  0.04490  0.14060  Biso   1.000  C
  H4       1.0000 0.32300  0.05620  0.07380  Biso   1.000  H
  C10      1.0000 0.37160  0.96270  0.17670  Biso   1.000  C
  C11      1.0000 0.42720  0.94720  0.27370  Biso   1.000  C
  H5       1.0000 0.43680  0.89080  0.29860  Biso   1.000  H
  C12      1.0000 0.46860  0.01260  0.33420  Biso   1.000  C
  H6       1.0000 0.50660  0.00090  0.40010  Biso   1.000  H
  C13      1.0000 0.32940  0.22080  0.43920  Biso   1.000  C
  C14      1.0000 0.32440  0.89220  0.11310  Biso   1.000  C
  C15      1.0000 0.57820  0.29810  0.67740  Biso   1.000  C
  N1       1.0000 0.38460  0.19620  0.15820  Biso   1.000  N
  O1       1.0000 0.31220  0.26050  0.48990  Biso   1.000  O
  O2       1.0000 0.28684  0.17900  0.36300  Biso   1.000  O
  O3       1.0000 0.40750  0.25720  0.21370  Biso   1.000  O
  O4       1.0000 0.34830  0.20270  0.06720  Biso   1.000  O
  O5       1.0000 0.27962  0.90910  0.02340  Biso   1.000  O
  O6       1.0000 0.33320  0.82240  0.15610  Biso   1.000  O
  O7       1.0000 0.63704  0.30110  0.69470  Biso   1.000  O
  O8       1.0000 0.56653  0.32400  0.74070  Biso   1.000  O
  O9       1.0000 0.49892  0.15800  0.36410  Biso   1.000  O
  Nd2      1.0000 0.18931  0.82871  0.87863  Biso   1.000  Nd
  C16      1.0000 0.90210  0.72260  0.46970  Biso   1.000  C
  C17      1.0000 0.91620  0.68760  0.40410  Biso   1.000  C
  H7       1.0000 0.88070  0.66210  0.34370  Biso   1.000  H
  C18      1.0000 0.98230  0.69040  0.42770  Biso   1.000  C
  C19      1.0000 0.03430  0.72780  0.51460  Biso   1.000  C
  H8       1.0000 0.07920  0.73060  0.52900  Biso   1.000  H
  C20      1.0000 0.02070  0.76150  0.58140  Biso   1.000  C
  C21      1.0000 0.95470  0.75820  0.55930  Biso   1.000  C
  H9       1.0000 0.94560  0.78010  0.60520  Biso   1.000  H
  C22      1.0000 0.95480  0.59470  0.29920  Biso   1.000  C
  C23      1.0000 0.90140  0.61100  0.20120  Biso   1.000  C
  C24      1.0000 0.85990  0.54490  0.14060  Biso   1.000  C
  H10      1.0000 0.82300  0.55620  0.07380  Biso   1.000  H
  C25      1.0000 0.87160  0.46270  0.17670  Biso   1.000  C
  C26      1.0000 0.92720  0.44720  0.27370  Biso   1.000  C
  H11      1.0000 0.93680  0.39080  0.29860  Biso   1.000  H
  C27      1.0000 0.96860  0.51260  0.33420  Biso   1.000  C
  H12      1.0000 0.00660  0.50090  0.40010  Biso   1.000  H
  C28      1.0000 0.82940  0.72080  0.43920  Biso   1.000  C
  C29      1.0000 0.82440  0.39220  0.11310  Biso   1.000  C
  C30      1.0000 0.07820  0.79810  0.67740  Biso   1.000  C
  N2       1.0000 0.88460  0.69620  0.15820  Biso   1.000  N
  O10      1.0000 0.81220  0.76050  0.48990  Biso   1.000  O
  O11      1.0000 0.78684  0.67900  0.36300  Biso   1.000  O
  O12      1.0000 0.90750  0.75720  0.21370  Biso   1.000  O
  O13      1.0000 0.84830  0.70270  0.06720  Biso   1.000  O
  O14      1.0000 0.77962  0.40910  0.02340  Biso   1.000  O
  O15      1.0000 0.83320  0.32240  0.15610  Biso   1.000  O
  O16      1.0000 0.13704  0.80110  0.69470  Biso   1.000  O
  O17      1.0000 0.06653  0.82400  0.74070  Biso   1.000  O
  O18      1.0000 0.99892  0.65800  0.36410  Biso   1.000  O
  Nd3      1.0000 0.31069  0.32871  0.62137  Biso   1.000  Nd
  C31      1.0000 0.59790  0.22260  0.03030  Biso   1.000  C
  C32      1.0000 0.58380  0.18760  0.09590  Biso   1.000  C
  H13      1.0000 0.61930  0.16210  0.15630  Biso   1.000  H
  C33      1.0000 0.51770  0.19040  0.07230  Biso   1.000  C
  C34      1.0000 0.46570  0.22780  0.98540  Biso   1.000  C
  H14      1.0000 0.42080  0.23060  0.97100  Biso   1.000  H
  C35      1.0000 0.47930  0.26150  0.91860  Biso   1.000  C
  C36      1.0000 0.54530  0.25820  0.94070  Biso   1.000  C
  H15      1.0000 0.55440  0.28010  0.89480  Biso   1.000  H
  C37      1.0000 0.54520  0.09470  0.20080  Biso   1.000  C
  C38      1.0000 0.59860  0.11100  0.29880  Biso   1.000  C
  C39      1.0000 0.64010  0.04490  0.35940  Biso   1.000  C
  H16      1.0000 0.67700  0.05620  0.42620  Biso   1.000  H
  C40      1.0000 0.62840  0.96270  0.32330  Biso   1.000  C
  C41      1.0000 0.57280  0.94720  0.22630  Biso   1.000  C
  H17      1.0000 0.56320  0.89080  0.20140  Biso   1.000  H
  C42      1.0000 0.53140  0.01260  0.16580  Biso   1.000  C
  H18      1.0000 0.49340  0.00090  0.09990  Biso   1.000  H
  C43      1.0000 0.67060  0.22080  0.06080  Biso   1.000  C
  C44      1.0000 0.67560  0.89220  0.38690  Biso   1.000  C
  C45      1.0000 0.42180  0.29810  0.82260  Biso   1.000  C
  N3       1.0000 0.61540  0.19620  0.34180  Biso   1.000  N
  O19      1.0000 0.68780  0.26050  0.01010  Biso   1.000  O
  O20      1.0000 0.71316  0.17900  0.13700  Biso   1.000  O
  O21      1.0000 0.59250  0.25720  0.28630  Biso   1.000  O
  O22      1.0000 0.65170  0.20270  0.43280  Biso   1.000  O
  O23      1.0000 0.72038  0.90910  0.47660  Biso   1.000  O
  O24      1.0000 0.66680  0.82240  0.34390  Biso   1.000  O
  O25      1.0000 0.36296  0.30110  0.80530  Biso   1.000  O
  O26      1.0000 0.43347  0.32400  0.75930  Biso   1.000  O
  O27      1.0000 0.50108  0.15800  0.13590  Biso   1.000  O
  Nd4      1.0000 0.81069  0.82871  0.62137  Biso   1.000  Nd
  C46      1.0000 0.09790  0.72260  0.03030  Biso   1.000  C
  C47      1.0000 0.08380  0.68760  0.09590  Biso   1.000  C
  H19      1.0000 0.11930  0.66210  0.15630  Biso   1.000  H
  C48      1.0000 0.01770  0.69040  0.07230  Biso   1.000  C
  C49      1.0000 0.96570  0.72780  0.98540  Biso   1.000  C
  H20      1.0000 0.92080  0.73060  0.97100  Biso   1.000  H
  C50      1.0000 0.97930  0.76150  0.91860  Biso   1.000  C
  C51      1.0000 0.04530  0.75820  0.94070  Biso   1.000  C
  H21      1.0000 0.05440  0.78010  0.89480  Biso   1.000  H
  C52      1.0000 0.04520  0.59470  0.20080  Biso   1.000  C
  C53      1.0000 0.09860  0.61100  0.29880  Biso   1.000  C
  C54      1.0000 0.14010  0.54490  0.35940  Biso   1.000  C
  H22      1.0000 0.17700  0.55620  0.42620  Biso   1.000  H
  C55      1.0000 0.12840  0.46270  0.32330  Biso   1.000  C
  C56      1.0000 0.07280  0.44720  0.22630  Biso   1.000  C
  H23      1.0000 0.06320  0.39080  0.20140  Biso   1.000  H
  C57      1.0000 0.03140  0.51260  0.16580  Biso   1.000  C
  H24      1.0000 0.99340  0.50090  0.09990  Biso   1.000  H
  C58      1.0000 0.17060  0.72080  0.06080  Biso   1.000  C
  C59      1.0000 0.17560  0.39220  0.38690  Biso   1.000  C
  C60      1.0000 0.92180  0.79810  0.82260  Biso   1.000  C
  N4       1.0000 0.11540  0.69620  0.34180  Biso   1.000  N
  O28      1.0000 0.18780  0.76050  0.01010  Biso   1.000  O
  O29      1.0000 0.21316  0.67900  0.13700  Biso   1.000  O
  O30      1.0000 0.09250  0.75720  0.28630  Biso   1.000  O
  O31      1.0000 0.15170  0.70270  0.43280  Biso   1.000  O
  O32      1.0000 0.22038  0.40910  0.47660  Biso   1.000  O
  O33      1.0000 0.16680  0.32240  0.34390  Biso   1.000  O
  O34      1.0000 0.86296  0.80110  0.80530  Biso   1.000  O
  O35      1.0000 0.93347  0.82400  0.75930  Biso   1.000  O
  O36      1.0000 0.00108  0.65800  0.13590  Biso   1.000  O
  Nd5      1.0000 0.31069  0.67129  0.12137  Biso   1.000  Nd
  C61      1.0000 0.59790  0.77740  0.53030  Biso   1.000  C
  C62      1.0000 0.58380  0.81240  0.59590  Biso   1.000  C
  H25      1.0000 0.61930  0.83790  0.65630  Biso   1.000  H
  C63      1.0000 0.51770  0.80960  0.57230  Biso   1.000  C
  C64      1.0000 0.46570  0.77220  0.48540  Biso   1.000  C
  H26      1.0000 0.42080  0.76940  0.47100  Biso   1.000  H
  C65      1.0000 0.47930  0.73850  0.41860  Biso   1.000  C
  C66      1.0000 0.54530  0.74180  0.44070  Biso   1.000  C
  H27      1.0000 0.55440  0.71990  0.39480  Biso   1.000  H
  C67      1.0000 0.54520  0.90530  0.70080  Biso   1.000  C
  C68      1.0000 0.59860  0.88900  0.79880  Biso   1.000  C
  C69      1.0000 0.64010  0.95510  0.85940  Biso   1.000  C
  H28      1.0000 0.67700  0.94380  0.92620  Biso   1.000  H
  C70      1.0000 0.62840  0.03730  0.82330  Biso   1.000  C
  C71      1.0000 0.57280  0.05280  0.72630  Biso   1.000  C
  H29      1.0000 0.56320  0.10920  0.70140  Biso   1.000  H
  C72      1.0000 0.53140  0.98740  0.66580  Biso   1.000  C
  H30      1.0000 0.49340  0.99910  0.59990  Biso   1.000  H
  C73      1.0000 0.67060  0.77920  0.56080  Biso   1.000  C
  C74      1.0000 0.67560  0.10780  0.88690  Biso   1.000  C
  C75      1.0000 0.42180  0.70190  0.32260  Biso   1.000  C
  N5       1.0000 0.61540  0.80380  0.84180  Biso   1.000  N
  O37      1.0000 0.68780  0.73950  0.51010  Biso   1.000  O
  O38      1.0000 0.71316  0.82100  0.63700  Biso   1.000  O
  O39      1.0000 0.59250  0.74280  0.78630  Biso   1.000  O
  O40      1.0000 0.65170  0.79730  0.93280  Biso   1.000  O
  O41      1.0000 0.72038  0.09090  0.97660  Biso   1.000  O
  O42      1.0000 0.66680  0.17760  0.84390  Biso   1.000  O
  O43      1.0000 0.36296  0.69890  0.30530  Biso   1.000  O
  O44      1.0000 0.43347  0.67600  0.25930  Biso   1.000  O
  O45      1.0000 0.50108  0.84200  0.63590  Biso   1.000  O
  Nd6      1.0000 0.81069  0.17129  0.12137  Biso   1.000  Nd
  C76      1.0000 0.09790  0.27740  0.53030  Biso   1.000  C
  C77      1.0000 0.08380  0.31240  0.59590  Biso   1.000  C
  H31      1.0000 0.11930  0.33790  0.65630  Biso   1.000  H
  C78      1.0000 0.01770  0.30960  0.57230  Biso   1.000  C
  C79      1.0000 0.96570  0.27220  0.48540  Biso   1.000  C
  H32      1.0000 0.92080  0.26940  0.47100  Biso   1.000  H
  C80      1.0000 0.97930  0.23850  0.41860  Biso   1.000  C
  C81      1.0000 0.04530  0.24180  0.44070  Biso   1.000  C
  H33      1.0000 0.05440  0.21990  0.39480  Biso   1.000  H
  C82      1.0000 0.04520  0.40530  0.70080  Biso   1.000  C
  C83      1.0000 0.09860  0.38900  0.79880  Biso   1.000  C
  C84      1.0000 0.14010  0.45510  0.85940  Biso   1.000  C
  H34      1.0000 0.17700  0.44380  0.92620  Biso   1.000  H
  C85      1.0000 0.12840  0.53730  0.82330  Biso   1.000  C
  C86      1.0000 0.07280  0.55280  0.72630  Biso   1.000  C
  H35      1.0000 0.06320  0.60920  0.70140  Biso   1.000  H
  C87      1.0000 0.03140  0.48740  0.66580  Biso   1.000  C
  H36      1.0000 0.99340  0.49910  0.59990  Biso   1.000  H
  C88      1.0000 0.17060  0.27920  0.56080  Biso   1.000  C
  C89      1.0000 0.17560  0.60780  0.88690  Biso   1.000  C
  C90      1.0000 0.92180  0.20190  0.32260  Biso   1.000  C
  N6       1.0000 0.11540  0.30380  0.84180  Biso   1.000  N
  O46      1.0000 0.18780  0.23950  0.51010  Biso   1.000  O
  O47      1.0000 0.21316  0.32100  0.63700  Biso   1.000  O
  O48      1.0000 0.09250  0.24280  0.78630  Biso   1.000  O
  O49      1.0000 0.15170  0.29730  0.93280  Biso   1.000  O
  O50      1.0000 0.22038  0.59090  0.97660  Biso   1.000  O
  O51      1.0000 0.16680  0.67760  0.84390  Biso   1.000  O
  O52      1.0000 0.86296  0.19890  0.30530  Biso   1.000  O
  O53      1.0000 0.93347  0.17600  0.25930  Biso   1.000  O
  O54      1.0000 0.00108  0.34200  0.63590  Biso   1.000  O
  Nd7      1.0000 0.68931  0.67129  0.37863  Biso   1.000  Nd
  C91      1.0000 0.40210  0.77740  0.96970  Biso   1.000  C
  C92      1.0000 0.41620  0.81240  0.90410  Biso   1.000  C
  H37      1.0000 0.38070  0.83790  0.84370  Biso   1.000  H
  C93      1.0000 0.48230  0.80960  0.92770  Biso   1.000  C
  C94      1.0000 0.53430  0.77220  0.01460  Biso   1.000  C
  H38      1.0000 0.57920  0.76940  0.02900  Biso   1.000  H
  C95      1.0000 0.52070  0.73850  0.08140  Biso   1.000  C
  C96      1.0000 0.45470  0.74180  0.05930  Biso   1.000  C
  H39      1.0000 0.44560  0.71990  0.10520  Biso   1.000  H
  C97      1.0000 0.45480  0.90530  0.79920  Biso   1.000  C
  C98      1.0000 0.40140  0.88900  0.70120  Biso   1.000  C
  C99      1.0000 0.35990  0.95510  0.64060  Biso   1.000  C
  H40      1.0000 0.32300  0.94380  0.57380  Biso   1.000  H
  C100     1.0000 0.37160  0.03730  0.67670  Biso   1.000  C
  C101     1.0000 0.42720  0.05280  0.77370  Biso   1.000  C
  H41      1.0000 0.43680  0.10920  0.79860  Biso   1.000  H
  C102     1.0000 0.46860  0.98740  0.83420  Biso   1.000  C
  H42      1.0000 0.50660  0.99910  0.90010  Biso   1.000  H
  C103     1.0000 0.32940  0.77920  0.93920  Biso   1.000  C
  C104     1.0000 0.32440  0.10780  0.61310  Biso   1.000  C
  C105     1.0000 0.57820  0.70190  0.17740  Biso   1.000  C
  N7       1.0000 0.38460  0.80380  0.65820  Biso   1.000  N
  O55      1.0000 0.31220  0.73950  0.98990  Biso   1.000  O
  O56      1.0000 0.28684  0.82100  0.86300  Biso   1.000  O
  O57      1.0000 0.40750  0.74280  0.71370  Biso   1.000  O
  O58      1.0000 0.34830  0.79730  0.56720  Biso   1.000  O
  O59      1.0000 0.27962  0.09090  0.52340  Biso   1.000  O
  O60      1.0000 0.33320  0.17760  0.65610  Biso   1.000  O
  O61      1.0000 0.63704  0.69890  0.19470  Biso   1.000  O
  O62      1.0000 0.56653  0.67600  0.24070  Biso   1.000  O
  O63      1.0000 0.49892  0.84200  0.86410  Biso   1.000  O
  Nd8      1.0000 0.18931  0.17129  0.37863  Biso   1.000  Nd
  C106     1.0000 0.90210  0.27740  0.96970  Biso   1.000  C
  C107     1.0000 0.91620  0.31240  0.90410  Biso   1.000  C
  H43      1.0000 0.88070  0.33790  0.84370  Biso   1.000  H
  C108     1.0000 0.98230  0.30960  0.92770  Biso   1.000  C
  C109     1.0000 0.03430  0.27220  0.01460  Biso   1.000  C
  H44      1.0000 0.07920  0.26940  0.02900  Biso   1.000  H
  C110     1.0000 0.02070  0.23850  0.08140  Biso   1.000  C
  C111     1.0000 0.95470  0.24180  0.05930  Biso   1.000  C
  H45      1.0000 0.94560  0.21990  0.10520  Biso   1.000  H
  C112     1.0000 0.95480  0.40530  0.79920  Biso   1.000  C
  C113     1.0000 0.90140  0.38900  0.70120  Biso   1.000  C
  C114     1.0000 0.85990  0.45510  0.64060  Biso   1.000  C
  H46      1.0000 0.82300  0.44380  0.57380  Biso   1.000  H
  C115     1.0000 0.87160  0.53730  0.67670  Biso   1.000  C
  C116     1.0000 0.92720  0.55280  0.77370  Biso   1.000  C
  H47      1.0000 0.93680  0.60920  0.79860  Biso   1.000  H
  C117     1.0000 0.96860  0.48740  0.83420  Biso   1.000  C
  H48      1.0000 0.00660  0.49910  0.90010  Biso   1.000  H
  C118     1.0000 0.82940  0.27920  0.93920  Biso   1.000  C
  C119     1.0000 0.82440  0.60780  0.61310  Biso   1.000  C
  C120     1.0000 0.07820  0.20190  0.17740  Biso   1.000  C
  N8       1.0000 0.88460  0.30380  0.65820  Biso   1.000  N
  O64      1.0000 0.81220  0.23950  0.98990  Biso   1.000  O
  O65      1.0000 0.78684  0.32100  0.86300  Biso   1.000  O
  O66      1.0000 0.90750  0.24280  0.71370  Biso   1.000  O
  O67      1.0000 0.84830  0.29730  0.56720  Biso   1.000  O
  O68      1.0000 0.77962  0.59090  0.52340  Biso   1.000  O
  O69      1.0000 0.83320  0.67760  0.65610  Biso   1.000  O
  O70      1.0000 0.13704  0.19890  0.19470  Biso   1.000  O
  O71      1.0000 0.06653  0.17600  0.24070  Biso   1.000  O
  O72      1.0000 0.99892  0.34200  0.86410  Biso   1.000  O
