data_image0
_cell_length_a       23.7369
_cell_length_b       15.8216
_cell_length_c       16.289
_cell_angle_alpha    90
_cell_angle_beta     124.054
_cell_angle_gamma    90

_symmetry_space_group_name_H-M    "P 1"
_symmetry_int_tables_number       1

loop_
  _symmetry_equiv_pos_as_xyz
  'x, y, z'

loop_
  _atom_site_label
  _atom_site_occupancy
  _atom_site_fract_x
  _atom_site_fract_y
  _atom_site_fract_z
  _atom_site_thermal_displace_type
  _atom_site_B_iso_or_equiv
  _atom_site_type_symbol
  La1      1.0000 0.18874  0.33044  0.37841  Biso   1.000  La
  C1       1.0000 0.02020  0.26110  0.07910  Biso   1.000  C
  C2       1.0000 0.95470  0.25760  0.05740  Biso   1.000  C
  H1       1.0000 0.94530  0.28020  0.10250  Biso   1.000  H
  C3       1.0000 0.90330  0.22100  0.96940  Biso   1.000  C
  C4       1.0000 0.91730  0.18530  0.90500  Biso   1.000  C
  H2       1.0000 0.88230  0.15890  0.84550  Biso   1.000  H
  C5       1.0000 0.98280  0.18870  0.92860  Biso   1.000  C
  C6       1.0000 0.03470  0.22680  0.01400  Biso   1.000  C
  H3       1.0000 0.07940  0.22970  0.02830  Biso   1.000  H
  C7       1.0000 0.95660  0.09320  0.80130  Biso   1.000  C
  C8       1.0000 0.90310  0.10990  0.70420  Biso   1.000  C
  C9       1.0000 0.86130  0.04490  0.64310  Biso   1.000  C
  H4       1.0000 0.82490  0.05660  0.57670  Biso   1.000  H
  C10      1.0000 0.87270  0.96300  0.67880  Biso   1.000  C
  C11      1.0000 0.92750  0.94630  0.77480  Biso   1.000  C
  H5       1.0000 0.93620  0.89000  0.79920  Biso   1.000  H
  C12      1.0000 0.96940  0.01080  0.83490  Biso   1.000  C
  H6       1.0000 0.00740  0.99850  0.89980  Biso   1.000  H
  C13      1.0000 0.07770  0.29970  0.17520  Biso   1.000  C
  C14      1.0000 0.83090  0.21800  0.93910  Biso   1.000  C
  C15      1.0000 0.82470  0.89330  0.61530  Biso   1.000  C
  N1       1.0000 0.88680  0.19540  0.66250  Biso   1.000  N
  O1       1.0000 0.13566  0.30280  0.19150  Biso   1.000  O
  O2       1.0000 0.06467  0.32590  0.23610  Biso   1.000  O
  O3       1.0000 0.81316  0.25790  0.98870  Biso   1.000  O
  O4       1.0000 0.78893  0.17580  0.86390  Biso   1.000  O
  O5       1.0000 0.91060  0.25600  0.71780  Biso   1.000  O
  O6       1.0000 0.85020  0.20260  0.57180  Biso   1.000  O
  O7       1.0000 0.77990  0.91130  0.52660  Biso   1.000  O
  O8       1.0000 0.83298  0.82360  0.65630  Biso   1.000  O
  O9       1.0000 0.00012  0.15540  0.86580  Biso   1.000  O
  La2      1.0000 0.68874  0.83044  0.37841  Biso   1.000  La
  C16      1.0000 0.52020  0.76110  0.07910  Biso   1.000  C
  C17      1.0000 0.45470  0.75760  0.05740  Biso   1.000  C
  H7       1.0000 0.44530  0.78020  0.10250  Biso   1.000  H
  C18      1.0000 0.40330  0.72100  0.96940  Biso   1.000  C
  C19      1.0000 0.41730  0.68530  0.90500  Biso   1.000  C
  H8       1.0000 0.38230  0.65890  0.84550  Biso   1.000  H
  C20      1.0000 0.48280  0.68870  0.92860  Biso   1.000  C
  C21      1.0000 0.53470  0.72680  0.01400  Biso   1.000  C
  H9       1.0000 0.57940  0.72970  0.02830  Biso   1.000  H
  C22      1.0000 0.45660  0.59320  0.80130  Biso   1.000  C
  C23      1.0000 0.40310  0.60990  0.70420  Biso   1.000  C
  C24      1.0000 0.36130  0.54490  0.64310  Biso   1.000  C
  H10      1.0000 0.32490  0.55660  0.57670  Biso   1.000  H
  C25      1.0000 0.37270  0.46300  0.67880  Biso   1.000  C
  C26      1.0000 0.42750  0.44630  0.77480  Biso   1.000  C
  H11      1.0000 0.43620  0.39000  0.79920  Biso   1.000  H
  C27      1.0000 0.46940  0.51080  0.83490  Biso   1.000  C
  H12      1.0000 0.50740  0.49850  0.89980  Biso   1.000  H
  C28      1.0000 0.57770  0.79970  0.17520  Biso   1.000  C
  C29      1.0000 0.33090  0.71800  0.93910  Biso   1.000  C
  C30      1.0000 0.32470  0.39330  0.61530  Biso   1.000  C
  N2       1.0000 0.38680  0.69540  0.66250  Biso   1.000  N
  O10      1.0000 0.63566  0.80280  0.19150  Biso   1.000  O
  O11      1.0000 0.56467  0.82590  0.23610  Biso   1.000  O
  O12      1.0000 0.31316  0.75790  0.98870  Biso   1.000  O
  O13      1.0000 0.28893  0.67580  0.86390  Biso   1.000  O
  O14      1.0000 0.41060  0.75600  0.71780  Biso   1.000  O
  O15      1.0000 0.35020  0.70260  0.57180  Biso   1.000  O
  O16      1.0000 0.27990  0.41130  0.52660  Biso   1.000  O
  O17      1.0000 0.33298  0.32360  0.65630  Biso   1.000  O
  O18      1.0000 0.50012  0.65540  0.86580  Biso   1.000  O
  La3      1.0000 0.81126  0.33044  0.12159  Biso   1.000  La
  C31      1.0000 0.97980  0.26110  0.42090  Biso   1.000  C
  C32      1.0000 0.04530  0.25760  0.44260  Biso   1.000  C
  H13      1.0000 0.05470  0.28020  0.39750  Biso   1.000  H
  C33      1.0000 0.09670  0.22100  0.53060  Biso   1.000  C
  C34      1.0000 0.08270  0.18530  0.59500  Biso   1.000  C
  H14      1.0000 0.11770  0.15890  0.65450  Biso   1.000  H
  C35      1.0000 0.01720  0.18870  0.57140  Biso   1.000  C
  C36      1.0000 0.96530  0.22680  0.48600  Biso   1.000  C
  H15      1.0000 0.92060  0.22970  0.47170  Biso   1.000  H
  C37      1.0000 0.04340  0.09320  0.69870  Biso   1.000  C
  C38      1.0000 0.09690  0.10990  0.79580  Biso   1.000  C
  C39      1.0000 0.13870  0.04490  0.85690  Biso   1.000  C
  H16      1.0000 0.17510  0.05660  0.92330  Biso   1.000  H
  C40      1.0000 0.12730  0.96300  0.82120  Biso   1.000  C
  C41      1.0000 0.07250  0.94630  0.72520  Biso   1.000  C
  H17      1.0000 0.06380  0.89000  0.70080  Biso   1.000  H
  C42      1.0000 0.03060  0.01080  0.66510  Biso   1.000  C
  H18      1.0000 0.99260  0.99850  0.60020  Biso   1.000  H
  C43      1.0000 0.92230  0.29970  0.32480  Biso   1.000  C
  C44      1.0000 0.16910  0.21800  0.56090  Biso   1.000  C
  C45      1.0000 0.17530  0.89330  0.88470  Biso   1.000  C
  N3       1.0000 0.11320  0.19540  0.83750  Biso   1.000  N
  O19      1.0000 0.86434  0.30280  0.30850  Biso   1.000  O
  O20      1.0000 0.93533  0.32590  0.26390  Biso   1.000  O
  O21      1.0000 0.18684  0.25790  0.51130  Biso   1.000  O
  O22      1.0000 0.21107  0.17580  0.63610  Biso   1.000  O
  O23      1.0000 0.08940  0.25600  0.78220  Biso   1.000  O
  O24      1.0000 0.14980  0.20260  0.92820  Biso   1.000  O
  O25      1.0000 0.22010  0.91130  0.97340  Biso   1.000  O
  O26      1.0000 0.16702  0.82360  0.84370  Biso   1.000  O
  O27      1.0000 0.99988  0.15540  0.63420  Biso   1.000  O
  La4      1.0000 0.31126  0.83044  0.12159  Biso   1.000  La
  C46      1.0000 0.47980  0.76110  0.42090  Biso   1.000  C
  C47      1.0000 0.54530  0.75760  0.44260  Biso   1.000  C
  H19      1.0000 0.55470  0.78020  0.39750  Biso   1.000  H
  C48      1.0000 0.59670  0.72100  0.53060  Biso   1.000  C
  C49      1.0000 0.58270  0.68530  0.59500  Biso   1.000  C
  H20      1.0000 0.61770  0.65890  0.65450  Biso   1.000  H
  C50      1.0000 0.51720  0.68870  0.57140  Biso   1.000  C
  C51      1.0000 0.46530  0.72680  0.48600  Biso   1.000  C
  H21      1.0000 0.42060  0.72970  0.47170  Biso   1.000  H
  C52      1.0000 0.54340  0.59320  0.69870  Biso   1.000  C
  C53      1.0000 0.59690  0.60990  0.79580  Biso   1.000  C
  C54      1.0000 0.63870  0.54490  0.85690  Biso   1.000  C
  H22      1.0000 0.67510  0.55660  0.92330  Biso   1.000  H
  C55      1.0000 0.62730  0.46300  0.82120  Biso   1.000  C
  C56      1.0000 0.57250  0.44630  0.72520  Biso   1.000  C
  H23      1.0000 0.56380  0.39000  0.70080  Biso   1.000  H
  C57      1.0000 0.53060  0.51080  0.66510  Biso   1.000  C
  H24      1.0000 0.49260  0.49850  0.60020  Biso   1.000  H
  C58      1.0000 0.42230  0.79970  0.32480  Biso   1.000  C
  C59      1.0000 0.66910  0.71800  0.56090  Biso   1.000  C
  C60      1.0000 0.67530  0.39330  0.88470  Biso   1.000  C
  N4       1.0000 0.61320  0.69540  0.83750  Biso   1.000  N
  O28      1.0000 0.36434  0.80280  0.30850  Biso   1.000  O
  O29      1.0000 0.43533  0.82590  0.26390  Biso   1.000  O
  O30      1.0000 0.68684  0.75790  0.51130  Biso   1.000  O
  O31      1.0000 0.71107  0.67580  0.63610  Biso   1.000  O
  O32      1.0000 0.58940  0.75600  0.78220  Biso   1.000  O
  O33      1.0000 0.64980  0.70260  0.92820  Biso   1.000  O
  O34      1.0000 0.72010  0.41130  0.97340  Biso   1.000  O
  O35      1.0000 0.66702  0.32360  0.84370  Biso   1.000  O
  O36      1.0000 0.49988  0.65540  0.63420  Biso   1.000  O
  La5      1.0000 0.81126  0.66956  0.62159  Biso   1.000  La
  C61      1.0000 0.97980  0.73890  0.92090  Biso   1.000  C
  C62      1.0000 0.04530  0.74240  0.94260  Biso   1.000  C
  H25      1.0000 0.05470  0.71980  0.89750  Biso   1.000  H
  C63      1.0000 0.09670  0.77900  0.03060  Biso   1.000  C
  C64      1.0000 0.08270  0.81470  0.09500  Biso   1.000  C
  H26      1.0000 0.11770  0.84110  0.15450  Biso   1.000  H
  C65      1.0000 0.01720  0.81130  0.07140  Biso   1.000  C
  C66      1.0000 0.96530  0.77320  0.98600  Biso   1.000  C
  H27      1.0000 0.92060  0.77030  0.97170  Biso   1.000  H
  C67      1.0000 0.04340  0.90680  0.19870  Biso   1.000  C
  C68      1.0000 0.09690  0.89010  0.29580  Biso   1.000  C
  C69      1.0000 0.13870  0.95510  0.35690  Biso   1.000  C
  H28      1.0000 0.17510  0.94340  0.42330  Biso   1.000  H
  C70      1.0000 0.12730  0.03700  0.32120  Biso   1.000  C
  C71      1.0000 0.07250  0.05370  0.22520  Biso   1.000  C
  H29      1.0000 0.06380  0.11000  0.20080  Biso   1.000  H
  C72      1.0000 0.03060  0.98920  0.16510  Biso   1.000  C
  H30      1.0000 0.99260  0.00150  0.10020  Biso   1.000  H
  C73      1.0000 0.92230  0.70030  0.82480  Biso   1.000  C
  C74      1.0000 0.16910  0.78200  0.06090  Biso   1.000  C
  C75      1.0000 0.17530  0.10670  0.38470  Biso   1.000  C
  N5       1.0000 0.11320  0.80460  0.33750  Biso   1.000  N
  O37      1.0000 0.86434  0.69720  0.80850  Biso   1.000  O
  O38      1.0000 0.93533  0.67410  0.76390  Biso   1.000  O
  O39      1.0000 0.18684  0.74210  0.01130  Biso   1.000  O
  O40      1.0000 0.21107  0.82420  0.13610  Biso   1.000  O
  O41      1.0000 0.08940  0.74400  0.28220  Biso   1.000  O
  O42      1.0000 0.14980  0.79740  0.42820  Biso   1.000  O
  O43      1.0000 0.22010  0.08870  0.47340  Biso   1.000  O
  O44      1.0000 0.16702  0.17640  0.34370  Biso   1.000  O
  O45      1.0000 0.99988  0.84460  0.13420  Biso   1.000  O
  La6      1.0000 0.31126  0.16956  0.62159  Biso   1.000  La
  C76      1.0000 0.47980  0.23890  0.92090  Biso   1.000  C
  C77      1.0000 0.54530  0.24240  0.94260  Biso   1.000  C
  H31      1.0000 0.55470  0.21980  0.89750  Biso   1.000  H
  C78      1.0000 0.59670  0.27900  0.03060  Biso   1.000  C
  C79      1.0000 0.58270  0.31470  0.09500  Biso   1.000  C
  H32      1.0000 0.61770  0.34110  0.15450  Biso   1.000  H
  C80      1.0000 0.51720  0.31130  0.07140  Biso   1.000  C
  C81      1.0000 0.46530  0.27320  0.98600  Biso   1.000  C
  H33      1.0000 0.42060  0.27030  0.97170  Biso   1.000  H
  C82      1.0000 0.54340  0.40680  0.19870  Biso   1.000  C
  C83      1.0000 0.59690  0.39010  0.29580  Biso   1.000  C
  C84      1.0000 0.63870  0.45510  0.35690  Biso   1.000  C
  H34      1.0000 0.67510  0.44340  0.42330  Biso   1.000  H
  C85      1.0000 0.62730  0.53700  0.32120  Biso   1.000  C
  C86      1.0000 0.57250  0.55370  0.22520  Biso   1.000  C
  H35      1.0000 0.56380  0.61000  0.20080  Biso   1.000  H
  C87      1.0000 0.53060  0.48920  0.16510  Biso   1.000  C
  H36      1.0000 0.49260  0.50150  0.10020  Biso   1.000  H
  C88      1.0000 0.42230  0.20030  0.82480  Biso   1.000  C
  C89      1.0000 0.66910  0.28200  0.06090  Biso   1.000  C
  C90      1.0000 0.67530  0.60670  0.38470  Biso   1.000  C
  N6       1.0000 0.61320  0.30460  0.33750  Biso   1.000  N
  O46      1.0000 0.36434  0.19720  0.80850  Biso   1.000  O
  O47      1.0000 0.43533  0.17410  0.76390  Biso   1.000  O
  O48      1.0000 0.68684  0.24210  0.01130  Biso   1.000  O
  O49      1.0000 0.71107  0.32420  0.13610  Biso   1.000  O
  O50      1.0000 0.58940  0.24400  0.28220  Biso   1.000  O
  O51      1.0000 0.64980  0.29740  0.42820  Biso   1.000  O
  O52      1.0000 0.72010  0.58870  0.47340  Biso   1.000  O
  O53      1.0000 0.66702  0.67640  0.34370  Biso   1.000  O
  O54      1.0000 0.49988  0.34460  0.13420  Biso   1.000  O
  La7      1.0000 0.18874  0.66956  0.87841  Biso   1.000  La
  C91      1.0000 0.02020  0.73890  0.57910  Biso   1.000  C
  C92      1.0000 0.95470  0.74240  0.55740  Biso   1.000  C
  H37      1.0000 0.94530  0.71980  0.60250  Biso   1.000  H
  C93      1.0000 0.90330  0.77900  0.46940  Biso   1.000  C
  C94      1.0000 0.91730  0.81470  0.40500  Biso   1.000  C
  H38      1.0000 0.88230  0.84110  0.34550  Biso   1.000  H
  C95      1.0000 0.98280  0.81130  0.42860  Biso   1.000  C
  C96      1.0000 0.03470  0.77320  0.51400  Biso   1.000  C
  H39      1.0000 0.07940  0.77030  0.52830  Biso   1.000  H
  C97      1.0000 0.95660  0.90680  0.30130  Biso   1.000  C
  C98      1.0000 0.90310  0.89010  0.20420  Biso   1.000  C
  C99      1.0000 0.86130  0.95510  0.14310  Biso   1.000  C
  H40      1.0000 0.82490  0.94340  0.07670  Biso   1.000  H
  C100     1.0000 0.87270  0.03700  0.17880  Biso   1.000  C
  C101     1.0000 0.92750  0.05370  0.27480  Biso   1.000  C
  H41      1.0000 0.93620  0.11000  0.29920  Biso   1.000  H
  C102     1.0000 0.96940  0.98920  0.33490  Biso   1.000  C
  H42      1.0000 0.00740  0.00150  0.39980  Biso   1.000  H
  C103     1.0000 0.07770  0.70030  0.67520  Biso   1.000  C
  C104     1.0000 0.83090  0.78200  0.43910  Biso   1.000  C
  C105     1.0000 0.82470  0.10670  0.11530  Biso   1.000  C
  N7       1.0000 0.88680  0.80460  0.16250  Biso   1.000  N
  O55      1.0000 0.13566  0.69720  0.69150  Biso   1.000  O
  O56      1.0000 0.06467  0.67410  0.73610  Biso   1.000  O
  O57      1.0000 0.81316  0.74210  0.48870  Biso   1.000  O
  O58      1.0000 0.78893  0.82420  0.36390  Biso   1.000  O
  O59      1.0000 0.91060  0.74400  0.21780  Biso   1.000  O
  O60      1.0000 0.85020  0.79740  0.07180  Biso   1.000  O
  O61      1.0000 0.77990  0.08870  0.02660  Biso   1.000  O
  O62      1.0000 0.83298  0.17640  0.15630  Biso   1.000  O
  O63      1.0000 0.00012  0.84460  0.36580  Biso   1.000  O
  La8      1.0000 0.68874  0.16956  0.87841  Biso   1.000  La
  C106     1.0000 0.52020  0.23890  0.57910  Biso   1.000  C
  C107     1.0000 0.45470  0.24240  0.55740  Biso   1.000  C
  H43      1.0000 0.44530  0.21980  0.60250  Biso   1.000  H
  C108     1.0000 0.40330  0.27900  0.46940  Biso   1.000  C
  C109     1.0000 0.41730  0.31470  0.40500  Biso   1.000  C
  H44      1.0000 0.38230  0.34110  0.34550  Biso   1.000  H
  C110     1.0000 0.48280  0.31130  0.42860  Biso   1.000  C
  C111     1.0000 0.53470  0.27320  0.51400  Biso   1.000  C
  H45      1.0000 0.57940  0.27030  0.52830  Biso   1.000  H
  C112     1.0000 0.45660  0.40680  0.30130  Biso   1.000  C
  C113     1.0000 0.40310  0.39010  0.20420  Biso   1.000  C
  C114     1.0000 0.36130  0.45510  0.14310  Biso   1.000  C
  H46      1.0000 0.32490  0.44340  0.07670  Biso   1.000  H
  C115     1.0000 0.37270  0.53700  0.17880  Biso   1.000  C
  C116     1.0000 0.42750  0.55370  0.27480  Biso   1.000  C
  H47      1.0000 0.43620  0.61000  0.29920  Biso   1.000  H
  C117     1.0000 0.46940  0.48920  0.33490  Biso   1.000  C
  H48      1.0000 0.50740  0.50150  0.39980  Biso   1.000  H
  C118     1.0000 0.57770  0.20030  0.67520  Biso   1.000  C
  C119     1.0000 0.33090  0.28200  0.43910  Biso   1.000  C
  C120     1.0000 0.32470  0.60670  0.11530  Biso   1.000  C
  N8       1.0000 0.38680  0.30460  0.16250  Biso   1.000  N
  O64      1.0000 0.63566  0.19720  0.69150  Biso   1.000  O
  O65      1.0000 0.56467  0.17410  0.73610  Biso   1.000  O
  O66      1.0000 0.31316  0.24210  0.48870  Biso   1.000  O
  O67      1.0000 0.28893  0.32420  0.36390  Biso   1.000  O
  O68      1.0000 0.41060  0.24400  0.21780  Biso   1.000  O
  O69      1.0000 0.35020  0.29740  0.07180  Biso   1.000  O
  O70      1.0000 0.27990  0.58870  0.02660  Biso   1.000  O
  O71      1.0000 0.33298  0.67640  0.15630  Biso   1.000  O
  O72      1.0000 0.50012  0.34460  0.36580  Biso   1.000  O
