data_image0
_cell_length_a       23.5619
_cell_length_b       15.6714
_cell_length_c       16.1158
_cell_angle_alpha    90
_cell_angle_beta     124.238
_cell_angle_gamma    90

_symmetry_space_group_name_H-M    "P 1"
_symmetry_int_tables_number       1

loop_
  _symmetry_equiv_pos_as_xyz
  'x, y, z'

loop_
  _atom_site_label
  _atom_site_occupancy
  _atom_site_fract_x
  _atom_site_fract_y
  _atom_site_fract_z
  _atom_site_thermal_displace_type
  _atom_site_B_iso_or_equiv
  _atom_site_type_symbol
  Gd1      1.0000 0.68970  0.67213  0.87776  Biso   1.000  Gd
  C1       1.0000 0.40250  0.77590  0.47110  Biso   1.000  C
  C2       1.0000 0.45560  0.74140  0.56120  Biso   1.000  C
  H1       1.0000 0.44700  0.71970  0.60820  Biso   1.000  H
  C3       1.0000 0.52150  0.73870  0.58230  Biso   1.000  C
  C4       1.0000 0.53430  0.77230  0.51420  Biso   1.000  C
  H2       1.0000 0.57920  0.77010  0.52810  Biso   1.000  H
  C5       1.0000 0.48140  0.80870  0.42670  Biso   1.000  C
  C6       1.0000 0.41520  0.81080  0.40410  Biso   1.000  C
  H3       1.0000 0.37900  0.83600  0.34340  Biso   1.000  H
  C7       1.0000 0.45360  0.90530  0.29790  Biso   1.000  C
  C8       1.0000 0.39920  0.88960  0.19910  Biso   1.000  C
  C9       1.0000 0.35770  0.95560  0.13810  Biso   1.000  C
  H4       1.0000 0.32110  0.94430  0.07070  Biso   1.000  H
  C10      1.0000 0.36930  0.03830  0.17480  Biso   1.000  C
  C11      1.0000 0.42480  0.05400  0.27250  Biso   1.000  C
  H5       1.0000 0.43400  0.11060  0.29800  Biso   1.000  H
  C12      1.0000 0.46670  0.98780  0.33300  Biso   1.000  C
  H6       1.0000 0.50480  0.99950  0.39930  Biso   1.000  H
  C13      1.0000 0.32970  0.77660  0.44210  Biso   1.000  C
  C14      1.0000 0.58000  0.70300  0.67950  Biso   1.000  C
  C15      1.0000 0.32150  0.10940  0.11100  Biso   1.000  C
  N1       1.0000 0.38320  0.80380  0.15620  Biso   1.000  N
  O1       1.0000 0.28590  0.81640  0.36470  Biso   1.000  O
  O2       1.0000 0.31456  0.73732  0.49550  Biso   1.000  O
  O3       1.0000 0.56901  0.67856  0.74440  Biso   1.000  O
  O4       1.0000 0.63855  0.69990  0.69590  Biso   1.000  O
  O5       1.0000 0.40560  0.74240  0.21200  Biso   1.000  O
  O6       1.0000 0.34740  0.79740  0.06420  Biso   1.000  O
  O7       1.0000 0.27821  0.09352  0.01960  Biso   1.000  O
  O8       1.0000 0.32951  0.17843  0.15490  Biso   1.000  O
  O9       1.0000 0.49758  0.84220  0.36260  Biso   1.000  O
  Gd2      1.0000 0.18970  0.17213  0.87776  Biso   1.000  Gd
  C16      1.0000 0.90250  0.27590  0.47110  Biso   1.000  C
  C17      1.0000 0.95560  0.24140  0.56120  Biso   1.000  C
  H7       1.0000 0.94700  0.21970  0.60820  Biso   1.000  H
  C18      1.0000 0.02150  0.23870  0.58230  Biso   1.000  C
  C19      1.0000 0.03430  0.27230  0.51420  Biso   1.000  C
  H8       1.0000 0.07920  0.27010  0.52810  Biso   1.000  H
  C20      1.0000 0.98140  0.30870  0.42670  Biso   1.000  C
  C21      1.0000 0.91520  0.31080  0.40410  Biso   1.000  C
  H9       1.0000 0.87900  0.33600  0.34340  Biso   1.000  H
  C22      1.0000 0.95360  0.40530  0.29790  Biso   1.000  C
  C23      1.0000 0.89920  0.38960  0.19910  Biso   1.000  C
  C24      1.0000 0.85770  0.45560  0.13810  Biso   1.000  C
  H10      1.0000 0.82110  0.44430  0.07070  Biso   1.000  H
  C25      1.0000 0.86930  0.53830  0.17480  Biso   1.000  C
  C26      1.0000 0.92480  0.55400  0.27250  Biso   1.000  C
  H11      1.0000 0.93400  0.61060  0.29800  Biso   1.000  H
  C27      1.0000 0.96670  0.48780  0.33300  Biso   1.000  C
  H12      1.0000 0.00480  0.49950  0.39930  Biso   1.000  H
  C28      1.0000 0.82970  0.27660  0.44210  Biso   1.000  C
  C29      1.0000 0.08000  0.20300  0.67950  Biso   1.000  C
  C30      1.0000 0.82150  0.60940  0.11100  Biso   1.000  C
  N2       1.0000 0.88320  0.30380  0.15620  Biso   1.000  N
  O10      1.0000 0.78590  0.31640  0.36470  Biso   1.000  O
  O11      1.0000 0.81456  0.23732  0.49550  Biso   1.000  O
  O12      1.0000 0.06901  0.17856  0.74440  Biso   1.000  O
  O13      1.0000 0.13855  0.19990  0.69590  Biso   1.000  O
  O14      1.0000 0.90560  0.24240  0.21200  Biso   1.000  O
  O15      1.0000 0.84740  0.29740  0.06420  Biso   1.000  O
  O16      1.0000 0.77821  0.59352  0.01960  Biso   1.000  O
  O17      1.0000 0.82951  0.67843  0.15490  Biso   1.000  O
  O18      1.0000 0.99758  0.34220  0.36260  Biso   1.000  O
  Gd3      1.0000 0.31030  0.67213  0.62224  Biso   1.000  Gd
  C31      1.0000 0.59750  0.77590  0.02890  Biso   1.000  C
  C32      1.0000 0.54440  0.74140  0.93880  Biso   1.000  C
  H13      1.0000 0.55300  0.71970  0.89180  Biso   1.000  H
  C33      1.0000 0.47850  0.73870  0.91770  Biso   1.000  C
  C34      1.0000 0.46570  0.77230  0.98580  Biso   1.000  C
  H14      1.0000 0.42080  0.77010  0.97190  Biso   1.000  H
  C35      1.0000 0.51860  0.80870  0.07330  Biso   1.000  C
  C36      1.0000 0.58480  0.81080  0.09590  Biso   1.000  C
  H15      1.0000 0.62100  0.83600  0.15660  Biso   1.000  H
  C37      1.0000 0.54640  0.90530  0.20210  Biso   1.000  C
  C38      1.0000 0.60080  0.88960  0.30090  Biso   1.000  C
  C39      1.0000 0.64230  0.95560  0.36190  Biso   1.000  C
  H16      1.0000 0.67890  0.94430  0.42930  Biso   1.000  H
  C40      1.0000 0.63070  0.03830  0.32520  Biso   1.000  C
  C41      1.0000 0.57520  0.05400  0.22750  Biso   1.000  C
  H17      1.0000 0.56600  0.11060  0.20200  Biso   1.000  H
  C42      1.0000 0.53330  0.98780  0.16700  Biso   1.000  C
  H18      1.0000 0.49520  0.99950  0.10070  Biso   1.000  H
  C43      1.0000 0.67030  0.77660  0.05790  Biso   1.000  C
  C44      1.0000 0.42000  0.70300  0.82050  Biso   1.000  C
  C45      1.0000 0.67850  0.10940  0.38900  Biso   1.000  C
  N3       1.0000 0.61680  0.80380  0.34380  Biso   1.000  N
  O19      1.0000 0.71410  0.81640  0.13530  Biso   1.000  O
  O20      1.0000 0.68544  0.73732  0.00450  Biso   1.000  O
  O21      1.0000 0.43099  0.67856  0.75560  Biso   1.000  O
  O22      1.0000 0.36145  0.69990  0.80410  Biso   1.000  O
  O23      1.0000 0.59440  0.74240  0.28800  Biso   1.000  O
  O24      1.0000 0.65260  0.79740  0.43580  Biso   1.000  O
  O25      1.0000 0.72179  0.09352  0.48040  Biso   1.000  O
  O26      1.0000 0.67049  0.17843  0.34510  Biso   1.000  O
  O27      1.0000 0.50242  0.84220  0.13740  Biso   1.000  O
  Gd4      1.0000 0.81030  0.17213  0.62224  Biso   1.000  Gd
  C46      1.0000 0.09750  0.27590  0.02890  Biso   1.000  C
  C47      1.0000 0.04440  0.24140  0.93880  Biso   1.000  C
  H19      1.0000 0.05300  0.21970  0.89180  Biso   1.000  H
  C48      1.0000 0.97850  0.23870  0.91770  Biso   1.000  C
  C49      1.0000 0.96570  0.27230  0.98580  Biso   1.000  C
  H20      1.0000 0.92080  0.27010  0.97190  Biso   1.000  H
  C50      1.0000 0.01860  0.30870  0.07330  Biso   1.000  C
  C51      1.0000 0.08480  0.31080  0.09590  Biso   1.000  C
  H21      1.0000 0.12100  0.33600  0.15660  Biso   1.000  H
  C52      1.0000 0.04640  0.40530  0.20210  Biso   1.000  C
  C53      1.0000 0.10080  0.38960  0.30090  Biso   1.000  C
  C54      1.0000 0.14230  0.45560  0.36190  Biso   1.000  C
  H22      1.0000 0.17890  0.44430  0.42930  Biso   1.000  H
  C55      1.0000 0.13070  0.53830  0.32520  Biso   1.000  C
  C56      1.0000 0.07520  0.55400  0.22750  Biso   1.000  C
  H23      1.0000 0.06600  0.61060  0.20200  Biso   1.000  H
  C57      1.0000 0.03330  0.48780  0.16700  Biso   1.000  C
  H24      1.0000 0.99520  0.49950  0.10070  Biso   1.000  H
  C58      1.0000 0.17030  0.27660  0.05790  Biso   1.000  C
  C59      1.0000 0.92000  0.20300  0.82050  Biso   1.000  C
  C60      1.0000 0.17850  0.60940  0.38900  Biso   1.000  C
  N4       1.0000 0.11680  0.30380  0.34380  Biso   1.000  N
  O28      1.0000 0.21410  0.31640  0.13530  Biso   1.000  O
  O29      1.0000 0.18544  0.23732  0.00450  Biso   1.000  O
  O30      1.0000 0.93099  0.17856  0.75560  Biso   1.000  O
  O31      1.0000 0.86145  0.19990  0.80410  Biso   1.000  O
  O32      1.0000 0.09440  0.24240  0.28800  Biso   1.000  O
  O33      1.0000 0.15260  0.29740  0.43580  Biso   1.000  O
  O34      1.0000 0.22179  0.59352  0.48040  Biso   1.000  O
  O35      1.0000 0.17049  0.67843  0.34510  Biso   1.000  O
  O36      1.0000 0.00242  0.34220  0.13740  Biso   1.000  O
  Gd5      1.0000 0.31030  0.32787  0.12224  Biso   1.000  Gd
  C61      1.0000 0.59750  0.22410  0.52890  Biso   1.000  C
  C62      1.0000 0.54440  0.25860  0.43880  Biso   1.000  C
  H25      1.0000 0.55300  0.28030  0.39180  Biso   1.000  H
  C63      1.0000 0.47850  0.26130  0.41770  Biso   1.000  C
  C64      1.0000 0.46570  0.22770  0.48580  Biso   1.000  C
  H26      1.0000 0.42080  0.22990  0.47190  Biso   1.000  H
  C65      1.0000 0.51860  0.19130  0.57330  Biso   1.000  C
  C66      1.0000 0.58480  0.18920  0.59590  Biso   1.000  C
  H27      1.0000 0.62100  0.16400  0.65660  Biso   1.000  H
  C67      1.0000 0.54640  0.09470  0.70210  Biso   1.000  C
  C68      1.0000 0.60080  0.11040  0.80090  Biso   1.000  C
  C69      1.0000 0.64230  0.04440  0.86190  Biso   1.000  C
  H28      1.0000 0.67890  0.05570  0.92930  Biso   1.000  H
  C70      1.0000 0.63070  0.96170  0.82520  Biso   1.000  C
  C71      1.0000 0.57520  0.94600  0.72750  Biso   1.000  C
  H29      1.0000 0.56600  0.88940  0.70200  Biso   1.000  H
  C72      1.0000 0.53330  0.01220  0.66700  Biso   1.000  C
  H30      1.0000 0.49520  0.00050  0.60070  Biso   1.000  H
  C73      1.0000 0.67030  0.22340  0.55790  Biso   1.000  C
  C74      1.0000 0.42000  0.29700  0.32050  Biso   1.000  C
  C75      1.0000 0.67850  0.89060  0.88900  Biso   1.000  C
  N5       1.0000 0.61680  0.19620  0.84380  Biso   1.000  N
  O37      1.0000 0.71410  0.18360  0.63530  Biso   1.000  O
  O38      1.0000 0.68544  0.26268  0.50450  Biso   1.000  O
  O39      1.0000 0.43099  0.32144  0.25560  Biso   1.000  O
  O40      1.0000 0.36145  0.30010  0.30410  Biso   1.000  O
  O41      1.0000 0.59440  0.25760  0.78800  Biso   1.000  O
  O42      1.0000 0.65260  0.20260  0.93580  Biso   1.000  O
  O43      1.0000 0.72179  0.90648  0.98040  Biso   1.000  O
  O44      1.0000 0.67049  0.82157  0.84510  Biso   1.000  O
  O45      1.0000 0.50242  0.15780  0.63740  Biso   1.000  O
  Gd6      1.0000 0.81030  0.82787  0.12224  Biso   1.000  Gd
  C76      1.0000 0.09750  0.72410  0.52890  Biso   1.000  C
  C77      1.0000 0.04440  0.75860  0.43880  Biso   1.000  C
  H31      1.0000 0.05300  0.78030  0.39180  Biso   1.000  H
  C78      1.0000 0.97850  0.76130  0.41770  Biso   1.000  C
  C79      1.0000 0.96570  0.72770  0.48580  Biso   1.000  C
  H32      1.0000 0.92080  0.72990  0.47190  Biso   1.000  H
  C80      1.0000 0.01860  0.69130  0.57330  Biso   1.000  C
  C81      1.0000 0.08480  0.68920  0.59590  Biso   1.000  C
  H33      1.0000 0.12100  0.66400  0.65660  Biso   1.000  H
  C82      1.0000 0.04640  0.59470  0.70210  Biso   1.000  C
  C83      1.0000 0.10080  0.61040  0.80090  Biso   1.000  C
  C84      1.0000 0.14230  0.54440  0.86190  Biso   1.000  C
  H34      1.0000 0.17890  0.55570  0.92930  Biso   1.000  H
  C85      1.0000 0.13070  0.46170  0.82520  Biso   1.000  C
  C86      1.0000 0.07520  0.44600  0.72750  Biso   1.000  C
  H35      1.0000 0.06600  0.38940  0.70200  Biso   1.000  H
  C87      1.0000 0.03330  0.51220  0.66700  Biso   1.000  C
  H36      1.0000 0.99520  0.50050  0.60070  Biso   1.000  H
  C88      1.0000 0.17030  0.72340  0.55790  Biso   1.000  C
  C89      1.0000 0.92000  0.79700  0.32050  Biso   1.000  C
  C90      1.0000 0.17850  0.39060  0.88900  Biso   1.000  C
  N6       1.0000 0.11680  0.69620  0.84380  Biso   1.000  N
  O46      1.0000 0.21410  0.68360  0.63530  Biso   1.000  O
  O47      1.0000 0.18544  0.76268  0.50450  Biso   1.000  O
  O48      1.0000 0.93099  0.82144  0.25560  Biso   1.000  O
  O49      1.0000 0.86145  0.80010  0.30410  Biso   1.000  O
  O50      1.0000 0.09440  0.75760  0.78800  Biso   1.000  O
  O51      1.0000 0.15260  0.70260  0.93580  Biso   1.000  O
  O52      1.0000 0.22179  0.40648  0.98040  Biso   1.000  O
  O53      1.0000 0.17049  0.32157  0.84510  Biso   1.000  O
  O54      1.0000 0.00242  0.65780  0.63740  Biso   1.000  O
  Gd7      1.0000 0.68970  0.32787  0.37776  Biso   1.000  Gd
  C91      1.0000 0.40250  0.22410  0.97110  Biso   1.000  C
  C92      1.0000 0.45560  0.25860  0.06120  Biso   1.000  C
  H37      1.0000 0.44700  0.28030  0.10820  Biso   1.000  H
  C93      1.0000 0.52150  0.26130  0.08230  Biso   1.000  C
  C94      1.0000 0.53430  0.22770  0.01420  Biso   1.000  C
  H38      1.0000 0.57920  0.22990  0.02810  Biso   1.000  H
  C95      1.0000 0.48140  0.19130  0.92670  Biso   1.000  C
  C96      1.0000 0.41520  0.18920  0.90410  Biso   1.000  C
  H39      1.0000 0.37900  0.16400  0.84340  Biso   1.000  H
  C97      1.0000 0.45360  0.09470  0.79790  Biso   1.000  C
  C98      1.0000 0.39920  0.11040  0.69910  Biso   1.000  C
  C99      1.0000 0.35770  0.04440  0.63810  Biso   1.000  C
  H40      1.0000 0.32110  0.05570  0.57070  Biso   1.000  H
  C100     1.0000 0.36930  0.96170  0.67480  Biso   1.000  C
  C101     1.0000 0.42480  0.94600  0.77250  Biso   1.000  C
  H41      1.0000 0.43400  0.88940  0.79800  Biso   1.000  H
  C102     1.0000 0.46670  0.01220  0.83300  Biso   1.000  C
  H42      1.0000 0.50480  0.00050  0.89930  Biso   1.000  H
  C103     1.0000 0.32970  0.22340  0.94210  Biso   1.000  C
  C104     1.0000 0.58000  0.29700  0.17950  Biso   1.000  C
  C105     1.0000 0.32150  0.89060  0.61100  Biso   1.000  C
  N7       1.0000 0.38320  0.19620  0.65620  Biso   1.000  N
  O55      1.0000 0.28590  0.18360  0.86470  Biso   1.000  O
  O56      1.0000 0.31456  0.26268  0.99550  Biso   1.000  O
  O57      1.0000 0.56901  0.32144  0.24440  Biso   1.000  O
  O58      1.0000 0.63855  0.30010  0.19590  Biso   1.000  O
  O59      1.0000 0.40560  0.25760  0.71200  Biso   1.000  O
  O60      1.0000 0.34740  0.20260  0.56420  Biso   1.000  O
  O61      1.0000 0.27821  0.90648  0.51960  Biso   1.000  O
  O62      1.0000 0.32951  0.82157  0.65490  Biso   1.000  O
  O63      1.0000 0.49758  0.15780  0.86260  Biso   1.000  O
  Gd8      1.0000 0.18970  0.82787  0.37776  Biso   1.000  Gd
  C106     1.0000 0.90250  0.72410  0.97110  Biso   1.000  C
  C107     1.0000 0.95560  0.75860  0.06120  Biso   1.000  C
  H43      1.0000 0.94700  0.78030  0.10820  Biso   1.000  H
  C108     1.0000 0.02150  0.76130  0.08230  Biso   1.000  C
  C109     1.0000 0.03430  0.72770  0.01420  Biso   1.000  C
  H44      1.0000 0.07920  0.72990  0.02810  Biso   1.000  H
  C110     1.0000 0.98140  0.69130  0.92670  Biso   1.000  C
  C111     1.0000 0.91520  0.68920  0.90410  Biso   1.000  C
  H45      1.0000 0.87900  0.66400  0.84340  Biso   1.000  H
  C112     1.0000 0.95360  0.59470  0.79790  Biso   1.000  C
  C113     1.0000 0.89920  0.61040  0.69910  Biso   1.000  C
  C114     1.0000 0.85770  0.54440  0.63810  Biso   1.000  C
  H46      1.0000 0.82110  0.55570  0.57070  Biso   1.000  H
  C115     1.0000 0.86930  0.46170  0.67480  Biso   1.000  C
  C116     1.0000 0.92480  0.44600  0.77250  Biso   1.000  C
  H47      1.0000 0.93400  0.38940  0.79800  Biso   1.000  H
  C117     1.0000 0.96670  0.51220  0.83300  Biso   1.000  C
  H48      1.0000 0.00480  0.50050  0.89930  Biso   1.000  H
  C118     1.0000 0.82970  0.72340  0.94210  Biso   1.000  C
  C119     1.0000 0.08000  0.79700  0.17950  Biso   1.000  C
  C120     1.0000 0.82150  0.39060  0.61100  Biso   1.000  C
  N8       1.0000 0.88320  0.69620  0.65620  Biso   1.000  N
  O64      1.0000 0.78590  0.68360  0.86470  Biso   1.000  O
  O65      1.0000 0.81456  0.76268  0.99550  Biso   1.000  O
  O66      1.0000 0.06901  0.82144  0.24440  Biso   1.000  O
  O67      1.0000 0.13855  0.80010  0.19590  Biso   1.000  O
  O68      1.0000 0.90560  0.75760  0.71200  Biso   1.000  O
  O69      1.0000 0.84740  0.70260  0.56420  Biso   1.000  O
  O70      1.0000 0.77821  0.40648  0.51960  Biso   1.000  O
  O71      1.0000 0.82951  0.32157  0.65490  Biso   1.000  O
  O72      1.0000 0.99758  0.65780  0.86260  Biso   1.000  O
