data_image0
_cell_length_a       23.6108
_cell_length_b       15.7288
_cell_length_c       16.1612
_cell_angle_alpha    90
_cell_angle_beta     124.291
_cell_angle_gamma    90

_symmetry_space_group_name_H-M    "P 1"
_symmetry_int_tables_number       1

loop_
  _symmetry_equiv_pos_as_xyz
  'x, y, z'

loop_
  _atom_site_label
  _atom_site_occupancy
  _atom_site_fract_x
  _atom_site_fract_y
  _atom_site_fract_z
  _atom_site_thermal_displace_type
  _atom_site_B_iso_or_equiv
  _atom_site_type_symbol
  Sm1      1.0000 0.81046  0.82814  0.12169  Biso   1.000  Sm
  C1       1.0000 0.09830  0.72340  0.53030  Biso   1.000  C
  C2       1.0000 0.08440  0.68840  0.59640  Biso   1.000  C
  H1       1.0000 0.12010  0.66260  0.65690  Biso   1.000  H
  C3       1.0000 0.01870  0.69120  0.57350  Biso   1.000  C
  C4       1.0000 0.96570  0.72770  0.48570  Biso   1.000  C
  H2       1.0000 0.92080  0.72970  0.47130  Biso   1.000  H
  C5       1.0000 0.97900  0.76160  0.41820  Biso   1.000  C
  C6       1.0000 0.04490  0.75810  0.43950  Biso   1.000  C
  H3       1.0000 0.05350  0.77920  0.39260  Biso   1.000  H
  C7       1.0000 0.04560  0.59520  0.70180  Biso   1.000  C
  C8       1.0000 0.09990  0.61020  0.80010  Biso   1.000  C
  C9       1.0000 0.14090  0.54460  0.86040  Biso   1.000  C
  H4       1.0000 0.17750  0.55580  0.92780  Biso   1.000  H
  C10      1.0000 0.12930  0.46270  0.82390  Biso   1.000  C
  C11      1.0000 0.07390  0.44680  0.72670  Biso   1.000  C
  H5       1.0000 0.06460  0.39040  0.70150  Biso   1.000  H
  C12      1.0000 0.03200  0.51270  0.66620  Biso   1.000  C
  H6       1.0000 0.99390  0.50110  0.60000  Biso   1.000  H
  C13      1.0000 0.17050  0.72230  0.55900  Biso   1.000  C
  C14      1.0000 0.17710  0.39090  0.88770  Biso   1.000  C
  C15      1.0000 0.92080  0.79770  0.32100  Biso   1.000  C
  N1       1.0000 0.11610  0.69590  0.84330  Biso   1.000  N
  O1       1.0000 0.18694  0.76150  0.50780  Biso   1.000  O
  O2       1.0000 0.21358  0.68160  0.63640  Biso   1.000  O
  O3       1.0000 0.09370  0.75720  0.78760  Biso   1.000  O
  O4       1.0000 0.15240  0.70220  0.93440  Biso   1.000  O
  O5       1.0000 0.22096  0.40770  0.97890  Biso   1.000  O
  O6       1.0000 0.16829  0.32210  0.84420  Biso   1.000  O
  O7       1.0000 0.86215  0.80050  0.30460  Biso   1.000  O
  O8       1.0000 0.93235  0.82270  0.25750  Biso   1.000  O
  O9       1.0000 0.00225  0.65840  0.63690  Biso   1.000  O
  Sm2      1.0000 0.31046  0.32814  0.12169  Biso   1.000  Sm
  C16      1.0000 0.59830  0.22340  0.53030  Biso   1.000  C
  C17      1.0000 0.58440  0.18840  0.59640  Biso   1.000  C
  H7       1.0000 0.62010  0.16260  0.65690  Biso   1.000  H
  C18      1.0000 0.51870  0.19120  0.57350  Biso   1.000  C
  C19      1.0000 0.46570  0.22770  0.48570  Biso   1.000  C
  H8       1.0000 0.42080  0.22970  0.47130  Biso   1.000  H
  C20      1.0000 0.47900  0.26160  0.41820  Biso   1.000  C
  C21      1.0000 0.54490  0.25810  0.43950  Biso   1.000  C
  H9       1.0000 0.55350  0.27920  0.39260  Biso   1.000  H
  C22      1.0000 0.54560  0.09520  0.70180  Biso   1.000  C
  C23      1.0000 0.59990  0.11020  0.80010  Biso   1.000  C
  C24      1.0000 0.64090  0.04460  0.86040  Biso   1.000  C
  H10      1.0000 0.67750  0.05580  0.92780  Biso   1.000  H
  C25      1.0000 0.62930  0.96270  0.82390  Biso   1.000  C
  C26      1.0000 0.57390  0.94680  0.72670  Biso   1.000  C
  H11      1.0000 0.56460  0.89040  0.70150  Biso   1.000  H
  C27      1.0000 0.53200  0.01270  0.66620  Biso   1.000  C
  H12      1.0000 0.49390  0.00110  0.60000  Biso   1.000  H
  C28      1.0000 0.67050  0.22230  0.55900  Biso   1.000  C
  C29      1.0000 0.67710  0.89090  0.88770  Biso   1.000  C
  C30      1.0000 0.42080  0.29770  0.32100  Biso   1.000  C
  N2       1.0000 0.61610  0.19590  0.84330  Biso   1.000  N
  O10      1.0000 0.68694  0.26150  0.50780  Biso   1.000  O
  O11      1.0000 0.71358  0.18160  0.63640  Biso   1.000  O
  O12      1.0000 0.59370  0.25720  0.78760  Biso   1.000  O
  O13      1.0000 0.65240  0.20220  0.93440  Biso   1.000  O
  O14      1.0000 0.72096  0.90770  0.97890  Biso   1.000  O
  O15      1.0000 0.66829  0.82210  0.84420  Biso   1.000  O
  O16      1.0000 0.36215  0.30050  0.30460  Biso   1.000  O
  O17      1.0000 0.43235  0.32270  0.25750  Biso   1.000  O
  O18      1.0000 0.50225  0.15840  0.63690  Biso   1.000  O
  Sm3      1.0000 0.18954  0.82814  0.37831  Biso   1.000  Sm
  C31      1.0000 0.90170  0.72340  0.96970  Biso   1.000  C
  C32      1.0000 0.91560  0.68840  0.90360  Biso   1.000  C
  H13      1.0000 0.87990  0.66260  0.84310  Biso   1.000  H
  C33      1.0000 0.98130  0.69120  0.92650  Biso   1.000  C
  C34      1.0000 0.03430  0.72770  0.01430  Biso   1.000  C
  H14      1.0000 0.07920  0.72970  0.02870  Biso   1.000  H
  C35      1.0000 0.02100  0.76160  0.08180  Biso   1.000  C
  C36      1.0000 0.95510  0.75810  0.06050  Biso   1.000  C
  H15      1.0000 0.94650  0.77920  0.10740  Biso   1.000  H
  C37      1.0000 0.95440  0.59520  0.79820  Biso   1.000  C
  C38      1.0000 0.90010  0.61020  0.69990  Biso   1.000  C
  C39      1.0000 0.85910  0.54460  0.63960  Biso   1.000  C
  H16      1.0000 0.82250  0.55580  0.57220  Biso   1.000  H
  C40      1.0000 0.87070  0.46270  0.67610  Biso   1.000  C
  C41      1.0000 0.92610  0.44680  0.77330  Biso   1.000  C
  H17      1.0000 0.93540  0.39040  0.79850  Biso   1.000  H
  C42      1.0000 0.96800  0.51270  0.83380  Biso   1.000  C
  H18      1.0000 0.00610  0.50110  0.90000  Biso   1.000  H
  C43      1.0000 0.82950  0.72230  0.94100  Biso   1.000  C
  C44      1.0000 0.82290  0.39090  0.61230  Biso   1.000  C
  C45      1.0000 0.07920  0.79770  0.17900  Biso   1.000  C
  N3       1.0000 0.88390  0.69590  0.65670  Biso   1.000  N
  O19      1.0000 0.81306  0.76150  0.99220  Biso   1.000  O
  O20      1.0000 0.78642  0.68160  0.86360  Biso   1.000  O
  O21      1.0000 0.90630  0.75720  0.71240  Biso   1.000  O
  O22      1.0000 0.84760  0.70220  0.56560  Biso   1.000  O
  O23      1.0000 0.77904  0.40770  0.52110  Biso   1.000  O
  O24      1.0000 0.83171  0.32210  0.65580  Biso   1.000  O
  O25      1.0000 0.13785  0.80050  0.19540  Biso   1.000  O
  O26      1.0000 0.06765  0.82270  0.24250  Biso   1.000  O
  O27      1.0000 0.99775  0.65840  0.86310  Biso   1.000  O
  Sm4      1.0000 0.68954  0.32814  0.37831  Biso   1.000  Sm
  C46      1.0000 0.40170  0.22340  0.96970  Biso   1.000  C
  C47      1.0000 0.41560  0.18840  0.90360  Biso   1.000  C
  H19      1.0000 0.37990  0.16260  0.84310  Biso   1.000  H
  C48      1.0000 0.48130  0.19120  0.92650  Biso   1.000  C
  C49      1.0000 0.53430  0.22770  0.01430  Biso   1.000  C
  H20      1.0000 0.57920  0.22970  0.02870  Biso   1.000  H
  C50      1.0000 0.52100  0.26160  0.08180  Biso   1.000  C
  C51      1.0000 0.45510  0.25810  0.06050  Biso   1.000  C
  H21      1.0000 0.44650  0.27920  0.10740  Biso   1.000  H
  C52      1.0000 0.45440  0.09520  0.79820  Biso   1.000  C
  C53      1.0000 0.40010  0.11020  0.69990  Biso   1.000  C
  C54      1.0000 0.35910  0.04460  0.63960  Biso   1.000  C
  H22      1.0000 0.32250  0.05580  0.57220  Biso   1.000  H
  C55      1.0000 0.37070  0.96270  0.67610  Biso   1.000  C
  C56      1.0000 0.42610  0.94680  0.77330  Biso   1.000  C
  H23      1.0000 0.43540  0.89040  0.79850  Biso   1.000  H
  C57      1.0000 0.46800  0.01270  0.83380  Biso   1.000  C
  H24      1.0000 0.50610  0.00110  0.90000  Biso   1.000  H
  C58      1.0000 0.32950  0.22230  0.94100  Biso   1.000  C
  C59      1.0000 0.32290  0.89090  0.61230  Biso   1.000  C
  C60      1.0000 0.57920  0.29770  0.17900  Biso   1.000  C
  N4       1.0000 0.38390  0.19590  0.65670  Biso   1.000  N
  O28      1.0000 0.31306  0.26150  0.99220  Biso   1.000  O
  O29      1.0000 0.28642  0.18160  0.86360  Biso   1.000  O
  O30      1.0000 0.40630  0.25720  0.71240  Biso   1.000  O
  O31      1.0000 0.34760  0.20220  0.56560  Biso   1.000  O
  O32      1.0000 0.27904  0.90770  0.52110  Biso   1.000  O
  O33      1.0000 0.33171  0.82210  0.65580  Biso   1.000  O
  O34      1.0000 0.63785  0.30050  0.19540  Biso   1.000  O
  O35      1.0000 0.56765  0.32270  0.24250  Biso   1.000  O
  O36      1.0000 0.49775  0.15840  0.86310  Biso   1.000  O
  Sm5      1.0000 0.18954  0.17186  0.87831  Biso   1.000  Sm
  C61      1.0000 0.90170  0.27660  0.46970  Biso   1.000  C
  C62      1.0000 0.91560  0.31160  0.40360  Biso   1.000  C
  H25      1.0000 0.87990  0.33740  0.34310  Biso   1.000  H
  C63      1.0000 0.98130  0.30880  0.42650  Biso   1.000  C
  C64      1.0000 0.03430  0.27230  0.51430  Biso   1.000  C
  H26      1.0000 0.07920  0.27030  0.52870  Biso   1.000  H
  C65      1.0000 0.02100  0.23840  0.58180  Biso   1.000  C
  C66      1.0000 0.95510  0.24190  0.56050  Biso   1.000  C
  H27      1.0000 0.94650  0.22080  0.60740  Biso   1.000  H
  C67      1.0000 0.95440  0.40480  0.29820  Biso   1.000  C
  C68      1.0000 0.90010  0.38980  0.19990  Biso   1.000  C
  C69      1.0000 0.85910  0.45540  0.13960  Biso   1.000  C
  H28      1.0000 0.82250  0.44420  0.07220  Biso   1.000  H
  C70      1.0000 0.87070  0.53730  0.17610  Biso   1.000  C
  C71      1.0000 0.92610  0.55320  0.27330  Biso   1.000  C
  H29      1.0000 0.93540  0.60960  0.29850  Biso   1.000  H
  C72      1.0000 0.96800  0.48730  0.33380  Biso   1.000  C
  H30      1.0000 0.00610  0.49890  0.40000  Biso   1.000  H
  C73      1.0000 0.82950  0.27770  0.44100  Biso   1.000  C
  C74      1.0000 0.82290  0.60910  0.11230  Biso   1.000  C
  C75      1.0000 0.07920  0.20230  0.67900  Biso   1.000  C
  N5       1.0000 0.88390  0.30410  0.15670  Biso   1.000  N
  O37      1.0000 0.81306  0.23850  0.49220  Biso   1.000  O
  O38      1.0000 0.78642  0.31840  0.36360  Biso   1.000  O
  O39      1.0000 0.90630  0.24280  0.21240  Biso   1.000  O
  O40      1.0000 0.84760  0.29780  0.06560  Biso   1.000  O
  O41      1.0000 0.77904  0.59230  0.02110  Biso   1.000  O
  O42      1.0000 0.83171  0.67790  0.15580  Biso   1.000  O
  O43      1.0000 0.13785  0.19950  0.69540  Biso   1.000  O
  O44      1.0000 0.06765  0.17730  0.74250  Biso   1.000  O
  O45      1.0000 0.99775  0.34160  0.36310  Biso   1.000  O
  Sm6      1.0000 0.68954  0.67186  0.87831  Biso   1.000  Sm
  C76      1.0000 0.40170  0.77660  0.46970  Biso   1.000  C
  C77      1.0000 0.41560  0.81160  0.40360  Biso   1.000  C
  H31      1.0000 0.37990  0.83740  0.34310  Biso   1.000  H
  C78      1.0000 0.48130  0.80880  0.42650  Biso   1.000  C
  C79      1.0000 0.53430  0.77230  0.51430  Biso   1.000  C
  H32      1.0000 0.57920  0.77030  0.52870  Biso   1.000  H
  C80      1.0000 0.52100  0.73840  0.58180  Biso   1.000  C
  C81      1.0000 0.45510  0.74190  0.56050  Biso   1.000  C
  H33      1.0000 0.44650  0.72080  0.60740  Biso   1.000  H
  C82      1.0000 0.45440  0.90480  0.29820  Biso   1.000  C
  C83      1.0000 0.40010  0.88980  0.19990  Biso   1.000  C
  C84      1.0000 0.35910  0.95540  0.13960  Biso   1.000  C
  H34      1.0000 0.32250  0.94420  0.07220  Biso   1.000  H
  C85      1.0000 0.37070  0.03730  0.17610  Biso   1.000  C
  C86      1.0000 0.42610  0.05320  0.27330  Biso   1.000  C
  H35      1.0000 0.43540  0.10960  0.29850  Biso   1.000  H
  C87      1.0000 0.46800  0.98730  0.33380  Biso   1.000  C
  H36      1.0000 0.50610  0.99890  0.40000  Biso   1.000  H
  C88      1.0000 0.32950  0.77770  0.44100  Biso   1.000  C
  C89      1.0000 0.32290  0.10910  0.11230  Biso   1.000  C
  C90      1.0000 0.57920  0.70230  0.67900  Biso   1.000  C
  N6       1.0000 0.38390  0.80410  0.15670  Biso   1.000  N
  O46      1.0000 0.31306  0.73850  0.49220  Biso   1.000  O
  O47      1.0000 0.28642  0.81840  0.36360  Biso   1.000  O
  O48      1.0000 0.40630  0.74280  0.21240  Biso   1.000  O
  O49      1.0000 0.34760  0.79780  0.06560  Biso   1.000  O
  O50      1.0000 0.27904  0.09230  0.02110  Biso   1.000  O
  O51      1.0000 0.33171  0.17790  0.15580  Biso   1.000  O
  O52      1.0000 0.63785  0.69950  0.69540  Biso   1.000  O
  O53      1.0000 0.56765  0.67730  0.74250  Biso   1.000  O
  O54      1.0000 0.49775  0.84160  0.36310  Biso   1.000  O
  Sm7      1.0000 0.81046  0.17186  0.62169  Biso   1.000  Sm
  C91      1.0000 0.09830  0.27660  0.03030  Biso   1.000  C
  C92      1.0000 0.08440  0.31160  0.09640  Biso   1.000  C
  H37      1.0000 0.12010  0.33740  0.15690  Biso   1.000  H
  C93      1.0000 0.01870  0.30880  0.07350  Biso   1.000  C
  C94      1.0000 0.96570  0.27230  0.98570  Biso   1.000  C
  H38      1.0000 0.92080  0.27030  0.97130  Biso   1.000  H
  C95      1.0000 0.97900  0.23840  0.91820  Biso   1.000  C
  C96      1.0000 0.04490  0.24190  0.93950  Biso   1.000  C
  H39      1.0000 0.05350  0.22080  0.89260  Biso   1.000  H
  C97      1.0000 0.04560  0.40480  0.20180  Biso   1.000  C
  C98      1.0000 0.09990  0.38980  0.30010  Biso   1.000  C
  C99      1.0000 0.14090  0.45540  0.36040  Biso   1.000  C
  H40      1.0000 0.17750  0.44420  0.42780  Biso   1.000  H
  C100     1.0000 0.12930  0.53730  0.32390  Biso   1.000  C
  C101     1.0000 0.07390  0.55320  0.22670  Biso   1.000  C
  H41      1.0000 0.06460  0.60960  0.20150  Biso   1.000  H
  C102     1.0000 0.03200  0.48730  0.16620  Biso   1.000  C
  H42      1.0000 0.99390  0.49890  0.10000  Biso   1.000  H
  C103     1.0000 0.17050  0.27770  0.05900  Biso   1.000  C
  C104     1.0000 0.17710  0.60910  0.38770  Biso   1.000  C
  C105     1.0000 0.92080  0.20230  0.82100  Biso   1.000  C
  N7       1.0000 0.11610  0.30410  0.34330  Biso   1.000  N
  O55      1.0000 0.18694  0.23850  0.00780  Biso   1.000  O
  O56      1.0000 0.21358  0.31840  0.13640  Biso   1.000  O
  O57      1.0000 0.09370  0.24280  0.28760  Biso   1.000  O
  O58      1.0000 0.15240  0.29780  0.43440  Biso   1.000  O
  O59      1.0000 0.22096  0.59230  0.47890  Biso   1.000  O
  O60      1.0000 0.16829  0.67790  0.34420  Biso   1.000  O
  O61      1.0000 0.86215  0.19950  0.80460  Biso   1.000  O
  O62      1.0000 0.93235  0.17730  0.75750  Biso   1.000  O
  O63      1.0000 0.00225  0.34160  0.13690  Biso   1.000  O
  Sm8      1.0000 0.31046  0.67186  0.62169  Biso   1.000  Sm
  C106     1.0000 0.59830  0.77660  0.03030  Biso   1.000  C
  C107     1.0000 0.58440  0.81160  0.09640  Biso   1.000  C
  H43      1.0000 0.62010  0.83740  0.15690  Biso   1.000  H
  C108     1.0000 0.51870  0.80880  0.07350  Biso   1.000  C
  C109     1.0000 0.46570  0.77230  0.98570  Biso   1.000  C
  H44      1.0000 0.42080  0.77030  0.97130  Biso   1.000  H
  C110     1.0000 0.47900  0.73840  0.91820  Biso   1.000  C
  C111     1.0000 0.54490  0.74190  0.93950  Biso   1.000  C
  H45      1.0000 0.55350  0.72080  0.89260  Biso   1.000  H
  C112     1.0000 0.54560  0.90480  0.20180  Biso   1.000  C
  C113     1.0000 0.59990  0.88980  0.30010  Biso   1.000  C
  C114     1.0000 0.64090  0.95540  0.36040  Biso   1.000  C
  H46      1.0000 0.67750  0.94420  0.42780  Biso   1.000  H
  C115     1.0000 0.62930  0.03730  0.32390  Biso   1.000  C
  C116     1.0000 0.57390  0.05320  0.22670  Biso   1.000  C
  H47      1.0000 0.56460  0.10960  0.20150  Biso   1.000  H
  C117     1.0000 0.53200  0.98730  0.16620  Biso   1.000  C
  H48      1.0000 0.49390  0.99890  0.10000  Biso   1.000  H
  C118     1.0000 0.67050  0.77770  0.05900  Biso   1.000  C
  C119     1.0000 0.67710  0.10910  0.38770  Biso   1.000  C
  C120     1.0000 0.42080  0.70230  0.82100  Biso   1.000  C
  N8       1.0000 0.61610  0.80410  0.34330  Biso   1.000  N
  O64      1.0000 0.68694  0.73850  0.00780  Biso   1.000  O
  O65      1.0000 0.71358  0.81840  0.13640  Biso   1.000  O
  O66      1.0000 0.59370  0.74280  0.28760  Biso   1.000  O
  O67      1.0000 0.65240  0.79780  0.43440  Biso   1.000  O
  O68      1.0000 0.72096  0.09230  0.47890  Biso   1.000  O
  O69      1.0000 0.66829  0.17790  0.34420  Biso   1.000  O
  O70      1.0000 0.36215  0.69950  0.80460  Biso   1.000  O
  O71      1.0000 0.43235  0.67730  0.75750  Biso   1.000  O
  O72      1.0000 0.50225  0.84160  0.13690  Biso   1.000  O
