data_image0
_cell_length_a       23.5862
_cell_length_b       15.7079
_cell_length_c       16.0933
_cell_angle_alpha    90
_cell_angle_beta     124.16
_cell_angle_gamma    90

_symmetry_space_group_name_H-M    "P 1"
_symmetry_int_tables_number       1

loop_
  _symmetry_equiv_pos_as_xyz
  'x, y, z'

loop_
  _atom_site_label
  _atom_site_occupancy
  _atom_site_fract_x
  _atom_site_fract_y
  _atom_site_fract_z
  _atom_site_thermal_displace_type
  _atom_site_B_iso_or_equiv
  _atom_site_type_symbol
  Tb1      1.0000 0.68945  0.82761  0.87687  Biso   1.000  Tb
  C1       1.0000 0.36830  0.46120  0.17370  Biso   1.000  C
  C2       1.0000 0.35680  0.54340  0.13660  Biso   1.000  C
  H1       1.0000 0.32030  0.55460  0.06900  Biso   1.000  H
  C3       1.0000 0.39830  0.60970  0.19790  Biso   1.000  C
  C4       1.0000 0.45270  0.59380  0.29690  Biso   1.000  C
  C5       1.0000 0.46540  0.51090  0.33210  Biso   1.000  C
  H2       1.0000 0.50320  0.49920  0.39860  Biso   1.000  H
  C6       1.0000 0.42380  0.44510  0.27180  Biso   1.000  C
  H3       1.0000 0.43300  0.38860  0.29710  Biso   1.000  H
  C7       1.0000 0.48050  0.69120  0.42520  Biso   1.000  C
  C8       1.0000 0.41490  0.68970  0.40360  Biso   1.000  C
  H4       1.0000 0.37850  0.66480  0.34300  Biso   1.000  H
  C9       1.0000 0.40270  0.72470  0.47110  Biso   1.000  C
  C10      1.0000 0.45610  0.75890  0.56140  Biso   1.000  C
  H5       1.0000 0.44790  0.78070  0.60880  Biso   1.000  H
  C11      1.0000 0.52180  0.76090  0.58150  Biso   1.000  C
  C12      1.0000 0.53410  0.72750  0.51280  Biso   1.000  C
  H6       1.0000 0.57870  0.72950  0.52610  Biso   1.000  H
  C13      1.0000 0.32040  0.38970  0.10970  Biso   1.000  C
  C14      1.0000 0.33020  0.72470  0.44340  Biso   1.000  C
  C15      1.0000 0.58070  0.79610  0.67960  Biso   1.000  C
  N1       1.0000 0.38260  0.69470  0.15450  Biso   1.000  N
  O1       1.0000 0.32793  0.32110  0.15450  Biso   1.000  O
  O2       1.0000 0.27744  0.40530  0.01830  Biso   1.000  O
  O3       1.0000 0.34750  0.70130  0.06320  Biso   1.000  O
  O4       1.0000 0.40470  0.75620  0.21100  Biso   1.000  O
  O5       1.0000 0.28568  0.68560  0.36590  Biso   1.000  O
  O6       1.0000 0.31630  0.76380  0.49820  Biso   1.000  O
  O7       1.0000 0.56967  0.82020  0.74450  Biso   1.000  O
  O8       1.0000 0.63896  0.79920  0.69560  Biso   1.000  O
  O9       1.0000 0.49657  0.65740  0.36090  Biso   1.000  O
  Tb2      1.0000 0.18945  0.32761  0.87687  Biso   1.000  Tb
  C16      1.0000 0.86830  0.96120  0.17370  Biso   1.000  C
  C17      1.0000 0.85680  0.04340  0.13660  Biso   1.000  C
  H7       1.0000 0.82030  0.05460  0.06900  Biso   1.000  H
  C18      1.0000 0.89830  0.10970  0.19790  Biso   1.000  C
  C19      1.0000 0.95270  0.09380  0.29690  Biso   1.000  C
  C20      1.0000 0.96540  0.01090  0.33210  Biso   1.000  C
  H8       1.0000 0.00320  0.99920  0.39860  Biso   1.000  H
  C21      1.0000 0.92380  0.94510  0.27180  Biso   1.000  C
  H9       1.0000 0.93300  0.88860  0.29710  Biso   1.000  H
  C22      1.0000 0.98050  0.19120  0.42520  Biso   1.000  C
  C23      1.0000 0.91490  0.18970  0.40360  Biso   1.000  C
  H10      1.0000 0.87850  0.16480  0.34300  Biso   1.000  H
  C24      1.0000 0.90270  0.22470  0.47110  Biso   1.000  C
  C25      1.0000 0.95610  0.25890  0.56140  Biso   1.000  C
  H11      1.0000 0.94790  0.28070  0.60880  Biso   1.000  H
  C26      1.0000 0.02180  0.26090  0.58150  Biso   1.000  C
  C27      1.0000 0.03410  0.22750  0.51280  Biso   1.000  C
  H12      1.0000 0.07870  0.22950  0.52610  Biso   1.000  H
  C28      1.0000 0.82040  0.88970  0.10970  Biso   1.000  C
  C29      1.0000 0.83020  0.22470  0.44340  Biso   1.000  C
  C30      1.0000 0.08070  0.29610  0.67960  Biso   1.000  C
  N2       1.0000 0.88260  0.19470  0.15450  Biso   1.000  N
  O10      1.0000 0.82793  0.82110  0.15450  Biso   1.000  O
  O11      1.0000 0.77744  0.90530  0.01830  Biso   1.000  O
  O12      1.0000 0.84750  0.20130  0.06320  Biso   1.000  O
  O13      1.0000 0.90470  0.25620  0.21100  Biso   1.000  O
  O14      1.0000 0.78568  0.18560  0.36590  Biso   1.000  O
  O15      1.0000 0.81630  0.26380  0.49820  Biso   1.000  O
  O16      1.0000 0.06967  0.32020  0.74450  Biso   1.000  O
  O17      1.0000 0.13896  0.29920  0.69560  Biso   1.000  O
  O18      1.0000 0.99657  0.15740  0.36090  Biso   1.000  O
  Tb3      1.0000 0.31055  0.82761  0.62313  Biso   1.000  Tb
  C31      1.0000 0.63170  0.46120  0.32630  Biso   1.000  C
  C32      1.0000 0.64320  0.54340  0.36340  Biso   1.000  C
  H13      1.0000 0.67970  0.55460  0.43100  Biso   1.000  H
  C33      1.0000 0.60170  0.60970  0.30210  Biso   1.000  C
  C34      1.0000 0.54730  0.59380  0.20310  Biso   1.000  C
  C35      1.0000 0.53460  0.51090  0.16790  Biso   1.000  C
  H14      1.0000 0.49680  0.49920  0.10140  Biso   1.000  H
  C36      1.0000 0.57620  0.44510  0.22820  Biso   1.000  C
  H15      1.0000 0.56700  0.38860  0.20290  Biso   1.000  H
  C37      1.0000 0.51950  0.69120  0.07480  Biso   1.000  C
  C38      1.0000 0.58510  0.68970  0.09640  Biso   1.000  C
  H16      1.0000 0.62150  0.66480  0.15700  Biso   1.000  H
  C39      1.0000 0.59730  0.72470  0.02890  Biso   1.000  C
  C40      1.0000 0.54390  0.75890  0.93860  Biso   1.000  C
  H17      1.0000 0.55210  0.78070  0.89120  Biso   1.000  H
  C41      1.0000 0.47820  0.76090  0.91850  Biso   1.000  C
  C42      1.0000 0.46590  0.72750  0.98720  Biso   1.000  C
  H18      1.0000 0.42130  0.72950  0.97390  Biso   1.000  H
  C43      1.0000 0.67960  0.38970  0.39030  Biso   1.000  C
  C44      1.0000 0.66980  0.72470  0.05660  Biso   1.000  C
  C45      1.0000 0.41930  0.79610  0.82040  Biso   1.000  C
  N3       1.0000 0.61740  0.69470  0.34550  Biso   1.000  N
  O19      1.0000 0.67207  0.32110  0.34550  Biso   1.000  O
  O20      1.0000 0.72256  0.40530  0.48170  Biso   1.000  O
  O21      1.0000 0.65250  0.70130  0.43680  Biso   1.000  O
  O22      1.0000 0.59530  0.75620  0.28900  Biso   1.000  O
  O23      1.0000 0.71432  0.68560  0.13410  Biso   1.000  O
  O24      1.0000 0.68370  0.76380  0.00180  Biso   1.000  O
  O25      1.0000 0.43033  0.82020  0.75550  Biso   1.000  O
  O26      1.0000 0.36104  0.79920  0.80440  Biso   1.000  O
  O27      1.0000 0.50343  0.65740  0.13910  Biso   1.000  O
  Tb4      1.0000 0.81055  0.32761  0.62313  Biso   1.000  Tb
  C46      1.0000 0.13170  0.96120  0.32630  Biso   1.000  C
  C47      1.0000 0.14320  0.04340  0.36340  Biso   1.000  C
  H19      1.0000 0.17970  0.05460  0.43100  Biso   1.000  H
  C48      1.0000 0.10170  0.10970  0.30210  Biso   1.000  C
  C49      1.0000 0.04730  0.09380  0.20310  Biso   1.000  C
  C50      1.0000 0.03460  0.01090  0.16790  Biso   1.000  C
  H20      1.0000 0.99680  0.99920  0.10140  Biso   1.000  H
  C51      1.0000 0.07620  0.94510  0.22820  Biso   1.000  C
  H21      1.0000 0.06700  0.88860  0.20290  Biso   1.000  H
  C52      1.0000 0.01950  0.19120  0.07480  Biso   1.000  C
  C53      1.0000 0.08510  0.18970  0.09640  Biso   1.000  C
  H22      1.0000 0.12150  0.16480  0.15700  Biso   1.000  H
  C54      1.0000 0.09730  0.22470  0.02890  Biso   1.000  C
  C55      1.0000 0.04390  0.25890  0.93860  Biso   1.000  C
  H23      1.0000 0.05210  0.28070  0.89120  Biso   1.000  H
  C56      1.0000 0.97820  0.26090  0.91850  Biso   1.000  C
  C57      1.0000 0.96590  0.22750  0.98720  Biso   1.000  C
  H24      1.0000 0.92130  0.22950  0.97390  Biso   1.000  H
  C58      1.0000 0.17960  0.88970  0.39030  Biso   1.000  C
  C59      1.0000 0.16980  0.22470  0.05660  Biso   1.000  C
  C60      1.0000 0.91930  0.29610  0.82040  Biso   1.000  C
  N4       1.0000 0.11740  0.19470  0.34550  Biso   1.000  N
  O28      1.0000 0.17207  0.82110  0.34550  Biso   1.000  O
  O29      1.0000 0.22256  0.90530  0.48170  Biso   1.000  O
  O30      1.0000 0.15250  0.20130  0.43680  Biso   1.000  O
  O31      1.0000 0.09530  0.25620  0.28900  Biso   1.000  O
  O32      1.0000 0.21432  0.18560  0.13410  Biso   1.000  O
  O33      1.0000 0.18370  0.26380  0.00180  Biso   1.000  O
  O34      1.0000 0.93033  0.32020  0.75550  Biso   1.000  O
  O35      1.0000 0.86104  0.29920  0.80440  Biso   1.000  O
  O36      1.0000 0.00343  0.15740  0.13910  Biso   1.000  O
  Tb5      1.0000 0.31055  0.17239  0.12313  Biso   1.000  Tb
  C61      1.0000 0.63170  0.53880  0.82630  Biso   1.000  C
  C62      1.0000 0.64320  0.45660  0.86340  Biso   1.000  C
  H25      1.0000 0.67970  0.44540  0.93100  Biso   1.000  H
  C63      1.0000 0.60170  0.39030  0.80210  Biso   1.000  C
  C64      1.0000 0.54730  0.40620  0.70310  Biso   1.000  C
  C65      1.0000 0.53460  0.48910  0.66790  Biso   1.000  C
  H26      1.0000 0.49680  0.50080  0.60140  Biso   1.000  H
  C66      1.0000 0.57620  0.55490  0.72820  Biso   1.000  C
  H27      1.0000 0.56700  0.61140  0.70290  Biso   1.000  H
  C67      1.0000 0.51950  0.30880  0.57480  Biso   1.000  C
  C68      1.0000 0.58510  0.31030  0.59640  Biso   1.000  C
  H28      1.0000 0.62150  0.33520  0.65700  Biso   1.000  H
  C69      1.0000 0.59730  0.27530  0.52890  Biso   1.000  C
  C70      1.0000 0.54390  0.24110  0.43860  Biso   1.000  C
  H29      1.0000 0.55210  0.21930  0.39120  Biso   1.000  H
  C71      1.0000 0.47820  0.23910  0.41850  Biso   1.000  C
  C72      1.0000 0.46590  0.27250  0.48720  Biso   1.000  C
  H30      1.0000 0.42130  0.27050  0.47390  Biso   1.000  H
  C73      1.0000 0.67960  0.61030  0.89030  Biso   1.000  C
  C74      1.0000 0.66980  0.27530  0.55660  Biso   1.000  C
  C75      1.0000 0.41930  0.20390  0.32040  Biso   1.000  C
  N5       1.0000 0.61740  0.30530  0.84550  Biso   1.000  N
  O37      1.0000 0.67207  0.67890  0.84550  Biso   1.000  O
  O38      1.0000 0.72256  0.59470  0.98170  Biso   1.000  O
  O39      1.0000 0.65250  0.29870  0.93680  Biso   1.000  O
  O40      1.0000 0.59530  0.24380  0.78900  Biso   1.000  O
  O41      1.0000 0.71432  0.31440  0.63410  Biso   1.000  O
  O42      1.0000 0.68370  0.23620  0.50180  Biso   1.000  O
  O43      1.0000 0.43033  0.17980  0.25550  Biso   1.000  O
  O44      1.0000 0.36104  0.20080  0.30440  Biso   1.000  O
  O45      1.0000 0.50343  0.34260  0.63910  Biso   1.000  O
  Tb6      1.0000 0.81055  0.67239  0.12313  Biso   1.000  Tb
  C76      1.0000 0.13170  0.03880  0.82630  Biso   1.000  C
  C77      1.0000 0.14320  0.95660  0.86340  Biso   1.000  C
  H31      1.0000 0.17970  0.94540  0.93100  Biso   1.000  H
  C78      1.0000 0.10170  0.89030  0.80210  Biso   1.000  C
  C79      1.0000 0.04730  0.90620  0.70310  Biso   1.000  C
  C80      1.0000 0.03460  0.98910  0.66790  Biso   1.000  C
  H32      1.0000 0.99680  0.00080  0.60140  Biso   1.000  H
  C81      1.0000 0.07620  0.05490  0.72820  Biso   1.000  C
  H33      1.0000 0.06700  0.11140  0.70290  Biso   1.000  H
  C82      1.0000 0.01950  0.80880  0.57480  Biso   1.000  C
  C83      1.0000 0.08510  0.81030  0.59640  Biso   1.000  C
  H34      1.0000 0.12150  0.83520  0.65700  Biso   1.000  H
  C84      1.0000 0.09730  0.77530  0.52890  Biso   1.000  C
  C85      1.0000 0.04390  0.74110  0.43860  Biso   1.000  C
  H35      1.0000 0.05210  0.71930  0.39120  Biso   1.000  H
  C86      1.0000 0.97820  0.73910  0.41850  Biso   1.000  C
  C87      1.0000 0.96590  0.77250  0.48720  Biso   1.000  C
  H36      1.0000 0.92130  0.77050  0.47390  Biso   1.000  H
  C88      1.0000 0.17960  0.11030  0.89030  Biso   1.000  C
  C89      1.0000 0.16980  0.77530  0.55660  Biso   1.000  C
  C90      1.0000 0.91930  0.70390  0.32040  Biso   1.000  C
  N6       1.0000 0.11740  0.80530  0.84550  Biso   1.000  N
  O46      1.0000 0.17207  0.17890  0.84550  Biso   1.000  O
  O47      1.0000 0.22256  0.09470  0.98170  Biso   1.000  O
  O48      1.0000 0.15250  0.79870  0.93680  Biso   1.000  O
  O49      1.0000 0.09530  0.74380  0.78900  Biso   1.000  O
  O50      1.0000 0.21432  0.81440  0.63410  Biso   1.000  O
  O51      1.0000 0.18370  0.73620  0.50180  Biso   1.000  O
  O52      1.0000 0.93033  0.67980  0.25550  Biso   1.000  O
  O53      1.0000 0.86104  0.70080  0.30440  Biso   1.000  O
  O54      1.0000 0.00343  0.84260  0.63910  Biso   1.000  O
  Tb7      1.0000 0.68945  0.17239  0.37687  Biso   1.000  Tb
  C91      1.0000 0.36830  0.53880  0.67370  Biso   1.000  C
  C92      1.0000 0.35680  0.45660  0.63660  Biso   1.000  C
  H37      1.0000 0.32030  0.44540  0.56900  Biso   1.000  H
  C93      1.0000 0.39830  0.39030  0.69790  Biso   1.000  C
  C94      1.0000 0.45270  0.40620  0.79690  Biso   1.000  C
  C95      1.0000 0.46540  0.48910  0.83210  Biso   1.000  C
  H38      1.0000 0.50320  0.50080  0.89860  Biso   1.000  H
  C96      1.0000 0.42380  0.55490  0.77180  Biso   1.000  C
  H39      1.0000 0.43300  0.61140  0.79710  Biso   1.000  H
  C97      1.0000 0.48050  0.30880  0.92520  Biso   1.000  C
  C98      1.0000 0.41490  0.31030  0.90360  Biso   1.000  C
  H40      1.0000 0.37850  0.33520  0.84300  Biso   1.000  H
  C99      1.0000 0.40270  0.27530  0.97110  Biso   1.000  C
  C100     1.0000 0.45610  0.24110  0.06140  Biso   1.000  C
  H41      1.0000 0.44790  0.21930  0.10880  Biso   1.000  H
  C101     1.0000 0.52180  0.23910  0.08150  Biso   1.000  C
  C102     1.0000 0.53410  0.27250  0.01280  Biso   1.000  C
  H42      1.0000 0.57870  0.27050  0.02610  Biso   1.000  H
  C103     1.0000 0.32040  0.61030  0.60970  Biso   1.000  C
  C104     1.0000 0.33020  0.27530  0.94340  Biso   1.000  C
  C105     1.0000 0.58070  0.20390  0.17960  Biso   1.000  C
  N7       1.0000 0.38260  0.30530  0.65450  Biso   1.000  N
  O55      1.0000 0.32793  0.67890  0.65450  Biso   1.000  O
  O56      1.0000 0.27744  0.59470  0.51830  Biso   1.000  O
  O57      1.0000 0.34750  0.29870  0.56320  Biso   1.000  O
  O58      1.0000 0.40470  0.24380  0.71100  Biso   1.000  O
  O59      1.0000 0.28568  0.31440  0.86590  Biso   1.000  O
  O60      1.0000 0.31630  0.23620  0.99820  Biso   1.000  O
  O61      1.0000 0.56967  0.17980  0.24450  Biso   1.000  O
  O62      1.0000 0.63896  0.20080  0.19560  Biso   1.000  O
  O63      1.0000 0.49657  0.34260  0.86090  Biso   1.000  O
  Tb8      1.0000 0.18945  0.67239  0.37687  Biso   1.000  Tb
  C106     1.0000 0.86830  0.03880  0.67370  Biso   1.000  C
  C107     1.0000 0.85680  0.95660  0.63660  Biso   1.000  C
  H43      1.0000 0.82030  0.94540  0.56900  Biso   1.000  H
  C108     1.0000 0.89830  0.89030  0.69790  Biso   1.000  C
  C109     1.0000 0.95270  0.90620  0.79690  Biso   1.000  C
  C110     1.0000 0.96540  0.98910  0.83210  Biso   1.000  C
  H44      1.0000 0.00320  0.00080  0.89860  Biso   1.000  H
  C111     1.0000 0.92380  0.05490  0.77180  Biso   1.000  C
  H45      1.0000 0.93300  0.11140  0.79710  Biso   1.000  H
  C112     1.0000 0.98050  0.80880  0.92520  Biso   1.000  C
  C113     1.0000 0.91490  0.81030  0.90360  Biso   1.000  C
  H46      1.0000 0.87850  0.83520  0.84300  Biso   1.000  H
  C114     1.0000 0.90270  0.77530  0.97110  Biso   1.000  C
  C115     1.0000 0.95610  0.74110  0.06140  Biso   1.000  C
  H47      1.0000 0.94790  0.71930  0.10880  Biso   1.000  H
  C116     1.0000 0.02180  0.73910  0.08150  Biso   1.000  C
  C117     1.0000 0.03410  0.77250  0.01280  Biso   1.000  C
  H48      1.0000 0.07870  0.77050  0.02610  Biso   1.000  H
  C118     1.0000 0.82040  0.11030  0.60970  Biso   1.000  C
  C119     1.0000 0.83020  0.77530  0.94340  Biso   1.000  C
  C120     1.0000 0.08070  0.70390  0.17960  Biso   1.000  C
  N8       1.0000 0.88260  0.80530  0.65450  Biso   1.000  N
  O64      1.0000 0.82793  0.17890  0.65450  Biso   1.000  O
  O65      1.0000 0.77744  0.09470  0.51830  Biso   1.000  O
  O66      1.0000 0.84750  0.79870  0.56320  Biso   1.000  O
  O67      1.0000 0.90470  0.74380  0.71100  Biso   1.000  O
  O68      1.0000 0.78568  0.81440  0.86590  Biso   1.000  O
  O69      1.0000 0.81630  0.73620  0.99820  Biso   1.000  O
  O70      1.0000 0.06967  0.67980  0.24450  Biso   1.000  O
  O71      1.0000 0.13896  0.70080  0.19560  Biso   1.000  O
  O72      1.0000 0.99657  0.84260  0.86090  Biso   1.000  O
