data_image0
_cell_length_a       23.5849
_cell_length_b       15.7031
_cell_length_c       16.1371
_cell_angle_alpha    90
_cell_angle_beta     124.274
_cell_angle_gamma    90

_symmetry_space_group_name_H-M    "P 1"
_symmetry_int_tables_number       1

loop_
  _symmetry_equiv_pos_as_xyz
  'x, y, z'

loop_
  _atom_site_label
  _atom_site_occupancy
  _atom_site_fract_x
  _atom_site_fract_y
  _atom_site_fract_z
  _atom_site_thermal_displace_type
  _atom_site_B_iso_or_equiv
  _atom_site_type_symbol
  Eu1      1.0000 0.81039  0.32798  0.62190  Biso   1.000  Eu
  C1       1.0000 0.13010  0.96190  0.32490  Biso   1.000  C
  C2       1.0000 0.14180  0.04440  0.36140  Biso   1.000  C
  H1       1.0000 0.17870  0.05560  0.42860  Biso   1.000  H
  C3       1.0000 0.10020  0.11080  0.30080  Biso   1.000  C
  C4       1.0000 0.04600  0.09480  0.20190  Biso   1.000  C
  C5       1.0000 0.03290  0.01240  0.16680  Biso   1.000  C
  H2       1.0000 0.99490  0.00090  0.10040  Biso   1.000  H
  C6       1.0000 0.07410  0.94660  0.22660  Biso   1.000  C
  H3       1.0000 0.06460  0.89020  0.20090  Biso   1.000  H
  C7       1.0000 0.01880  0.19110  0.07370  Biso   1.000  C
  C8       1.0000 0.96590  0.22790  0.98610  Biso   1.000  C
  H4       1.0000 0.92100  0.23020  0.97200  Biso   1.000  H
  C9       1.0000 0.97880  0.26160  0.91840  Biso   1.000  C
  C10      1.0000 0.04480  0.25870  0.93940  Biso   1.000  C
  H5       1.0000 0.05350  0.28030  0.89260  Biso   1.000  H
  C11      1.0000 0.09770  0.22370  0.02970  Biso   1.000  C
  C12      1.0000 0.08450  0.18880  0.09590  Biso   1.000  C
  H6       1.0000 0.12060  0.16330  0.15650  Biso   1.000  H
  C13      1.0000 0.17730  0.89080  0.38850  Biso   1.000  C
  C14      1.0000 0.92030  0.29740  0.82070  Biso   1.000  C
  C15      1.0000 0.17070  0.22300  0.05920  Biso   1.000  C
  N1       1.0000 0.11660  0.19610  0.34380  Biso   1.000  N
  O1       1.0000 0.16920  0.82170  0.34460  Biso   1.000  O
  O2       1.0000 0.22140  0.90680  0.47950  Biso   1.000  O
  O3       1.0000 0.15220  0.20220  0.43520  Biso   1.000  O
  O4       1.0000 0.09400  0.25710  0.28780  Biso   1.000  O
  O5       1.0000 0.21398  0.18230  0.13570  Biso   1.000  O
  O6       1.0000 0.18614  0.26190  0.00620  Biso   1.000  O
  O7       1.0000 0.93167  0.32240  0.75670  Biso   1.000  O
  O8       1.0000 0.86179  0.30020  0.80430  Biso   1.000  O
  O9       1.0000 0.00255  0.15830  0.13780  Biso   1.000  O
  Eu2      1.0000 0.31039  0.82798  0.62190  Biso   1.000  Eu
  C16      1.0000 0.63010  0.46190  0.32490  Biso   1.000  C
  C17      1.0000 0.64180  0.54440  0.36140  Biso   1.000  C
  H7       1.0000 0.67870  0.55560  0.42860  Biso   1.000  H
  C18      1.0000 0.60020  0.61080  0.30080  Biso   1.000  C
  C19      1.0000 0.54600  0.59480  0.20190  Biso   1.000  C
  C20      1.0000 0.53290  0.51240  0.16680  Biso   1.000  C
  H8       1.0000 0.49490  0.50090  0.10040  Biso   1.000  H
  C21      1.0000 0.57410  0.44660  0.22660  Biso   1.000  C
  H9       1.0000 0.56460  0.39020  0.20090  Biso   1.000  H
  C22      1.0000 0.51880  0.69110  0.07370  Biso   1.000  C
  C23      1.0000 0.46590  0.72790  0.98610  Biso   1.000  C
  H10      1.0000 0.42100  0.73020  0.97200  Biso   1.000  H
  C24      1.0000 0.47880  0.76160  0.91840  Biso   1.000  C
  C25      1.0000 0.54480  0.75870  0.93940  Biso   1.000  C
  H11      1.0000 0.55350  0.78030  0.89260  Biso   1.000  H
  C26      1.0000 0.59770  0.72370  0.02970  Biso   1.000  C
  C27      1.0000 0.58450  0.68880  0.09590  Biso   1.000  C
  H12      1.0000 0.62060  0.66330  0.15650  Biso   1.000  H
  C28      1.0000 0.67730  0.39080  0.38850  Biso   1.000  C
  C29      1.0000 0.42030  0.79740  0.82070  Biso   1.000  C
  C30      1.0000 0.67070  0.72300  0.05920  Biso   1.000  C
  N2       1.0000 0.61660  0.69610  0.34380  Biso   1.000  N
  O10      1.0000 0.66920  0.32170  0.34460  Biso   1.000  O
  O11      1.0000 0.72140  0.40680  0.47950  Biso   1.000  O
  O12      1.0000 0.65220  0.70220  0.43520  Biso   1.000  O
  O13      1.0000 0.59400  0.75710  0.28780  Biso   1.000  O
  O14      1.0000 0.71398  0.68230  0.13570  Biso   1.000  O
  O15      1.0000 0.68614  0.76190  0.00620  Biso   1.000  O
  O16      1.0000 0.43167  0.82240  0.75670  Biso   1.000  O
  O17      1.0000 0.36179  0.80020  0.80430  Biso   1.000  O
  O18      1.0000 0.50255  0.65830  0.13780  Biso   1.000  O
  Eu3      1.0000 0.18961  0.32798  0.87810  Biso   1.000  Eu
  C31      1.0000 0.86990  0.96190  0.17510  Biso   1.000  C
  C32      1.0000 0.85820  0.04440  0.13860  Biso   1.000  C
  H13      1.0000 0.82130  0.05560  0.07140  Biso   1.000  H
  C33      1.0000 0.89980  0.11080  0.19920  Biso   1.000  C
  C34      1.0000 0.95400  0.09480  0.29810  Biso   1.000  C
  C35      1.0000 0.96710  0.01240  0.33320  Biso   1.000  C
  H14      1.0000 0.00510  0.00090  0.39960  Biso   1.000  H
  C36      1.0000 0.92590  0.94660  0.27340  Biso   1.000  C
  H15      1.0000 0.93540  0.89020  0.29910  Biso   1.000  H
  C37      1.0000 0.98120  0.19110  0.42630  Biso   1.000  C
  C38      1.0000 0.03410  0.22790  0.51390  Biso   1.000  C
  H16      1.0000 0.07900  0.23020  0.52800  Biso   1.000  H
  C39      1.0000 0.02120  0.26160  0.58160  Biso   1.000  C
  C40      1.0000 0.95520  0.25870  0.56060  Biso   1.000  C
  H17      1.0000 0.94650  0.28030  0.60740  Biso   1.000  H
  C41      1.0000 0.90230  0.22370  0.47030  Biso   1.000  C
  C42      1.0000 0.91550  0.18880  0.40410  Biso   1.000  C
  H18      1.0000 0.87940  0.16330  0.34350  Biso   1.000  H
  C43      1.0000 0.82270  0.89080  0.11150  Biso   1.000  C
  C44      1.0000 0.07970  0.29740  0.67930  Biso   1.000  C
  C45      1.0000 0.82930  0.22300  0.44080  Biso   1.000  C
  N3       1.0000 0.88340  0.19610  0.15620  Biso   1.000  N
  O19      1.0000 0.83080  0.82170  0.15540  Biso   1.000  O
  O20      1.0000 0.77860  0.90680  0.02050  Biso   1.000  O
  O21      1.0000 0.84780  0.20220  0.06480  Biso   1.000  O
  O22      1.0000 0.90600  0.25710  0.21220  Biso   1.000  O
  O23      1.0000 0.78602  0.18230  0.36430  Biso   1.000  O
  O24      1.0000 0.81386  0.26190  0.49380  Biso   1.000  O
  O25      1.0000 0.06833  0.32240  0.74330  Biso   1.000  O
  O26      1.0000 0.13821  0.30020  0.69570  Biso   1.000  O
  O27      1.0000 0.99745  0.15830  0.36220  Biso   1.000  O
  Eu4      1.0000 0.68961  0.82798  0.87810  Biso   1.000  Eu
  C46      1.0000 0.36990  0.46190  0.17510  Biso   1.000  C
  C47      1.0000 0.35820  0.54440  0.13860  Biso   1.000  C
  H19      1.0000 0.32130  0.55560  0.07140  Biso   1.000  H
  C48      1.0000 0.39980  0.61080  0.19920  Biso   1.000  C
  C49      1.0000 0.45400  0.59480  0.29810  Biso   1.000  C
  C50      1.0000 0.46710  0.51240  0.33320  Biso   1.000  C
  H20      1.0000 0.50510  0.50090  0.39960  Biso   1.000  H
  C51      1.0000 0.42590  0.44660  0.27340  Biso   1.000  C
  H21      1.0000 0.43540  0.39020  0.29910  Biso   1.000  H
  C52      1.0000 0.48120  0.69110  0.42630  Biso   1.000  C
  C53      1.0000 0.53410  0.72790  0.51390  Biso   1.000  C
  H22      1.0000 0.57900  0.73020  0.52800  Biso   1.000  H
  C54      1.0000 0.52120  0.76160  0.58160  Biso   1.000  C
  C55      1.0000 0.45520  0.75870  0.56060  Biso   1.000  C
  H23      1.0000 0.44650  0.78030  0.60740  Biso   1.000  H
  C56      1.0000 0.40230  0.72370  0.47030  Biso   1.000  C
  C57      1.0000 0.41550  0.68880  0.40410  Biso   1.000  C
  H24      1.0000 0.37940  0.66330  0.34350  Biso   1.000  H
  C58      1.0000 0.32270  0.39080  0.11150  Biso   1.000  C
  C59      1.0000 0.57970  0.79740  0.67930  Biso   1.000  C
  C60      1.0000 0.32930  0.72300  0.44080  Biso   1.000  C
  N4       1.0000 0.38340  0.69610  0.15620  Biso   1.000  N
  O28      1.0000 0.33080  0.32170  0.15540  Biso   1.000  O
  O29      1.0000 0.27860  0.40680  0.02050  Biso   1.000  O
  O30      1.0000 0.34780  0.70220  0.06480  Biso   1.000  O
  O31      1.0000 0.40600  0.75710  0.21220  Biso   1.000  O
  O32      1.0000 0.28602  0.68230  0.36430  Biso   1.000  O
  O33      1.0000 0.31386  0.76190  0.49380  Biso   1.000  O
  O34      1.0000 0.56833  0.82240  0.74330  Biso   1.000  O
  O35      1.0000 0.63821  0.80020  0.69570  Biso   1.000  O
  O36      1.0000 0.49745  0.65830  0.36220  Biso   1.000  O
  Eu5      1.0000 0.18961  0.67202  0.37810  Biso   1.000  Eu
  C61      1.0000 0.86990  0.03810  0.67510  Biso   1.000  C
  C62      1.0000 0.85820  0.95560  0.63860  Biso   1.000  C
  H25      1.0000 0.82130  0.94440  0.57140  Biso   1.000  H
  C63      1.0000 0.89980  0.88920  0.69920  Biso   1.000  C
  C64      1.0000 0.95400  0.90520  0.79810  Biso   1.000  C
  C65      1.0000 0.96710  0.98760  0.83320  Biso   1.000  C
  H26      1.0000 0.00510  0.99910  0.89960  Biso   1.000  H
  C66      1.0000 0.92590  0.05340  0.77340  Biso   1.000  C
  H27      1.0000 0.93540  0.10980  0.79910  Biso   1.000  H
  C67      1.0000 0.98120  0.80890  0.92630  Biso   1.000  C
  C68      1.0000 0.03410  0.77210  0.01390  Biso   1.000  C
  H28      1.0000 0.07900  0.76980  0.02800  Biso   1.000  H
  C69      1.0000 0.02120  0.73840  0.08160  Biso   1.000  C
  C70      1.0000 0.95520  0.74130  0.06060  Biso   1.000  C
  H29      1.0000 0.94650  0.71970  0.10740  Biso   1.000  H
  C71      1.0000 0.90230  0.77630  0.97030  Biso   1.000  C
  C72      1.0000 0.91550  0.81120  0.90410  Biso   1.000  C
  H30      1.0000 0.87940  0.83670  0.84350  Biso   1.000  H
  C73      1.0000 0.82270  0.10920  0.61150  Biso   1.000  C
  C74      1.0000 0.07970  0.70260  0.17930  Biso   1.000  C
  C75      1.0000 0.82930  0.77700  0.94080  Biso   1.000  C
  N5       1.0000 0.88340  0.80390  0.65620  Biso   1.000  N
  O37      1.0000 0.83080  0.17830  0.65540  Biso   1.000  O
  O38      1.0000 0.77860  0.09320  0.52050  Biso   1.000  O
  O39      1.0000 0.84780  0.79780  0.56480  Biso   1.000  O
  O40      1.0000 0.90600  0.74290  0.71220  Biso   1.000  O
  O41      1.0000 0.78602  0.81770  0.86430  Biso   1.000  O
  O42      1.0000 0.81386  0.73810  0.99380  Biso   1.000  O
  O43      1.0000 0.06833  0.67760  0.24330  Biso   1.000  O
  O44      1.0000 0.13821  0.69980  0.19570  Biso   1.000  O
  O45      1.0000 0.99745  0.84170  0.86220  Biso   1.000  O
  Eu6      1.0000 0.68961  0.17202  0.37810  Biso   1.000  Eu
  C76      1.0000 0.36990  0.53810  0.67510  Biso   1.000  C
  C77      1.0000 0.35820  0.45560  0.63860  Biso   1.000  C
  H31      1.0000 0.32130  0.44440  0.57140  Biso   1.000  H
  C78      1.0000 0.39980  0.38920  0.69920  Biso   1.000  C
  C79      1.0000 0.45400  0.40520  0.79810  Biso   1.000  C
  C80      1.0000 0.46710  0.48760  0.83320  Biso   1.000  C
  H32      1.0000 0.50510  0.49910  0.89960  Biso   1.000  H
  C81      1.0000 0.42590  0.55340  0.77340  Biso   1.000  C
  H33      1.0000 0.43540  0.60980  0.79910  Biso   1.000  H
  C82      1.0000 0.48120  0.30890  0.92630  Biso   1.000  C
  C83      1.0000 0.53410  0.27210  0.01390  Biso   1.000  C
  H34      1.0000 0.57900  0.26980  0.02800  Biso   1.000  H
  C84      1.0000 0.52120  0.23840  0.08160  Biso   1.000  C
  C85      1.0000 0.45520  0.24130  0.06060  Biso   1.000  C
  H35      1.0000 0.44650  0.21970  0.10740  Biso   1.000  H
  C86      1.0000 0.40230  0.27630  0.97030  Biso   1.000  C
  C87      1.0000 0.41550  0.31120  0.90410  Biso   1.000  C
  H36      1.0000 0.37940  0.33670  0.84350  Biso   1.000  H
  C88      1.0000 0.32270  0.60920  0.61150  Biso   1.000  C
  C89      1.0000 0.57970  0.20260  0.17930  Biso   1.000  C
  C90      1.0000 0.32930  0.27700  0.94080  Biso   1.000  C
  N6       1.0000 0.38340  0.30390  0.65620  Biso   1.000  N
  O46      1.0000 0.33080  0.67830  0.65540  Biso   1.000  O
  O47      1.0000 0.27860  0.59320  0.52050  Biso   1.000  O
  O48      1.0000 0.34780  0.29780  0.56480  Biso   1.000  O
  O49      1.0000 0.40600  0.24290  0.71220  Biso   1.000  O
  O50      1.0000 0.28602  0.31770  0.86430  Biso   1.000  O
  O51      1.0000 0.31386  0.23810  0.99380  Biso   1.000  O
  O52      1.0000 0.56833  0.17760  0.24330  Biso   1.000  O
  O53      1.0000 0.63821  0.19980  0.19570  Biso   1.000  O
  O54      1.0000 0.49745  0.34170  0.86220  Biso   1.000  O
  Eu7      1.0000 0.81039  0.67202  0.12190  Biso   1.000  Eu
  C91      1.0000 0.13010  0.03810  0.82490  Biso   1.000  C
  C92      1.0000 0.14180  0.95560  0.86140  Biso   1.000  C
  H37      1.0000 0.17870  0.94440  0.92860  Biso   1.000  H
  C93      1.0000 0.10020  0.88920  0.80080  Biso   1.000  C
  C94      1.0000 0.04600  0.90520  0.70190  Biso   1.000  C
  C95      1.0000 0.03290  0.98760  0.66680  Biso   1.000  C
  H38      1.0000 0.99490  0.99910  0.60040  Biso   1.000  H
  C96      1.0000 0.07410  0.05340  0.72660  Biso   1.000  C
  H39      1.0000 0.06460  0.10980  0.70090  Biso   1.000  H
  C97      1.0000 0.01880  0.80890  0.57370  Biso   1.000  C
  C98      1.0000 0.96590  0.77210  0.48610  Biso   1.000  C
  H40      1.0000 0.92100  0.76980  0.47200  Biso   1.000  H
  C99      1.0000 0.97880  0.73840  0.41840  Biso   1.000  C
  C100     1.0000 0.04480  0.74130  0.43940  Biso   1.000  C
  H41      1.0000 0.05350  0.71970  0.39260  Biso   1.000  H
  C101     1.0000 0.09770  0.77630  0.52970  Biso   1.000  C
  C102     1.0000 0.08450  0.81120  0.59590  Biso   1.000  C
  H42      1.0000 0.12060  0.83670  0.65650  Biso   1.000  H
  C103     1.0000 0.17730  0.10920  0.88850  Biso   1.000  C
  C104     1.0000 0.92030  0.70260  0.32070  Biso   1.000  C
  C105     1.0000 0.17070  0.77700  0.55920  Biso   1.000  C
  N7       1.0000 0.11660  0.80390  0.84380  Biso   1.000  N
  O55      1.0000 0.16920  0.17830  0.84460  Biso   1.000  O
  O56      1.0000 0.22140  0.09320  0.97950  Biso   1.000  O
  O57      1.0000 0.15220  0.79780  0.93520  Biso   1.000  O
  O58      1.0000 0.09400  0.74290  0.78780  Biso   1.000  O
  O59      1.0000 0.21398  0.81770  0.63570  Biso   1.000  O
  O60      1.0000 0.18614  0.73810  0.50620  Biso   1.000  O
  O61      1.0000 0.93167  0.67760  0.25670  Biso   1.000  O
  O62      1.0000 0.86179  0.69980  0.30430  Biso   1.000  O
  O63      1.0000 0.00255  0.84170  0.63780  Biso   1.000  O
  Eu8      1.0000 0.31039  0.17202  0.12190  Biso   1.000  Eu
  C106     1.0000 0.63010  0.53810  0.82490  Biso   1.000  C
  C107     1.0000 0.64180  0.45560  0.86140  Biso   1.000  C
  H43      1.0000 0.67870  0.44440  0.92860  Biso   1.000  H
  C108     1.0000 0.60020  0.38920  0.80080  Biso   1.000  C
  C109     1.0000 0.54600  0.40520  0.70190  Biso   1.000  C
  C110     1.0000 0.53290  0.48760  0.66680  Biso   1.000  C
  H44      1.0000 0.49490  0.49910  0.60040  Biso   1.000  H
  C111     1.0000 0.57410  0.55340  0.72660  Biso   1.000  C
  H45      1.0000 0.56460  0.60980  0.70090  Biso   1.000  H
  C112     1.0000 0.51880  0.30890  0.57370  Biso   1.000  C
  C113     1.0000 0.46590  0.27210  0.48610  Biso   1.000  C
  H46      1.0000 0.42100  0.26980  0.47200  Biso   1.000  H
  C114     1.0000 0.47880  0.23840  0.41840  Biso   1.000  C
  C115     1.0000 0.54480  0.24130  0.43940  Biso   1.000  C
  H47      1.0000 0.55350  0.21970  0.39260  Biso   1.000  H
  C116     1.0000 0.59770  0.27630  0.52970  Biso   1.000  C
  C117     1.0000 0.58450  0.31120  0.59590  Biso   1.000  C
  H48      1.0000 0.62060  0.33670  0.65650  Biso   1.000  H
  C118     1.0000 0.67730  0.60920  0.88850  Biso   1.000  C
  C119     1.0000 0.42030  0.20260  0.32070  Biso   1.000  C
  C120     1.0000 0.67070  0.27700  0.55920  Biso   1.000  C
  N8       1.0000 0.61660  0.30390  0.84380  Biso   1.000  N
  O64      1.0000 0.66920  0.67830  0.84460  Biso   1.000  O
  O65      1.0000 0.72140  0.59320  0.97950  Biso   1.000  O
  O66      1.0000 0.65220  0.29780  0.93520  Biso   1.000  O
  O67      1.0000 0.59400  0.24290  0.78780  Biso   1.000  O
  O68      1.0000 0.71398  0.31770  0.63570  Biso   1.000  O
  O69      1.0000 0.68614  0.23810  0.50620  Biso   1.000  O
  O70      1.0000 0.43167  0.17760  0.25670  Biso   1.000  O
  O71      1.0000 0.36179  0.19980  0.30430  Biso   1.000  O
  O72      1.0000 0.50255  0.34170  0.63780  Biso   1.000  O
