data_image0
_cell_length_a       23.571
_cell_length_b       15.673
_cell_length_c       16.082
_cell_angle_alpha    90
_cell_angle_beta     124.154
_cell_angle_gamma    90

_symmetry_space_group_name_H-M    "P 1"
_symmetry_int_tables_number       1

loop_
  _symmetry_equiv_pos_as_xyz
  'x, y, z'

loop_
  _atom_site_label
  _atom_site_occupancy
  _atom_site_fract_x
  _atom_site_fract_y
  _atom_site_fract_z
  _atom_site_thermal_displace_type
  _atom_site_B_iso_or_equiv
  _atom_site_type_symbol
  Dy1      1.0000 0.81048  0.67198  0.62354  Biso   1.000  Dy
  C1       1.0000 0.13280  0.03950  0.32650  Biso   1.000  C
  C2       1.0000 0.14360  0.95730  0.36270  Biso   1.000  C
  H1       1.0000 0.17990  0.94600  0.43040  Biso   1.000  H
  C3       1.0000 0.10240  0.89110  0.30250  Biso   1.000  C
  C4       1.0000 0.04790  0.90690  0.20340  Biso   1.000  C
  C5       1.0000 0.03440  0.99000  0.16750  Biso   1.000  C
  H2       1.0000 0.99600  0.00190  0.10160  Biso   1.000  H
  C6       1.0000 0.07700  0.05540  0.22780  Biso   1.000  C
  H3       1.0000 0.06830  0.11190  0.20210  Biso   1.000  H
  C7       1.0000 0.01940  0.81020  0.07350  Biso   1.000  C
  C8       1.0000 0.08500  0.81060  0.09570  Biso   1.000  C
  H4       1.0000 0.12160  0.83480  0.15680  Biso   1.000  H
  C9       1.0000 0.09720  0.77530  0.02800  Biso   1.000  C
  C10      1.0000 0.04350  0.74060  0.93790  Biso   1.000  C
  H5       1.0000 0.05140  0.71830  0.89030  Biso   1.000  H
  C11      1.0000 0.97770  0.73920  0.91840  Biso   1.000  C
  C12      1.0000 0.96620  0.77340  0.98740  Biso   1.000  C
  H6       1.0000 0.92180  0.77120  0.97500  Biso   1.000  H
  C13      1.0000 0.17970  0.11080  0.39070  Biso   1.000  C
  C14      1.0000 0.16930  0.77420  0.05530  Biso   1.000  C
  C15      1.0000 0.91900  0.70380  0.82010  Biso   1.000  C
  N1       1.0000 0.11770  0.80540  0.34480  Biso   1.000  N
  O1       1.0000 0.17250  0.17970  0.34560  Biso   1.000  O
  O2       1.0000 0.22210  0.09580  0.48210  Biso   1.000  O
  O3       1.0000 0.15330  0.79950  0.43700  Biso   1.000  O
  O4       1.0000 0.09490  0.74370  0.28880  Biso   1.000  O
  O5       1.0000 0.21430  0.81260  0.13300  Biso   1.000  O
  O6       1.0000 0.18250  0.73420  0.99950  Biso   1.000  O
  O7       1.0000 0.92950  0.67900  0.75470  Biso   1.000  O
  O8       1.0000 0.86050  0.70100  0.80430  Biso   1.000  O
  O9       1.0000 0.00350  0.84390  0.13870  Biso   1.000  O
  Dy2      1.0000 0.31048  0.17198  0.62354  Biso   1.000  Dy
  C16      1.0000 0.63280  0.53950  0.32650  Biso   1.000  C
  C17      1.0000 0.64360  0.45730  0.36270  Biso   1.000  C
  H7       1.0000 0.67990  0.44600  0.43040  Biso   1.000  H
  C18      1.0000 0.60240  0.39110  0.30250  Biso   1.000  C
  C19      1.0000 0.54790  0.40690  0.20340  Biso   1.000  C
  C20      1.0000 0.53440  0.49000  0.16750  Biso   1.000  C
  H8       1.0000 0.49600  0.50190  0.10160  Biso   1.000  H
  C21      1.0000 0.57700  0.55540  0.22780  Biso   1.000  C
  H9       1.0000 0.56830  0.61190  0.20210  Biso   1.000  H
  C22      1.0000 0.51940  0.31020  0.07350  Biso   1.000  C
  C23      1.0000 0.58500  0.31060  0.09570  Biso   1.000  C
  H10      1.0000 0.62160  0.33480  0.15680  Biso   1.000  H
  C24      1.0000 0.59720  0.27530  0.02800  Biso   1.000  C
  C25      1.0000 0.54350  0.24060  0.93790  Biso   1.000  C
  H11      1.0000 0.55140  0.21830  0.89030  Biso   1.000  H
  C26      1.0000 0.47770  0.23920  0.91840  Biso   1.000  C
  C27      1.0000 0.46620  0.27340  0.98740  Biso   1.000  C
  H12      1.0000 0.42180  0.27120  0.97500  Biso   1.000  H
  C28      1.0000 0.67970  0.61080  0.39070  Biso   1.000  C
  C29      1.0000 0.66930  0.27420  0.05530  Biso   1.000  C
  C30      1.0000 0.41900  0.20380  0.82010  Biso   1.000  C
  N2       1.0000 0.61770  0.30540  0.34480  Biso   1.000  N
  O10      1.0000 0.67250  0.67970  0.34560  Biso   1.000  O
  O11      1.0000 0.72210  0.59580  0.48210  Biso   1.000  O
  O12      1.0000 0.65330  0.29950  0.43700  Biso   1.000  O
  O13      1.0000 0.59490  0.24370  0.28880  Biso   1.000  O
  O14      1.0000 0.71430  0.31260  0.13300  Biso   1.000  O
  O15      1.0000 0.68250  0.23420  0.99950  Biso   1.000  O
  O16      1.0000 0.42950  0.17900  0.75470  Biso   1.000  O
  O17      1.0000 0.36050  0.20100  0.80430  Biso   1.000  O
  O18      1.0000 0.50350  0.34390  0.13870  Biso   1.000  O
  Dy3      1.0000 0.18952  0.67198  0.87646  Biso   1.000  Dy
  C31      1.0000 0.86720  0.03950  0.17350  Biso   1.000  C
  C32      1.0000 0.85640  0.95730  0.13730  Biso   1.000  C
  H13      1.0000 0.82010  0.94600  0.06960  Biso   1.000  H
  C33      1.0000 0.89760  0.89110  0.19750  Biso   1.000  C
  C34      1.0000 0.95210  0.90690  0.29660  Biso   1.000  C
  C35      1.0000 0.96560  0.99000  0.33250  Biso   1.000  C
  H14      1.0000 0.00400  0.00190  0.39840  Biso   1.000  H
  C36      1.0000 0.92300  0.05540  0.27220  Biso   1.000  C
  H15      1.0000 0.93170  0.11190  0.29790  Biso   1.000  H
  C37      1.0000 0.98060  0.81020  0.42650  Biso   1.000  C
  C38      1.0000 0.91500  0.81060  0.40430  Biso   1.000  C
  H16      1.0000 0.87840  0.83480  0.34320  Biso   1.000  H
  C39      1.0000 0.90280  0.77530  0.47200  Biso   1.000  C
  C40      1.0000 0.95650  0.74060  0.56210  Biso   1.000  C
  H17      1.0000 0.94860  0.71830  0.60970  Biso   1.000  H
  C41      1.0000 0.02230  0.73920  0.58160  Biso   1.000  C
  C42      1.0000 0.03380  0.77340  0.51260  Biso   1.000  C
  H18      1.0000 0.07820  0.77120  0.52500  Biso   1.000  H
  C43      1.0000 0.82030  0.11080  0.10930  Biso   1.000  C
  C44      1.0000 0.83070  0.77420  0.44470  Biso   1.000  C
  C45      1.0000 0.08100  0.70380  0.67990  Biso   1.000  C
  N3       1.0000 0.88230  0.80540  0.15520  Biso   1.000  N
  O19      1.0000 0.82750  0.17970  0.15440  Biso   1.000  O
  O20      1.0000 0.77790  0.09580  0.01790  Biso   1.000  O
  O21      1.0000 0.84670  0.79950  0.06300  Biso   1.000  O
  O22      1.0000 0.90510  0.74370  0.21120  Biso   1.000  O
  O23      1.0000 0.78570  0.81260  0.36700  Biso   1.000  O
  O24      1.0000 0.81750  0.73420  0.50050  Biso   1.000  O
  O25      1.0000 0.07050  0.67900  0.74530  Biso   1.000  O
  O26      1.0000 0.13950  0.70100  0.69570  Biso   1.000  O
  O27      1.0000 0.99650  0.84390  0.36130  Biso   1.000  O
  Dy4      1.0000 0.68952  0.17198  0.87646  Biso   1.000  Dy
  C46      1.0000 0.36720  0.53950  0.17350  Biso   1.000  C
  C47      1.0000 0.35640  0.45730  0.13730  Biso   1.000  C
  H19      1.0000 0.32010  0.44600  0.06960  Biso   1.000  H
  C48      1.0000 0.39760  0.39110  0.19750  Biso   1.000  C
  C49      1.0000 0.45210  0.40690  0.29660  Biso   1.000  C
  C50      1.0000 0.46560  0.49000  0.33250  Biso   1.000  C
  H20      1.0000 0.50400  0.50190  0.39840  Biso   1.000  H
  C51      1.0000 0.42300  0.55540  0.27220  Biso   1.000  C
  H21      1.0000 0.43170  0.61190  0.29790  Biso   1.000  H
  C52      1.0000 0.48060  0.31020  0.42650  Biso   1.000  C
  C53      1.0000 0.41500  0.31060  0.40430  Biso   1.000  C
  H22      1.0000 0.37840  0.33480  0.34320  Biso   1.000  H
  C54      1.0000 0.40280  0.27530  0.47200  Biso   1.000  C
  C55      1.0000 0.45650  0.24060  0.56210  Biso   1.000  C
  H23      1.0000 0.44860  0.21830  0.60970  Biso   1.000  H
  C56      1.0000 0.52230  0.23920  0.58160  Biso   1.000  C
  C57      1.0000 0.53380  0.27340  0.51260  Biso   1.000  C
  H24      1.0000 0.57820  0.27120  0.52500  Biso   1.000  H
  C58      1.0000 0.32030  0.61080  0.10930  Biso   1.000  C
  C59      1.0000 0.33070  0.27420  0.44470  Biso   1.000  C
  C60      1.0000 0.58100  0.20380  0.67990  Biso   1.000  C
  N4       1.0000 0.38230  0.30540  0.15520  Biso   1.000  N
  O28      1.0000 0.32750  0.67970  0.15440  Biso   1.000  O
  O29      1.0000 0.27790  0.59580  0.01790  Biso   1.000  O
  O30      1.0000 0.34670  0.29950  0.06300  Biso   1.000  O
  O31      1.0000 0.40510  0.24370  0.21120  Biso   1.000  O
  O32      1.0000 0.28570  0.31260  0.36700  Biso   1.000  O
  O33      1.0000 0.31750  0.23420  0.50050  Biso   1.000  O
  O34      1.0000 0.57050  0.17900  0.74530  Biso   1.000  O
  O35      1.0000 0.63950  0.20100  0.69570  Biso   1.000  O
  O36      1.0000 0.49650  0.34390  0.36130  Biso   1.000  O
  Dy5      1.0000 0.18952  0.32802  0.37646  Biso   1.000  Dy
  C61      1.0000 0.86720  0.96050  0.67350  Biso   1.000  C
  C62      1.0000 0.85640  0.04270  0.63730  Biso   1.000  C
  H25      1.0000 0.82010  0.05400  0.56960  Biso   1.000  H
  C63      1.0000 0.89760  0.10890  0.69750  Biso   1.000  C
  C64      1.0000 0.95210  0.09310  0.79660  Biso   1.000  C
  C65      1.0000 0.96560  0.01000  0.83250  Biso   1.000  C
  H26      1.0000 0.00400  0.99810  0.89840  Biso   1.000  H
  C66      1.0000 0.92300  0.94460  0.77220  Biso   1.000  C
  H27      1.0000 0.93170  0.88810  0.79790  Biso   1.000  H
  C67      1.0000 0.98060  0.18980  0.92650  Biso   1.000  C
  C68      1.0000 0.91500  0.18940  0.90430  Biso   1.000  C
  H28      1.0000 0.87840  0.16520  0.84320  Biso   1.000  H
  C69      1.0000 0.90280  0.22470  0.97200  Biso   1.000  C
  C70      1.0000 0.95650  0.25940  0.06210  Biso   1.000  C
  H29      1.0000 0.94860  0.28170  0.10970  Biso   1.000  H
  C71      1.0000 0.02230  0.26080  0.08160  Biso   1.000  C
  C72      1.0000 0.03380  0.22660  0.01260  Biso   1.000  C
  H30      1.0000 0.07820  0.22880  0.02500  Biso   1.000  H
  C73      1.0000 0.82030  0.88920  0.60930  Biso   1.000  C
  C74      1.0000 0.83070  0.22580  0.94470  Biso   1.000  C
  C75      1.0000 0.08100  0.29620  0.17990  Biso   1.000  C
  N5       1.0000 0.88230  0.19460  0.65520  Biso   1.000  N
  O37      1.0000 0.82750  0.82030  0.65440  Biso   1.000  O
  O38      1.0000 0.77790  0.90420  0.51790  Biso   1.000  O
  O39      1.0000 0.84670  0.20050  0.56300  Biso   1.000  O
  O40      1.0000 0.90510  0.25630  0.71120  Biso   1.000  O
  O41      1.0000 0.78570  0.18740  0.86700  Biso   1.000  O
  O42      1.0000 0.81750  0.26580  0.00050  Biso   1.000  O
  O43      1.0000 0.07050  0.32100  0.24530  Biso   1.000  O
  O44      1.0000 0.13950  0.29900  0.19570  Biso   1.000  O
  O45      1.0000 0.99650  0.15610  0.86130  Biso   1.000  O
  Dy6      1.0000 0.68952  0.82802  0.37646  Biso   1.000  Dy
  C76      1.0000 0.36720  0.46050  0.67350  Biso   1.000  C
  C77      1.0000 0.35640  0.54270  0.63730  Biso   1.000  C
  H31      1.0000 0.32010  0.55400  0.56960  Biso   1.000  H
  C78      1.0000 0.39760  0.60890  0.69750  Biso   1.000  C
  C79      1.0000 0.45210  0.59310  0.79660  Biso   1.000  C
  C80      1.0000 0.46560  0.51000  0.83250  Biso   1.000  C
  H32      1.0000 0.50400  0.49810  0.89840  Biso   1.000  H
  C81      1.0000 0.42300  0.44460  0.77220  Biso   1.000  C
  H33      1.0000 0.43170  0.38810  0.79790  Biso   1.000  H
  C82      1.0000 0.48060  0.68980  0.92650  Biso   1.000  C
  C83      1.0000 0.41500  0.68940  0.90430  Biso   1.000  C
  H34      1.0000 0.37840  0.66520  0.84320  Biso   1.000  H
  C84      1.0000 0.40280  0.72470  0.97200  Biso   1.000  C
  C85      1.0000 0.45650  0.75940  0.06210  Biso   1.000  C
  H35      1.0000 0.44860  0.78170  0.10970  Biso   1.000  H
  C86      1.0000 0.52230  0.76080  0.08160  Biso   1.000  C
  C87      1.0000 0.53380  0.72660  0.01260  Biso   1.000  C
  H36      1.0000 0.57820  0.72880  0.02500  Biso   1.000  H
  C88      1.0000 0.32030  0.38920  0.60930  Biso   1.000  C
  C89      1.0000 0.33070  0.72580  0.94470  Biso   1.000  C
  C90      1.0000 0.58100  0.79620  0.17990  Biso   1.000  C
  N6       1.0000 0.38230  0.69460  0.65520  Biso   1.000  N
  O46      1.0000 0.32750  0.32030  0.65440  Biso   1.000  O
  O47      1.0000 0.27790  0.40420  0.51790  Biso   1.000  O
  O48      1.0000 0.34670  0.70050  0.56300  Biso   1.000  O
  O49      1.0000 0.40510  0.75630  0.71120  Biso   1.000  O
  O50      1.0000 0.28570  0.68740  0.86700  Biso   1.000  O
  O51      1.0000 0.31750  0.76580  0.00050  Biso   1.000  O
  O52      1.0000 0.57050  0.82100  0.24530  Biso   1.000  O
  O53      1.0000 0.63950  0.79900  0.19570  Biso   1.000  O
  O54      1.0000 0.49650  0.65610  0.86130  Biso   1.000  O
  Dy7      1.0000 0.81048  0.32802  0.12354  Biso   1.000  Dy
  C91      1.0000 0.13280  0.96050  0.82650  Biso   1.000  C
  C92      1.0000 0.14360  0.04270  0.86270  Biso   1.000  C
  H37      1.0000 0.17990  0.05400  0.93040  Biso   1.000  H
  C93      1.0000 0.10240  0.10890  0.80250  Biso   1.000  C
  C94      1.0000 0.04790  0.09310  0.70340  Biso   1.000  C
  C95      1.0000 0.03440  0.01000  0.66750  Biso   1.000  C
  H38      1.0000 0.99600  0.99810  0.60160  Biso   1.000  H
  C96      1.0000 0.07700  0.94460  0.72780  Biso   1.000  C
  H39      1.0000 0.06830  0.88810  0.70210  Biso   1.000  H
  C97      1.0000 0.01940  0.18980  0.57350  Biso   1.000  C
  C98      1.0000 0.08500  0.18940  0.59570  Biso   1.000  C
  H40      1.0000 0.12160  0.16520  0.65680  Biso   1.000  H
  C99      1.0000 0.09720  0.22470  0.52800  Biso   1.000  C
  C100     1.0000 0.04350  0.25940  0.43790  Biso   1.000  C
  H41      1.0000 0.05140  0.28170  0.39030  Biso   1.000  H
  C101     1.0000 0.97770  0.26080  0.41840  Biso   1.000  C
  C102     1.0000 0.96620  0.22660  0.48740  Biso   1.000  C
  H42      1.0000 0.92180  0.22880  0.47500  Biso   1.000  H
  C103     1.0000 0.17970  0.88920  0.89070  Biso   1.000  C
  C104     1.0000 0.16930  0.22580  0.55530  Biso   1.000  C
  C105     1.0000 0.91900  0.29620  0.32010  Biso   1.000  C
  N7       1.0000 0.11770  0.19460  0.84480  Biso   1.000  N
  O55      1.0000 0.17250  0.82030  0.84560  Biso   1.000  O
  O56      1.0000 0.22210  0.90420  0.98210  Biso   1.000  O
  O57      1.0000 0.15330  0.20050  0.93700  Biso   1.000  O
  O58      1.0000 0.09490  0.25630  0.78880  Biso   1.000  O
  O59      1.0000 0.21430  0.18740  0.63300  Biso   1.000  O
  O60      1.0000 0.18250  0.26580  0.49950  Biso   1.000  O
  O61      1.0000 0.92950  0.32100  0.25470  Biso   1.000  O
  O62      1.0000 0.86050  0.29900  0.30430  Biso   1.000  O
  O63      1.0000 0.00350  0.15610  0.63870  Biso   1.000  O
  Dy8      1.0000 0.31048  0.82802  0.12354  Biso   1.000  Dy
  C106     1.0000 0.63280  0.46050  0.82650  Biso   1.000  C
  C107     1.0000 0.64360  0.54270  0.86270  Biso   1.000  C
  H43      1.0000 0.67990  0.55400  0.93040  Biso   1.000  H
  C108     1.0000 0.60240  0.60890  0.80250  Biso   1.000  C
  C109     1.0000 0.54790  0.59310  0.70340  Biso   1.000  C
  C110     1.0000 0.53440  0.51000  0.66750  Biso   1.000  C
  H44      1.0000 0.49600  0.49810  0.60160  Biso   1.000  H
  C111     1.0000 0.57700  0.44460  0.72780  Biso   1.000  C
  H45      1.0000 0.56830  0.38810  0.70210  Biso   1.000  H
  C112     1.0000 0.51940  0.68980  0.57350  Biso   1.000  C
  C113     1.0000 0.58500  0.68940  0.59570  Biso   1.000  C
  H46      1.0000 0.62160  0.66520  0.65680  Biso   1.000  H
  C114     1.0000 0.59720  0.72470  0.52800  Biso   1.000  C
  C115     1.0000 0.54350  0.75940  0.43790  Biso   1.000  C
  H47      1.0000 0.55140  0.78170  0.39030  Biso   1.000  H
  C116     1.0000 0.47770  0.76080  0.41840  Biso   1.000  C
  C117     1.0000 0.46620  0.72660  0.48740  Biso   1.000  C
  H48      1.0000 0.42180  0.72880  0.47500  Biso   1.000  H
  C118     1.0000 0.67970  0.38920  0.89070  Biso   1.000  C
  C119     1.0000 0.66930  0.72580  0.55530  Biso   1.000  C
  C120     1.0000 0.41900  0.79620  0.32010  Biso   1.000  C
  N8       1.0000 0.61770  0.69460  0.84480  Biso   1.000  N
  O64      1.0000 0.67250  0.32030  0.84560  Biso   1.000  O
  O65      1.0000 0.72210  0.40420  0.98210  Biso   1.000  O
  O66      1.0000 0.65330  0.70050  0.93700  Biso   1.000  O
  O67      1.0000 0.59490  0.75630  0.78880  Biso   1.000  O
  O68      1.0000 0.71430  0.68740  0.63300  Biso   1.000  O
  O69      1.0000 0.68250  0.76580  0.49950  Biso   1.000  O
  O70      1.0000 0.42950  0.82100  0.25470  Biso   1.000  O
  O71      1.0000 0.36050  0.79900  0.30430  Biso   1.000  O
  O72      1.0000 0.50350  0.65610  0.63870  Biso   1.000  O
