data_image0
_cell_length_a       23.483
_cell_length_b       15.623
_cell_length_c       15.964
_cell_angle_alpha    90
_cell_angle_beta     124.008
_cell_angle_gamma    90

_symmetry_space_group_name_H-M    "P 1"
_symmetry_int_tables_number       1

loop_
  _symmetry_equiv_pos_as_xyz
  'x, y, z'

loop_
  _atom_site_label
  _atom_site_occupancy
  _atom_site_fract_x
  _atom_site_fract_y
  _atom_site_fract_z
  _atom_site_thermal_displace_type
  _atom_site_B_iso_or_equiv
  _atom_site_type_symbol
  Er1      1.0000 0.81079  0.32804  0.62501  Biso   1.000  Er
  C1       1.0000 0.13410  0.95860  0.32830  Biso   1.000  C
  C2       1.0000 0.14460  0.04190  0.36400  Biso   1.000  C
  H1       1.0000 0.18120  0.05360  0.43180  Biso   1.000  H
  C3       1.0000 0.10330  0.10790  0.30380  Biso   1.000  C
  C4       1.0000 0.04880  0.09160  0.20410  Biso   1.000  C
  C5       1.0000 0.03660  0.00820  0.16980  Biso   1.000  C
  H2       1.0000 0.99840  0.99620  0.10330  Biso   1.000  H
  C6       1.0000 0.07860  0.94190  0.22970  Biso   1.000  C
  H3       1.0000 0.06970  0.88520  0.20400  Biso   1.000  H
  C7       1.0000 0.01940  0.18960  0.07460  Biso   1.000  C
  C8       1.0000 0.08470  0.18940  0.09560  Biso   1.000  C
  H4       1.0000 0.12150  0.16460  0.15650  Biso   1.000  H
  C9       1.0000 0.09660  0.22580  0.02690  Biso   1.000  C
  C10      1.0000 0.04260  0.25890  0.93750  Biso   1.000  C
  H5       1.0000 0.04990  0.28080  0.88880  Biso   1.000  H
  C11      1.0000 0.97730  0.26010  0.91860  Biso   1.000  C
  C12      1.0000 0.96530  0.22550  0.98720  Biso   1.000  C
  H6       1.0000 0.92060  0.22640  0.97420  Biso   1.000  H
  C13      1.0000 0.18170  0.88730  0.39200  Biso   1.000  C
  C14      1.0000 0.16820  0.22850  0.05260  Biso   1.000  C
  C15      1.0000 0.91840  0.29570  0.82080  Biso   1.000  C
  N1       1.0000 0.11810  0.19300  0.34540  Biso   1.000  N
  O1       1.0000 0.17460  0.81880  0.34700  Biso   1.000  O
  O2       1.0000 0.22350  0.90250  0.48440  Biso   1.000  O
  O3       1.0000 0.15360  0.19910  0.43840  Biso   1.000  O
  O4       1.0000 0.09590  0.25430  0.29010  Biso   1.000  O
  O5       1.0000 0.21480  0.19050  0.13050  Biso   1.000  O
  O6       1.0000 0.17990  0.26810  0.99560  Biso   1.000  O
  O7       1.0000 0.92780  0.32030  0.75370  Biso   1.000  O
  O8       1.0000 0.85930  0.29760  0.80470  Biso   1.000  O
  O9       1.0000 0.00430  0.15430  0.13980  Biso   1.000  O
  Er2      1.0000 0.31079  0.82804  0.62501  Biso   1.000  Er
  C16      1.0000 0.63410  0.45860  0.32830  Biso   1.000  C
  C17      1.0000 0.64460  0.54190  0.36400  Biso   1.000  C
  H7       1.0000 0.68120  0.55360  0.43180  Biso   1.000  H
  C18      1.0000 0.60330  0.60790  0.30380  Biso   1.000  C
  C19      1.0000 0.54880  0.59160  0.20410  Biso   1.000  C
  C20      1.0000 0.53660  0.50820  0.16980  Biso   1.000  C
  H8       1.0000 0.49840  0.49620  0.10330  Biso   1.000  H
  C21      1.0000 0.57860  0.44190  0.22970  Biso   1.000  C
  H9       1.0000 0.56970  0.38520  0.20400  Biso   1.000  H
  C22      1.0000 0.51940  0.68960  0.07460  Biso   1.000  C
  C23      1.0000 0.58470  0.68940  0.09560  Biso   1.000  C
  H10      1.0000 0.62150  0.66460  0.15650  Biso   1.000  H
  C24      1.0000 0.59660  0.72580  0.02690  Biso   1.000  C
  C25      1.0000 0.54260  0.75890  0.93750  Biso   1.000  C
  H11      1.0000 0.54990  0.78080  0.88880  Biso   1.000  H
  C26      1.0000 0.47730  0.76010  0.91860  Biso   1.000  C
  C27      1.0000 0.46530  0.72550  0.98720  Biso   1.000  C
  H12      1.0000 0.42060  0.72640  0.97420  Biso   1.000  H
  C28      1.0000 0.68170  0.38730  0.39200  Biso   1.000  C
  C29      1.0000 0.66820  0.72850  0.05260  Biso   1.000  C
  C30      1.0000 0.41840  0.79570  0.82080  Biso   1.000  C
  N2       1.0000 0.61810  0.69300  0.34540  Biso   1.000  N
  O10      1.0000 0.67460  0.31880  0.34700  Biso   1.000  O
  O11      1.0000 0.72350  0.40250  0.48440  Biso   1.000  O
  O12      1.0000 0.65360  0.69910  0.43840  Biso   1.000  O
  O13      1.0000 0.59590  0.75430  0.29010  Biso   1.000  O
  O14      1.0000 0.71480  0.69050  0.13050  Biso   1.000  O
  O15      1.0000 0.67990  0.76810  0.99560  Biso   1.000  O
  O16      1.0000 0.42780  0.82030  0.75370  Biso   1.000  O
  O17      1.0000 0.35930  0.79760  0.80470  Biso   1.000  O
  O18      1.0000 0.50430  0.65430  0.13980  Biso   1.000  O
  Er3      1.0000 0.18921  0.32804  0.87499  Biso   1.000  Er
  C31      1.0000 0.86590  0.95860  0.17170  Biso   1.000  C
  C32      1.0000 0.85540  0.04190  0.13600  Biso   1.000  C
  H13      1.0000 0.81880  0.05360  0.06820  Biso   1.000  H
  C33      1.0000 0.89670  0.10790  0.19620  Biso   1.000  C
  C34      1.0000 0.95120  0.09160  0.29590  Biso   1.000  C
  C35      1.0000 0.96340  0.00820  0.33020  Biso   1.000  C
  H14      1.0000 0.00160  0.99620  0.39670  Biso   1.000  H
  C36      1.0000 0.92140  0.94190  0.27030  Biso   1.000  C
  H15      1.0000 0.93030  0.88520  0.29600  Biso   1.000  H
  C37      1.0000 0.98060  0.18960  0.42540  Biso   1.000  C
  C38      1.0000 0.91530  0.18940  0.40440  Biso   1.000  C
  H16      1.0000 0.87850  0.16460  0.34350  Biso   1.000  H
  C39      1.0000 0.90340  0.22580  0.47310  Biso   1.000  C
  C40      1.0000 0.95740  0.25890  0.56250  Biso   1.000  C
  H17      1.0000 0.95010  0.28080  0.61120  Biso   1.000  H
  C41      1.0000 0.02270  0.26010  0.58140  Biso   1.000  C
  C42      1.0000 0.03470  0.22550  0.51280  Biso   1.000  C
  H18      1.0000 0.07940  0.22640  0.52580  Biso   1.000  H
  C43      1.0000 0.81830  0.88730  0.10800  Biso   1.000  C
  C44      1.0000 0.83180  0.22850  0.44740  Biso   1.000  C
  C45      1.0000 0.08160  0.29570  0.67920  Biso   1.000  C
  N3       1.0000 0.88190  0.19300  0.15460  Biso   1.000  N
  O19      1.0000 0.82540  0.81880  0.15300  Biso   1.000  O
  O20      1.0000 0.77650  0.90250  0.01560  Biso   1.000  O
  O21      1.0000 0.84640  0.19910  0.06160  Biso   1.000  O
  O22      1.0000 0.90410  0.25430  0.20990  Biso   1.000  O
  O23      1.0000 0.78520  0.19050  0.36950  Biso   1.000  O
  O24      1.0000 0.82010  0.26810  0.50440  Biso   1.000  O
  O25      1.0000 0.07220  0.32030  0.74630  Biso   1.000  O
  O26      1.0000 0.14070  0.29760  0.69530  Biso   1.000  O
  O27      1.0000 0.99570  0.15430  0.36020  Biso   1.000  O
  Er4      1.0000 0.68921  0.82804  0.87499  Biso   1.000  Er
  C46      1.0000 0.36590  0.45860  0.17170  Biso   1.000  C
  C47      1.0000 0.35540  0.54190  0.13600  Biso   1.000  C
  H19      1.0000 0.31880  0.55360  0.06820  Biso   1.000  H
  C48      1.0000 0.39670  0.60790  0.19620  Biso   1.000  C
  C49      1.0000 0.45120  0.59160  0.29590  Biso   1.000  C
  C50      1.0000 0.46340  0.50820  0.33020  Biso   1.000  C
  H20      1.0000 0.50160  0.49620  0.39670  Biso   1.000  H
  C51      1.0000 0.42140  0.44190  0.27030  Biso   1.000  C
  H21      1.0000 0.43030  0.38520  0.29600  Biso   1.000  H
  C52      1.0000 0.48060  0.68960  0.42540  Biso   1.000  C
  C53      1.0000 0.41530  0.68940  0.40440  Biso   1.000  C
  H22      1.0000 0.37850  0.66460  0.34350  Biso   1.000  H
  C54      1.0000 0.40340  0.72580  0.47310  Biso   1.000  C
  C55      1.0000 0.45740  0.75890  0.56250  Biso   1.000  C
  H23      1.0000 0.45010  0.78080  0.61120  Biso   1.000  H
  C56      1.0000 0.52270  0.76010  0.58140  Biso   1.000  C
  C57      1.0000 0.53470  0.72550  0.51280  Biso   1.000  C
  H24      1.0000 0.57940  0.72640  0.52580  Biso   1.000  H
  C58      1.0000 0.31830  0.38730  0.10800  Biso   1.000  C
  C59      1.0000 0.33180  0.72850  0.44740  Biso   1.000  C
  C60      1.0000 0.58160  0.79570  0.67920  Biso   1.000  C
  N4       1.0000 0.38190  0.69300  0.15460  Biso   1.000  N
  O28      1.0000 0.32540  0.31880  0.15300  Biso   1.000  O
  O29      1.0000 0.27650  0.40250  0.01560  Biso   1.000  O
  O30      1.0000 0.34640  0.69910  0.06160  Biso   1.000  O
  O31      1.0000 0.40410  0.75430  0.20990  Biso   1.000  O
  O32      1.0000 0.28520  0.69050  0.36950  Biso   1.000  O
  O33      1.0000 0.32010  0.76810  0.50440  Biso   1.000  O
  O34      1.0000 0.57220  0.82030  0.74630  Biso   1.000  O
  O35      1.0000 0.64070  0.79760  0.69530  Biso   1.000  O
  O36      1.0000 0.49570  0.65430  0.36020  Biso   1.000  O
  Er5      1.0000 0.18921  0.67196  0.37499  Biso   1.000  Er
  C61      1.0000 0.86590  0.04140  0.67170  Biso   1.000  C
  C62      1.0000 0.85540  0.95810  0.63600  Biso   1.000  C
  H25      1.0000 0.81880  0.94640  0.56820  Biso   1.000  H
  C63      1.0000 0.89670  0.89210  0.69620  Biso   1.000  C
  C64      1.0000 0.95120  0.90840  0.79590  Biso   1.000  C
  C65      1.0000 0.96340  0.99180  0.83020  Biso   1.000  C
  H26      1.0000 0.00160  0.00380  0.89670  Biso   1.000  H
  C66      1.0000 0.92140  0.05810  0.77030  Biso   1.000  C
  H27      1.0000 0.93030  0.11480  0.79600  Biso   1.000  H
  C67      1.0000 0.98060  0.81040  0.92540  Biso   1.000  C
  C68      1.0000 0.91530  0.81060  0.90440  Biso   1.000  C
  H28      1.0000 0.87850  0.83540  0.84350  Biso   1.000  H
  C69      1.0000 0.90340  0.77420  0.97310  Biso   1.000  C
  C70      1.0000 0.95740  0.74110  0.06250  Biso   1.000  C
  H29      1.0000 0.95010  0.71920  0.11120  Biso   1.000  H
  C71      1.0000 0.02270  0.73990  0.08140  Biso   1.000  C
  C72      1.0000 0.03470  0.77450  0.01280  Biso   1.000  C
  H30      1.0000 0.07940  0.77360  0.02580  Biso   1.000  H
  C73      1.0000 0.81830  0.11270  0.60800  Biso   1.000  C
  C74      1.0000 0.83180  0.77150  0.94740  Biso   1.000  C
  C75      1.0000 0.08160  0.70430  0.17920  Biso   1.000  C
  N5       1.0000 0.88190  0.80700  0.65460  Biso   1.000  N
  O37      1.0000 0.82540  0.18120  0.65300  Biso   1.000  O
  O38      1.0000 0.77650  0.09750  0.51560  Biso   1.000  O
  O39      1.0000 0.84640  0.80090  0.56160  Biso   1.000  O
  O40      1.0000 0.90410  0.74570  0.70990  Biso   1.000  O
  O41      1.0000 0.78520  0.80950  0.86950  Biso   1.000  O
  O42      1.0000 0.82010  0.73190  0.00440  Biso   1.000  O
  O43      1.0000 0.07220  0.67970  0.24630  Biso   1.000  O
  O44      1.0000 0.14070  0.70240  0.19530  Biso   1.000  O
  O45      1.0000 0.99570  0.84570  0.86020  Biso   1.000  O
  Er6      1.0000 0.68921  0.17196  0.37499  Biso   1.000  Er
  C76      1.0000 0.36590  0.54140  0.67170  Biso   1.000  C
  C77      1.0000 0.35540  0.45810  0.63600  Biso   1.000  C
  H31      1.0000 0.31880  0.44640  0.56820  Biso   1.000  H
  C78      1.0000 0.39670  0.39210  0.69620  Biso   1.000  C
  C79      1.0000 0.45120  0.40840  0.79590  Biso   1.000  C
  C80      1.0000 0.46340  0.49180  0.83020  Biso   1.000  C
  H32      1.0000 0.50160  0.50380  0.89670  Biso   1.000  H
  C81      1.0000 0.42140  0.55810  0.77030  Biso   1.000  C
  H33      1.0000 0.43030  0.61480  0.79600  Biso   1.000  H
  C82      1.0000 0.48060  0.31040  0.92540  Biso   1.000  C
  C83      1.0000 0.41530  0.31060  0.90440  Biso   1.000  C
  H34      1.0000 0.37850  0.33540  0.84350  Biso   1.000  H
  C84      1.0000 0.40340  0.27420  0.97310  Biso   1.000  C
  C85      1.0000 0.45740  0.24110  0.06250  Biso   1.000  C
  H35      1.0000 0.45010  0.21920  0.11120  Biso   1.000  H
  C86      1.0000 0.52270  0.23990  0.08140  Biso   1.000  C
  C87      1.0000 0.53470  0.27450  0.01280  Biso   1.000  C
  H36      1.0000 0.57940  0.27360  0.02580  Biso   1.000  H
  C88      1.0000 0.31830  0.61270  0.60800  Biso   1.000  C
  C89      1.0000 0.33180  0.27150  0.94740  Biso   1.000  C
  C90      1.0000 0.58160  0.20430  0.17920  Biso   1.000  C
  N6       1.0000 0.38190  0.30700  0.65460  Biso   1.000  N
  O46      1.0000 0.32540  0.68120  0.65300  Biso   1.000  O
  O47      1.0000 0.27650  0.59750  0.51560  Biso   1.000  O
  O48      1.0000 0.34640  0.30090  0.56160  Biso   1.000  O
  O49      1.0000 0.40410  0.24570  0.70990  Biso   1.000  O
  O50      1.0000 0.28520  0.30950  0.86950  Biso   1.000  O
  O51      1.0000 0.32010  0.23190  0.00440  Biso   1.000  O
  O52      1.0000 0.57220  0.17970  0.24630  Biso   1.000  O
  O53      1.0000 0.64070  0.20240  0.19530  Biso   1.000  O
  O54      1.0000 0.49570  0.34570  0.86020  Biso   1.000  O
  Er7      1.0000 0.81079  0.67196  0.12501  Biso   1.000  Er
  C91      1.0000 0.13410  0.04140  0.82830  Biso   1.000  C
  C92      1.0000 0.14460  0.95810  0.86400  Biso   1.000  C
  H37      1.0000 0.18120  0.94640  0.93180  Biso   1.000  H
  C93      1.0000 0.10330  0.89210  0.80380  Biso   1.000  C
  C94      1.0000 0.04880  0.90840  0.70410  Biso   1.000  C
  C95      1.0000 0.03660  0.99180  0.66980  Biso   1.000  C
  H38      1.0000 0.99840  0.00380  0.60330  Biso   1.000  H
  C96      1.0000 0.07860  0.05810  0.72970  Biso   1.000  C
  H39      1.0000 0.06970  0.11480  0.70400  Biso   1.000  H
  C97      1.0000 0.01940  0.81040  0.57460  Biso   1.000  C
  C98      1.0000 0.08470  0.81060  0.59560  Biso   1.000  C
  H40      1.0000 0.12150  0.83540  0.65650  Biso   1.000  H
  C99      1.0000 0.09660  0.77420  0.52690  Biso   1.000  C
  C100     1.0000 0.04260  0.74110  0.43750  Biso   1.000  C
  H41      1.0000 0.04990  0.71920  0.38880  Biso   1.000  H
  C101     1.0000 0.97730  0.73990  0.41860  Biso   1.000  C
  C102     1.0000 0.96530  0.77450  0.48720  Biso   1.000  C
  H42      1.0000 0.92060  0.77360  0.47420  Biso   1.000  H
  C103     1.0000 0.18170  0.11270  0.89200  Biso   1.000  C
  C104     1.0000 0.16820  0.77150  0.55260  Biso   1.000  C
  C105     1.0000 0.91840  0.70430  0.32080  Biso   1.000  C
  N7       1.0000 0.11810  0.80700  0.84540  Biso   1.000  N
  O55      1.0000 0.17460  0.18120  0.84700  Biso   1.000  O
  O56      1.0000 0.22350  0.09750  0.98440  Biso   1.000  O
  O57      1.0000 0.15360  0.80090  0.93840  Biso   1.000  O
  O58      1.0000 0.09590  0.74570  0.79010  Biso   1.000  O
  O59      1.0000 0.21480  0.80950  0.63050  Biso   1.000  O
  O60      1.0000 0.17990  0.73190  0.49560  Biso   1.000  O
  O61      1.0000 0.92780  0.67970  0.25370  Biso   1.000  O
  O62      1.0000 0.85930  0.70240  0.30470  Biso   1.000  O
  O63      1.0000 0.00430  0.84570  0.63980  Biso   1.000  O
  Er8      1.0000 0.31079  0.17196  0.12501  Biso   1.000  Er
  C106     1.0000 0.63410  0.54140  0.82830  Biso   1.000  C
  C107     1.0000 0.64460  0.45810  0.86400  Biso   1.000  C
  H43      1.0000 0.68120  0.44640  0.93180  Biso   1.000  H
  C108     1.0000 0.60330  0.39210  0.80380  Biso   1.000  C
  C109     1.0000 0.54880  0.40840  0.70410  Biso   1.000  C
  C110     1.0000 0.53660  0.49180  0.66980  Biso   1.000  C
  H44      1.0000 0.49840  0.50380  0.60330  Biso   1.000  H
  C111     1.0000 0.57860  0.55810  0.72970  Biso   1.000  C
  H45      1.0000 0.56970  0.61480  0.70400  Biso   1.000  H
  C112     1.0000 0.51940  0.31040  0.57460  Biso   1.000  C
  C113     1.0000 0.58470  0.31060  0.59560  Biso   1.000  C
  H46      1.0000 0.62150  0.33540  0.65650  Biso   1.000  H
  C114     1.0000 0.59660  0.27420  0.52690  Biso   1.000  C
  C115     1.0000 0.54260  0.24110  0.43750  Biso   1.000  C
  H47      1.0000 0.54990  0.21920  0.38880  Biso   1.000  H
  C116     1.0000 0.47730  0.23990  0.41860  Biso   1.000  C
  C117     1.0000 0.46530  0.27450  0.48720  Biso   1.000  C
  H48      1.0000 0.42060  0.27360  0.47420  Biso   1.000  H
  C118     1.0000 0.68170  0.61270  0.89200  Biso   1.000  C
  C119     1.0000 0.66820  0.27150  0.55260  Biso   1.000  C
  C120     1.0000 0.41840  0.20430  0.32080  Biso   1.000  C
  N8       1.0000 0.61810  0.30700  0.84540  Biso   1.000  N
  O64      1.0000 0.67460  0.68120  0.84700  Biso   1.000  O
  O65      1.0000 0.72350  0.59750  0.98440  Biso   1.000  O
  O66      1.0000 0.65360  0.30090  0.93840  Biso   1.000  O
  O67      1.0000 0.59590  0.24570  0.79010  Biso   1.000  O
  O68      1.0000 0.71480  0.30950  0.63050  Biso   1.000  O
  O69      1.0000 0.67990  0.23190  0.49560  Biso   1.000  O
  O70      1.0000 0.42780  0.17970  0.25370  Biso   1.000  O
  O71      1.0000 0.35930  0.20240  0.30470  Biso   1.000  O
  O72      1.0000 0.50430  0.34570  0.63980  Biso   1.000  O
