data_image0
_cell_length_a       23.56
_cell_length_b       15.66
_cell_length_c       15.991
_cell_angle_alpha    90
_cell_angle_beta     123.957
_cell_angle_gamma    90

_symmetry_space_group_name_H-M    "P 1"
_symmetry_int_tables_number       1

loop_
  _symmetry_equiv_pos_as_xyz
  'x, y, z'

loop_
  _atom_site_label
  _atom_site_occupancy
  _atom_site_fract_x
  _atom_site_fract_y
  _atom_site_fract_z
  _atom_site_thermal_displace_type
  _atom_site_B_iso_or_equiv
  _atom_site_type_symbol
  Tm1      1.0000 0.81077  0.82809  0.62580  Biso   1.000  Tm
  C1       1.0000 0.13480  0.45860  0.32890  Biso   1.000  C
  C2       1.0000 0.14590  0.54090  0.36510  Biso   1.000  C
  H1       1.0000 0.18250  0.55270  0.43260  Biso   1.000  H
  C3       1.0000 0.10380  0.60640  0.30350  Biso   1.000  C
  C4       1.0000 0.04990  0.59090  0.20500  Biso   1.000  C
  C5       1.0000 0.03740  0.50760  0.16990  Biso   1.000  C
  H2       1.0000 0.99920  0.49560  0.10370  Biso   1.000  H
  C6       1.0000 0.07940  0.44200  0.22970  Biso   1.000  C
  H3       1.0000 0.07100  0.38540  0.20400  Biso   1.000  H
  C7       1.0000 0.02000  0.68940  0.07550  Biso   1.000  C
  C8       1.0000 0.08530  0.68970  0.09560  Biso   1.000  C
  H4       1.0000 0.12220  0.66480  0.15600  Biso   1.000  H
  C9       1.0000 0.09650  0.72650  0.02720  Biso   1.000  C
  C10      1.0000 0.04130  0.75960  0.93660  Biso   1.000  C
  H5       1.0000 0.04820  0.78180  0.88760  Biso   1.000  H
  C11      1.0000 0.97670  0.75980  0.91860  Biso   1.000  C
  C12      1.0000 0.96550  0.72460  0.98840  Biso   1.000  C
  H6       1.0000 0.92110  0.72490  0.97590  Biso   1.000  H
  C13      1.0000 0.18200  0.38670  0.39220  Biso   1.000  C
  C14      1.0000 0.16750  0.72970  0.05140  Biso   1.000  C
  C15      1.0000 0.91740  0.79460  0.82020  Biso   1.000  C
  N1       1.0000 0.11900  0.69200  0.34690  Biso   1.000  N
  O1       1.0000 0.17580  0.31840  0.34720  Biso   1.000  O
  O2       1.0000 0.22410  0.40140  0.48510  Biso   1.000  O
  O3       1.0000 0.15360  0.69870  0.43940  Biso   1.000  O
  O4       1.0000 0.09700  0.75350  0.29070  Biso   1.000  O
  O5       1.0000 0.21480  0.69240  0.12950  Biso   1.000  O
  O6       1.0000 0.17760  0.76970  0.99230  Biso   1.000  O
  O7       1.0000 0.92750  0.81880  0.75410  Biso   1.000  O
  O8       1.0000 0.85940  0.79700  0.80530  Biso   1.000  O
  O9       1.0000 0.00520  0.65380  0.14110  Biso   1.000  O
  Tm2      1.0000 0.31077  0.32809  0.62580  Biso   1.000  Tm
  C16      1.0000 0.63480  0.95860  0.32890  Biso   1.000  C
  C17      1.0000 0.64590  0.04090  0.36510  Biso   1.000  C
  H7       1.0000 0.68250  0.05270  0.43260  Biso   1.000  H
  C18      1.0000 0.60380  0.10640  0.30350  Biso   1.000  C
  C19      1.0000 0.54990  0.09090  0.20500  Biso   1.000  C
  C20      1.0000 0.53740  0.00760  0.16990  Biso   1.000  C
  H8       1.0000 0.49920  0.99560  0.10370  Biso   1.000  H
  C21      1.0000 0.57940  0.94200  0.22970  Biso   1.000  C
  H9       1.0000 0.57100  0.88540  0.20400  Biso   1.000  H
  C22      1.0000 0.52000  0.18940  0.07550  Biso   1.000  C
  C23      1.0000 0.58530  0.18970  0.09560  Biso   1.000  C
  H10      1.0000 0.62220  0.16480  0.15600  Biso   1.000  H
  C24      1.0000 0.59650  0.22650  0.02720  Biso   1.000  C
  C25      1.0000 0.54130  0.25960  0.93660  Biso   1.000  C
  H11      1.0000 0.54820  0.28180  0.88760  Biso   1.000  H
  C26      1.0000 0.47670  0.25980  0.91860  Biso   1.000  C
  C27      1.0000 0.46550  0.22460  0.98840  Biso   1.000  C
  H12      1.0000 0.42110  0.22490  0.97590  Biso   1.000  H
  C28      1.0000 0.68200  0.88670  0.39220  Biso   1.000  C
  C29      1.0000 0.66750  0.22970  0.05140  Biso   1.000  C
  C30      1.0000 0.41740  0.29460  0.82020  Biso   1.000  C
  N2       1.0000 0.61900  0.19200  0.34690  Biso   1.000  N
  O10      1.0000 0.67580  0.81840  0.34720  Biso   1.000  O
  O11      1.0000 0.72410  0.90140  0.48510  Biso   1.000  O
  O12      1.0000 0.65360  0.19870  0.43940  Biso   1.000  O
  O13      1.0000 0.59700  0.25350  0.29070  Biso   1.000  O
  O14      1.0000 0.71480  0.19240  0.12950  Biso   1.000  O
  O15      1.0000 0.67760  0.26970  0.99230  Biso   1.000  O
  O16      1.0000 0.42750  0.31880  0.75410  Biso   1.000  O
  O17      1.0000 0.35940  0.29700  0.80530  Biso   1.000  O
  O18      1.0000 0.50520  0.15380  0.14110  Biso   1.000  O
  Tm3      1.0000 0.18923  0.82809  0.87420  Biso   1.000  Tm
  C31      1.0000 0.86520  0.45860  0.17110  Biso   1.000  C
  C32      1.0000 0.85410  0.54090  0.13490  Biso   1.000  C
  H13      1.0000 0.81750  0.55270  0.06740  Biso   1.000  H
  C33      1.0000 0.89620  0.60640  0.19650  Biso   1.000  C
  C34      1.0000 0.95010  0.59090  0.29500  Biso   1.000  C
  C35      1.0000 0.96260  0.50760  0.33010  Biso   1.000  C
  H14      1.0000 0.00080  0.49560  0.39630  Biso   1.000  H
  C36      1.0000 0.92060  0.44200  0.27030  Biso   1.000  C
  H15      1.0000 0.92900  0.38540  0.29600  Biso   1.000  H
  C37      1.0000 0.98000  0.68940  0.42450  Biso   1.000  C
  C38      1.0000 0.91470  0.68970  0.40440  Biso   1.000  C
  H16      1.0000 0.87780  0.66480  0.34400  Biso   1.000  H
  C39      1.0000 0.90350  0.72650  0.47280  Biso   1.000  C
  C40      1.0000 0.95870  0.75960  0.56340  Biso   1.000  C
  H17      1.0000 0.95180  0.78180  0.61240  Biso   1.000  H
  C41      1.0000 0.02330  0.75980  0.58140  Biso   1.000  C
  C42      1.0000 0.03450  0.72460  0.51160  Biso   1.000  C
  H18      1.0000 0.07890  0.72490  0.52410  Biso   1.000  H
  C43      1.0000 0.81800  0.38670  0.10780  Biso   1.000  C
  C44      1.0000 0.83250  0.72970  0.44860  Biso   1.000  C
  C45      1.0000 0.08260  0.79460  0.67980  Biso   1.000  C
  N3       1.0000 0.88100  0.69200  0.15310  Biso   1.000  N
  O19      1.0000 0.82420  0.31840  0.15280  Biso   1.000  O
  O20      1.0000 0.77590  0.40140  0.01490  Biso   1.000  O
  O21      1.0000 0.84640  0.69870  0.06060  Biso   1.000  O
  O22      1.0000 0.90300  0.75350  0.20930  Biso   1.000  O
  O23      1.0000 0.78520  0.69240  0.37050  Biso   1.000  O
  O24      1.0000 0.82240  0.76970  0.50770  Biso   1.000  O
  O25      1.0000 0.07250  0.81880  0.74590  Biso   1.000  O
  O26      1.0000 0.14060  0.79700  0.69470  Biso   1.000  O
  O27      1.0000 0.99480  0.65380  0.35890  Biso   1.000  O
  Tm4      1.0000 0.68923  0.32809  0.87420  Biso   1.000  Tm
  C46      1.0000 0.36520  0.95860  0.17110  Biso   1.000  C
  C47      1.0000 0.35410  0.04090  0.13490  Biso   1.000  C
  H19      1.0000 0.31750  0.05270  0.06740  Biso   1.000  H
  C48      1.0000 0.39620  0.10640  0.19650  Biso   1.000  C
  C49      1.0000 0.45010  0.09090  0.29500  Biso   1.000  C
  C50      1.0000 0.46260  0.00760  0.33010  Biso   1.000  C
  H20      1.0000 0.50080  0.99560  0.39630  Biso   1.000  H
  C51      1.0000 0.42060  0.94200  0.27030  Biso   1.000  C
  H21      1.0000 0.42900  0.88540  0.29600  Biso   1.000  H
  C52      1.0000 0.48000  0.18940  0.42450  Biso   1.000  C
  C53      1.0000 0.41470  0.18970  0.40440  Biso   1.000  C
  H22      1.0000 0.37780  0.16480  0.34400  Biso   1.000  H
  C54      1.0000 0.40350  0.22650  0.47280  Biso   1.000  C
  C55      1.0000 0.45870  0.25960  0.56340  Biso   1.000  C
  H23      1.0000 0.45180  0.28180  0.61240  Biso   1.000  H
  C56      1.0000 0.52330  0.25980  0.58140  Biso   1.000  C
  C57      1.0000 0.53450  0.22460  0.51160  Biso   1.000  C
  H24      1.0000 0.57890  0.22490  0.52410  Biso   1.000  H
  C58      1.0000 0.31800  0.88670  0.10780  Biso   1.000  C
  C59      1.0000 0.33250  0.22970  0.44860  Biso   1.000  C
  C60      1.0000 0.58260  0.29460  0.67980  Biso   1.000  C
  N4       1.0000 0.38100  0.19200  0.15310  Biso   1.000  N
  O28      1.0000 0.32420  0.81840  0.15280  Biso   1.000  O
  O29      1.0000 0.27590  0.90140  0.01490  Biso   1.000  O
  O30      1.0000 0.34640  0.19870  0.06060  Biso   1.000  O
  O31      1.0000 0.40300  0.25350  0.20930  Biso   1.000  O
  O32      1.0000 0.28520  0.19240  0.37050  Biso   1.000  O
  O33      1.0000 0.32240  0.26970  0.50770  Biso   1.000  O
  O34      1.0000 0.57250  0.31880  0.74590  Biso   1.000  O
  O35      1.0000 0.64060  0.29700  0.69470  Biso   1.000  O
  O36      1.0000 0.49480  0.15380  0.35890  Biso   1.000  O
  Tm5      1.0000 0.18923  0.17191  0.37420  Biso   1.000  Tm
  C61      1.0000 0.86520  0.54140  0.67110  Biso   1.000  C
  C62      1.0000 0.85410  0.45910  0.63490  Biso   1.000  C
  H25      1.0000 0.81750  0.44730  0.56740  Biso   1.000  H
  C63      1.0000 0.89620  0.39360  0.69650  Biso   1.000  C
  C64      1.0000 0.95010  0.40910  0.79500  Biso   1.000  C
  C65      1.0000 0.96260  0.49240  0.83010  Biso   1.000  C
  H26      1.0000 0.00080  0.50440  0.89630  Biso   1.000  H
  C66      1.0000 0.92060  0.55800  0.77030  Biso   1.000  C
  H27      1.0000 0.92900  0.61460  0.79600  Biso   1.000  H
  C67      1.0000 0.98000  0.31060  0.92450  Biso   1.000  C
  C68      1.0000 0.91470  0.31030  0.90440  Biso   1.000  C
  H28      1.0000 0.87780  0.33520  0.84400  Biso   1.000  H
  C69      1.0000 0.90350  0.27350  0.97280  Biso   1.000  C
  C70      1.0000 0.95870  0.24040  0.06340  Biso   1.000  C
  H29      1.0000 0.95180  0.21820  0.11240  Biso   1.000  H
  C71      1.0000 0.02330  0.24020  0.08140  Biso   1.000  C
  C72      1.0000 0.03450  0.27540  0.01160  Biso   1.000  C
  H30      1.0000 0.07890  0.27510  0.02410  Biso   1.000  H
  C73      1.0000 0.81800  0.61330  0.60780  Biso   1.000  C
  C74      1.0000 0.83250  0.27030  0.94860  Biso   1.000  C
  C75      1.0000 0.08260  0.20540  0.17980  Biso   1.000  C
  N5       1.0000 0.88100  0.30800  0.65310  Biso   1.000  N
  O37      1.0000 0.82420  0.68160  0.65280  Biso   1.000  O
  O38      1.0000 0.77590  0.59860  0.51490  Biso   1.000  O
  O39      1.0000 0.84640  0.30130  0.56060  Biso   1.000  O
  O40      1.0000 0.90300  0.24650  0.70930  Biso   1.000  O
  O41      1.0000 0.78520  0.30760  0.87050  Biso   1.000  O
  O42      1.0000 0.82240  0.23030  0.00770  Biso   1.000  O
  O43      1.0000 0.07250  0.18120  0.24590  Biso   1.000  O
  O44      1.0000 0.14060  0.20300  0.19470  Biso   1.000  O
  O45      1.0000 0.99480  0.34620  0.85890  Biso   1.000  O
  Tm6      1.0000 0.68923  0.67191  0.37420  Biso   1.000  Tm
  C76      1.0000 0.36520  0.04140  0.67110  Biso   1.000  C
  C77      1.0000 0.35410  0.95910  0.63490  Biso   1.000  C
  H31      1.0000 0.31750  0.94730  0.56740  Biso   1.000  H
  C78      1.0000 0.39620  0.89360  0.69650  Biso   1.000  C
  C79      1.0000 0.45010  0.90910  0.79500  Biso   1.000  C
  C80      1.0000 0.46260  0.99240  0.83010  Biso   1.000  C
  H32      1.0000 0.50080  0.00440  0.89630  Biso   1.000  H
  C81      1.0000 0.42060  0.05800  0.77030  Biso   1.000  C
  H33      1.0000 0.42900  0.11460  0.79600  Biso   1.000  H
  C82      1.0000 0.48000  0.81060  0.92450  Biso   1.000  C
  C83      1.0000 0.41470  0.81030  0.90440  Biso   1.000  C
  H34      1.0000 0.37780  0.83520  0.84400  Biso   1.000  H
  C84      1.0000 0.40350  0.77350  0.97280  Biso   1.000  C
  C85      1.0000 0.45870  0.74040  0.06340  Biso   1.000  C
  H35      1.0000 0.45180  0.71820  0.11240  Biso   1.000  H
  C86      1.0000 0.52330  0.74020  0.08140  Biso   1.000  C
  C87      1.0000 0.53450  0.77540  0.01160  Biso   1.000  C
  H36      1.0000 0.57890  0.77510  0.02410  Biso   1.000  H
  C88      1.0000 0.31800  0.11330  0.60780  Biso   1.000  C
  C89      1.0000 0.33250  0.77030  0.94860  Biso   1.000  C
  C90      1.0000 0.58260  0.70540  0.17980  Biso   1.000  C
  N6       1.0000 0.38100  0.80800  0.65310  Biso   1.000  N
  O46      1.0000 0.32420  0.18160  0.65280  Biso   1.000  O
  O47      1.0000 0.27590  0.09860  0.51490  Biso   1.000  O
  O48      1.0000 0.34640  0.80130  0.56060  Biso   1.000  O
  O49      1.0000 0.40300  0.74650  0.70930  Biso   1.000  O
  O50      1.0000 0.28520  0.80760  0.87050  Biso   1.000  O
  O51      1.0000 0.32240  0.73030  0.00770  Biso   1.000  O
  O52      1.0000 0.57250  0.68120  0.24590  Biso   1.000  O
  O53      1.0000 0.64060  0.70300  0.19470  Biso   1.000  O
  O54      1.0000 0.49480  0.84620  0.85890  Biso   1.000  O
  Tm7      1.0000 0.81077  0.17191  0.12580  Biso   1.000  Tm
  C91      1.0000 0.13480  0.54140  0.82890  Biso   1.000  C
  C92      1.0000 0.14590  0.45910  0.86510  Biso   1.000  C
  H37      1.0000 0.18250  0.44730  0.93260  Biso   1.000  H
  C93      1.0000 0.10380  0.39360  0.80350  Biso   1.000  C
  C94      1.0000 0.04990  0.40910  0.70500  Biso   1.000  C
  C95      1.0000 0.03740  0.49240  0.66990  Biso   1.000  C
  H38      1.0000 0.99920  0.50440  0.60370  Biso   1.000  H
  C96      1.0000 0.07940  0.55800  0.72970  Biso   1.000  C
  H39      1.0000 0.07100  0.61460  0.70400  Biso   1.000  H
  C97      1.0000 0.02000  0.31060  0.57550  Biso   1.000  C
  C98      1.0000 0.08530  0.31030  0.59560  Biso   1.000  C
  H40      1.0000 0.12220  0.33520  0.65600  Biso   1.000  H
  C99      1.0000 0.09650  0.27350  0.52720  Biso   1.000  C
  C100     1.0000 0.04130  0.24040  0.43660  Biso   1.000  C
  H41      1.0000 0.04820  0.21820  0.38760  Biso   1.000  H
  C101     1.0000 0.97670  0.24020  0.41860  Biso   1.000  C
  C102     1.0000 0.96550  0.27540  0.48840  Biso   1.000  C
  H42      1.0000 0.92110  0.27510  0.47590  Biso   1.000  H
  C103     1.0000 0.18200  0.61330  0.89220  Biso   1.000  C
  C104     1.0000 0.16750  0.27030  0.55140  Biso   1.000  C
  C105     1.0000 0.91740  0.20540  0.32020  Biso   1.000  C
  N7       1.0000 0.11900  0.30800  0.84690  Biso   1.000  N
  O55      1.0000 0.17580  0.68160  0.84720  Biso   1.000  O
  O56      1.0000 0.22410  0.59860  0.98510  Biso   1.000  O
  O57      1.0000 0.15360  0.30130  0.93940  Biso   1.000  O
  O58      1.0000 0.09700  0.24650  0.79070  Biso   1.000  O
  O59      1.0000 0.21480  0.30760  0.62950  Biso   1.000  O
  O60      1.0000 0.17760  0.23030  0.49230  Biso   1.000  O
  O61      1.0000 0.92750  0.18120  0.25410  Biso   1.000  O
  O62      1.0000 0.85940  0.20300  0.30530  Biso   1.000  O
  O63      1.0000 0.00520  0.34620  0.64110  Biso   1.000  O
  Tm8      1.0000 0.31077  0.67191  0.12580  Biso   1.000  Tm
  C106     1.0000 0.63480  0.04140  0.82890  Biso   1.000  C
  C107     1.0000 0.64590  0.95910  0.86510  Biso   1.000  C
  H43      1.0000 0.68250  0.94730  0.93260  Biso   1.000  H
  C108     1.0000 0.60380  0.89360  0.80350  Biso   1.000  C
  C109     1.0000 0.54990  0.90910  0.70500  Biso   1.000  C
  C110     1.0000 0.53740  0.99240  0.66990  Biso   1.000  C
  H44      1.0000 0.49920  0.00440  0.60370  Biso   1.000  H
  C111     1.0000 0.57940  0.05800  0.72970  Biso   1.000  C
  H45      1.0000 0.57100  0.11460  0.70400  Biso   1.000  H
  C112     1.0000 0.52000  0.81060  0.57550  Biso   1.000  C
  C113     1.0000 0.58530  0.81030  0.59560  Biso   1.000  C
  H46      1.0000 0.62220  0.83520  0.65600  Biso   1.000  H
  C114     1.0000 0.59650  0.77350  0.52720  Biso   1.000  C
  C115     1.0000 0.54130  0.74040  0.43660  Biso   1.000  C
  H47      1.0000 0.54820  0.71820  0.38760  Biso   1.000  H
  C116     1.0000 0.47670  0.74020  0.41860  Biso   1.000  C
  C117     1.0000 0.46550  0.77540  0.48840  Biso   1.000  C
  H48      1.0000 0.42110  0.77510  0.47590  Biso   1.000  H
  C118     1.0000 0.68200  0.11330  0.89220  Biso   1.000  C
  C119     1.0000 0.66750  0.77030  0.55140  Biso   1.000  C
  C120     1.0000 0.41740  0.70540  0.32020  Biso   1.000  C
  N8       1.0000 0.61900  0.80800  0.84690  Biso   1.000  N
  O64      1.0000 0.67580  0.18160  0.84720  Biso   1.000  O
  O65      1.0000 0.72410  0.09860  0.98510  Biso   1.000  O
  O66      1.0000 0.65360  0.80130  0.93940  Biso   1.000  O
  O67      1.0000 0.59700  0.74650  0.79070  Biso   1.000  O
  O68      1.0000 0.71480  0.80760  0.62950  Biso   1.000  O
  O69      1.0000 0.67760  0.73030  0.49230  Biso   1.000  O
  O70      1.0000 0.42750  0.68120  0.25410  Biso   1.000  O
  O71      1.0000 0.35940  0.70300  0.30530  Biso   1.000  O
  O72      1.0000 0.50520  0.84620  0.64110  Biso   1.000  O
