data_image0
_cell_length_a       23.5634
_cell_length_b       15.694
_cell_length_c       16.0403
_cell_angle_alpha    90
_cell_angle_beta     124.083
_cell_angle_gamma    90

_symmetry_space_group_name_H-M    "P 1"
_symmetry_int_tables_number       1

loop_
  _symmetry_equiv_pos_as_xyz
  'x, y, z'

loop_
  _atom_site_label
  _atom_site_occupancy
  _atom_site_fract_x
  _atom_site_fract_y
  _atom_site_fract_z
  _atom_site_thermal_displace_type
  _atom_site_B_iso_or_equiv
  _atom_site_type_symbol
  Ho1      1.0000 0.81081  0.32768  0.62435  Biso   1.000  Ho
  C1       1.0000 0.13300  0.96030  0.32730  Biso   1.000  C
  C2       1.0000 0.14450  0.04230  0.36460  Biso   1.000  C
  H1       1.0000 0.18100  0.05340  0.43230  Biso   1.000  H
  C3       1.0000 0.10280  0.10850  0.30350  Biso   1.000  C
  C4       1.0000 0.04850  0.09300  0.20430  Biso   1.000  C
  C5       1.0000 0.03550  0.01000  0.16900  Biso   1.000  C
  H2       1.0000 0.99730  0.99820  0.10270  Biso   1.000  H
  C6       1.0000 0.07770  0.94380  0.22930  Biso   1.000  C
  H3       1.0000 0.06890  0.88720  0.20380  Biso   1.000  H
  C7       1.0000 0.02000  0.19030  0.07500  Biso   1.000  C
  C8       1.0000 0.08560  0.18960  0.09620  Biso   1.000  C
  H4       1.0000 0.12230  0.16490  0.15690  Biso   1.000  H
  C9       1.0000 0.09720  0.22530  0.02850  Biso   1.000  C
  C10      1.0000 0.04300  0.25910  0.93780  Biso   1.000  C
  H5       1.0000 0.05060  0.28090  0.88960  Biso   1.000  H
  C11      1.0000 0.97750  0.26080  0.91860  Biso   1.000  C
  C12      1.0000 0.96580  0.22670  0.98800  Biso   1.000  C
  H6       1.0000 0.92140  0.22850  0.97570  Biso   1.000  H
  C13      1.0000 0.18080  0.88810  0.39180  Biso   1.000  C
  C14      1.0000 0.16900  0.22680  0.05420  Biso   1.000  C
  C15      1.0000 0.91830  0.29580  0.82020  Biso   1.000  C
  N1       1.0000 0.11840  0.19360  0.34660  Biso   1.000  N
  O1       1.0000 0.17360  0.81970  0.34630  Biso   1.000  O
  O2       1.0000 0.22316  0.90310  0.48360  Biso   1.000  O
  O3       1.0000 0.15340  0.20010  0.43910  Biso   1.000  O
  O4       1.0000 0.09630  0.25510  0.29040  Biso   1.000  O
  O5       1.0000 0.21494  0.18890  0.13240  Biso   1.000  O
  O6       1.0000 0.18153  0.26650  0.99820  Biso   1.000  O
  O7       1.0000 0.92920  0.32010  0.75500  Biso   1.000  O
  O8       1.0000 0.86015  0.29830  0.80440  Biso   1.000  O
  O9       1.0000 0.00440  0.15570  0.14040  Biso   1.000  O
  Ho2      1.0000 0.31081  0.82768  0.62435  Biso   1.000  Ho
  C16      1.0000 0.63300  0.46030  0.32730  Biso   1.000  C
  C17      1.0000 0.64450  0.54230  0.36460  Biso   1.000  C
  H7       1.0000 0.68100  0.55340  0.43230  Biso   1.000  H
  C18      1.0000 0.60280  0.60850  0.30350  Biso   1.000  C
  C19      1.0000 0.54850  0.59300  0.20430  Biso   1.000  C
  C20      1.0000 0.53550  0.51000  0.16900  Biso   1.000  C
  H8       1.0000 0.49730  0.49820  0.10270  Biso   1.000  H
  C21      1.0000 0.57770  0.44380  0.22930  Biso   1.000  C
  H9       1.0000 0.56890  0.38720  0.20380  Biso   1.000  H
  C22      1.0000 0.52000  0.69030  0.07500  Biso   1.000  C
  C23      1.0000 0.58560  0.68960  0.09620  Biso   1.000  C
  H10      1.0000 0.62230  0.66490  0.15690  Biso   1.000  H
  C24      1.0000 0.59720  0.72530  0.02850  Biso   1.000  C
  C25      1.0000 0.54300  0.75910  0.93780  Biso   1.000  C
  H11      1.0000 0.55060  0.78090  0.88960  Biso   1.000  H
  C26      1.0000 0.47750  0.76080  0.91860  Biso   1.000  C
  C27      1.0000 0.46580  0.72670  0.98800  Biso   1.000  C
  H12      1.0000 0.42140  0.72850  0.97570  Biso   1.000  H
  C28      1.0000 0.68080  0.38810  0.39180  Biso   1.000  C
  C29      1.0000 0.66900  0.72680  0.05420  Biso   1.000  C
  C30      1.0000 0.41830  0.79580  0.82020  Biso   1.000  C
  N2       1.0000 0.61840  0.69360  0.34660  Biso   1.000  N
  O10      1.0000 0.67360  0.31970  0.34630  Biso   1.000  O
  O11      1.0000 0.72316  0.40310  0.48360  Biso   1.000  O
  O12      1.0000 0.65340  0.70010  0.43910  Biso   1.000  O
  O13      1.0000 0.59630  0.75510  0.29040  Biso   1.000  O
  O14      1.0000 0.71494  0.68890  0.13240  Biso   1.000  O
  O15      1.0000 0.68153  0.76650  0.99820  Biso   1.000  O
  O16      1.0000 0.42920  0.82010  0.75500  Biso   1.000  O
  O17      1.0000 0.36015  0.79830  0.80440  Biso   1.000  O
  O18      1.0000 0.50440  0.65570  0.14040  Biso   1.000  O
  Ho3      1.0000 0.18919  0.32768  0.87565  Biso   1.000  Ho
  C31      1.0000 0.86700  0.96030  0.17270  Biso   1.000  C
  C32      1.0000 0.85550  0.04230  0.13540  Biso   1.000  C
  H13      1.0000 0.81900  0.05340  0.06770  Biso   1.000  H
  C33      1.0000 0.89720  0.10850  0.19650  Biso   1.000  C
  C34      1.0000 0.95150  0.09300  0.29570  Biso   1.000  C
  C35      1.0000 0.96450  0.01000  0.33100  Biso   1.000  C
  H14      1.0000 0.00270  0.99820  0.39730  Biso   1.000  H
  C36      1.0000 0.92230  0.94380  0.27070  Biso   1.000  C
  H15      1.0000 0.93110  0.88720  0.29620  Biso   1.000  H
  C37      1.0000 0.98000  0.19030  0.42500  Biso   1.000  C
  C38      1.0000 0.91440  0.18960  0.40380  Biso   1.000  C
  H16      1.0000 0.87770  0.16490  0.34310  Biso   1.000  H
  C39      1.0000 0.90280  0.22530  0.47150  Biso   1.000  C
  C40      1.0000 0.95700  0.25910  0.56220  Biso   1.000  C
  H17      1.0000 0.94940  0.28090  0.61040  Biso   1.000  H
  C41      1.0000 0.02250  0.26080  0.58140  Biso   1.000  C
  C42      1.0000 0.03420  0.22670  0.51200  Biso   1.000  C
  H18      1.0000 0.07860  0.22850  0.52430  Biso   1.000  H
  C43      1.0000 0.81920  0.88810  0.10820  Biso   1.000  C
  C44      1.0000 0.83100  0.22680  0.44580  Biso   1.000  C
  C45      1.0000 0.08170  0.29580  0.67980  Biso   1.000  C
  N3       1.0000 0.88160  0.19360  0.15340  Biso   1.000  N
  O19      1.0000 0.82640  0.81970  0.15370  Biso   1.000  O
  O20      1.0000 0.77684  0.90310  0.01640  Biso   1.000  O
  O21      1.0000 0.84660  0.20010  0.06090  Biso   1.000  O
  O22      1.0000 0.90370  0.25510  0.20960  Biso   1.000  O
  O23      1.0000 0.78506  0.18890  0.36760  Biso   1.000  O
  O24      1.0000 0.81847  0.26650  0.50180  Biso   1.000  O
  O25      1.0000 0.07080  0.32010  0.74500  Biso   1.000  O
  O26      1.0000 0.13985  0.29830  0.69560  Biso   1.000  O
  O27      1.0000 0.99560  0.15570  0.35960  Biso   1.000  O
  Ho4      1.0000 0.68919  0.82768  0.87565  Biso   1.000  Ho
  C46      1.0000 0.36700  0.46030  0.17270  Biso   1.000  C
  C47      1.0000 0.35550  0.54230  0.13540  Biso   1.000  C
  H19      1.0000 0.31900  0.55340  0.06770  Biso   1.000  H
  C48      1.0000 0.39720  0.60850  0.19650  Biso   1.000  C
  C49      1.0000 0.45150  0.59300  0.29570  Biso   1.000  C
  C50      1.0000 0.46450  0.51000  0.33100  Biso   1.000  C
  H20      1.0000 0.50270  0.49820  0.39730  Biso   1.000  H
  C51      1.0000 0.42230  0.44380  0.27070  Biso   1.000  C
  H21      1.0000 0.43110  0.38720  0.29620  Biso   1.000  H
  C52      1.0000 0.48000  0.69030  0.42500  Biso   1.000  C
  C53      1.0000 0.41440  0.68960  0.40380  Biso   1.000  C
  H22      1.0000 0.37770  0.66490  0.34310  Biso   1.000  H
  C54      1.0000 0.40280  0.72530  0.47150  Biso   1.000  C
  C55      1.0000 0.45700  0.75910  0.56220  Biso   1.000  C
  H23      1.0000 0.44940  0.78090  0.61040  Biso   1.000  H
  C56      1.0000 0.52250  0.76080  0.58140  Biso   1.000  C
  C57      1.0000 0.53420  0.72670  0.51200  Biso   1.000  C
  H24      1.0000 0.57860  0.72850  0.52430  Biso   1.000  H
  C58      1.0000 0.31920  0.38810  0.10820  Biso   1.000  C
  C59      1.0000 0.33100  0.72680  0.44580  Biso   1.000  C
  C60      1.0000 0.58170  0.79580  0.67980  Biso   1.000  C
  N4       1.0000 0.38160  0.69360  0.15340  Biso   1.000  N
  O28      1.0000 0.32640  0.31970  0.15370  Biso   1.000  O
  O29      1.0000 0.27684  0.40310  0.01640  Biso   1.000  O
  O30      1.0000 0.34660  0.70010  0.06090  Biso   1.000  O
  O31      1.0000 0.40370  0.75510  0.20960  Biso   1.000  O
  O32      1.0000 0.28506  0.68890  0.36760  Biso   1.000  O
  O33      1.0000 0.31847  0.76650  0.50180  Biso   1.000  O
  O34      1.0000 0.57080  0.82010  0.74500  Biso   1.000  O
  O35      1.0000 0.63985  0.79830  0.69560  Biso   1.000  O
  O36      1.0000 0.49560  0.65570  0.35960  Biso   1.000  O
  Ho5      1.0000 0.18919  0.67232  0.37565  Biso   1.000  Ho
  C61      1.0000 0.86700  0.03970  0.67270  Biso   1.000  C
  C62      1.0000 0.85550  0.95770  0.63540  Biso   1.000  C
  H25      1.0000 0.81900  0.94660  0.56770  Biso   1.000  H
  C63      1.0000 0.89720  0.89150  0.69650  Biso   1.000  C
  C64      1.0000 0.95150  0.90700  0.79570  Biso   1.000  C
  C65      1.0000 0.96450  0.99000  0.83100  Biso   1.000  C
  H26      1.0000 0.00270  0.00180  0.89730  Biso   1.000  H
  C66      1.0000 0.92230  0.05620  0.77070  Biso   1.000  C
  H27      1.0000 0.93110  0.11280  0.79620  Biso   1.000  H
  C67      1.0000 0.98000  0.80970  0.92500  Biso   1.000  C
  C68      1.0000 0.91440  0.81040  0.90380  Biso   1.000  C
  H28      1.0000 0.87770  0.83510  0.84310  Biso   1.000  H
  C69      1.0000 0.90280  0.77470  0.97150  Biso   1.000  C
  C70      1.0000 0.95700  0.74090  0.06220  Biso   1.000  C
  H29      1.0000 0.94940  0.71910  0.11040  Biso   1.000  H
  C71      1.0000 0.02250  0.73920  0.08140  Biso   1.000  C
  C72      1.0000 0.03420  0.77330  0.01200  Biso   1.000  C
  H30      1.0000 0.07860  0.77150  0.02430  Biso   1.000  H
  C73      1.0000 0.81920  0.11190  0.60820  Biso   1.000  C
  C74      1.0000 0.83100  0.77320  0.94580  Biso   1.000  C
  C75      1.0000 0.08170  0.70420  0.17980  Biso   1.000  C
  N5       1.0000 0.88160  0.80640  0.65340  Biso   1.000  N
  O37      1.0000 0.82640  0.18030  0.65370  Biso   1.000  O
  O38      1.0000 0.77684  0.09690  0.51640  Biso   1.000  O
  O39      1.0000 0.84660  0.79990  0.56090  Biso   1.000  O
  O40      1.0000 0.90370  0.74490  0.70960  Biso   1.000  O
  O41      1.0000 0.78506  0.81110  0.86760  Biso   1.000  O
  O42      1.0000 0.81847  0.73350  0.00180  Biso   1.000  O
  O43      1.0000 0.07080  0.67990  0.24500  Biso   1.000  O
  O44      1.0000 0.13985  0.70170  0.19560  Biso   1.000  O
  O45      1.0000 0.99560  0.84430  0.85960  Biso   1.000  O
  Ho6      1.0000 0.68919  0.17232  0.37565  Biso   1.000  Ho
  C76      1.0000 0.36700  0.53970  0.67270  Biso   1.000  C
  C77      1.0000 0.35550  0.45770  0.63540  Biso   1.000  C
  H31      1.0000 0.31900  0.44660  0.56770  Biso   1.000  H
  C78      1.0000 0.39720  0.39150  0.69650  Biso   1.000  C
  C79      1.0000 0.45150  0.40700  0.79570  Biso   1.000  C
  C80      1.0000 0.46450  0.49000  0.83100  Biso   1.000  C
  H32      1.0000 0.50270  0.50180  0.89730  Biso   1.000  H
  C81      1.0000 0.42230  0.55620  0.77070  Biso   1.000  C
  H33      1.0000 0.43110  0.61280  0.79620  Biso   1.000  H
  C82      1.0000 0.48000  0.30970  0.92500  Biso   1.000  C
  C83      1.0000 0.41440  0.31040  0.90380  Biso   1.000  C
  H34      1.0000 0.37770  0.33510  0.84310  Biso   1.000  H
  C84      1.0000 0.40280  0.27470  0.97150  Biso   1.000  C
  C85      1.0000 0.45700  0.24090  0.06220  Biso   1.000  C
  H35      1.0000 0.44940  0.21910  0.11040  Biso   1.000  H
  C86      1.0000 0.52250  0.23920  0.08140  Biso   1.000  C
  C87      1.0000 0.53420  0.27330  0.01200  Biso   1.000  C
  H36      1.0000 0.57860  0.27150  0.02430  Biso   1.000  H
  C88      1.0000 0.31920  0.61190  0.60820  Biso   1.000  C
  C89      1.0000 0.33100  0.27320  0.94580  Biso   1.000  C
  C90      1.0000 0.58170  0.20420  0.17980  Biso   1.000  C
  N6       1.0000 0.38160  0.30640  0.65340  Biso   1.000  N
  O46      1.0000 0.32640  0.68030  0.65370  Biso   1.000  O
  O47      1.0000 0.27684  0.59690  0.51640  Biso   1.000  O
  O48      1.0000 0.34660  0.29990  0.56090  Biso   1.000  O
  O49      1.0000 0.40370  0.24490  0.70960  Biso   1.000  O
  O50      1.0000 0.28506  0.31110  0.86760  Biso   1.000  O
  O51      1.0000 0.31847  0.23350  0.00180  Biso   1.000  O
  O52      1.0000 0.57080  0.17990  0.24500  Biso   1.000  O
  O53      1.0000 0.63985  0.20170  0.19560  Biso   1.000  O
  O54      1.0000 0.49560  0.34430  0.85960  Biso   1.000  O
  Ho7      1.0000 0.81081  0.67232  0.12435  Biso   1.000  Ho
  C91      1.0000 0.13300  0.03970  0.82730  Biso   1.000  C
  C92      1.0000 0.14450  0.95770  0.86460  Biso   1.000  C
  H37      1.0000 0.18100  0.94660  0.93230  Biso   1.000  H
  C93      1.0000 0.10280  0.89150  0.80350  Biso   1.000  C
  C94      1.0000 0.04850  0.90700  0.70430  Biso   1.000  C
  C95      1.0000 0.03550  0.99000  0.66900  Biso   1.000  C
  H38      1.0000 0.99730  0.00180  0.60270  Biso   1.000  H
  C96      1.0000 0.07770  0.05620  0.72930  Biso   1.000  C
  H39      1.0000 0.06890  0.11280  0.70380  Biso   1.000  H
  C97      1.0000 0.02000  0.80970  0.57500  Biso   1.000  C
  C98      1.0000 0.08560  0.81040  0.59620  Biso   1.000  C
  H40      1.0000 0.12230  0.83510  0.65690  Biso   1.000  H
  C99      1.0000 0.09720  0.77470  0.52850  Biso   1.000  C
  C100     1.0000 0.04300  0.74090  0.43780  Biso   1.000  C
  H41      1.0000 0.05060  0.71910  0.38960  Biso   1.000  H
  C101     1.0000 0.97750  0.73920  0.41860  Biso   1.000  C
  C102     1.0000 0.96580  0.77330  0.48800  Biso   1.000  C
  H42      1.0000 0.92140  0.77150  0.47570  Biso   1.000  H
  C103     1.0000 0.18080  0.11190  0.89180  Biso   1.000  C
  C104     1.0000 0.16900  0.77320  0.55420  Biso   1.000  C
  C105     1.0000 0.91830  0.70420  0.32020  Biso   1.000  C
  N7       1.0000 0.11840  0.80640  0.84660  Biso   1.000  N
  O55      1.0000 0.17360  0.18030  0.84630  Biso   1.000  O
  O56      1.0000 0.22316  0.09690  0.98360  Biso   1.000  O
  O57      1.0000 0.15340  0.79990  0.93910  Biso   1.000  O
  O58      1.0000 0.09630  0.74490  0.79040  Biso   1.000  O
  O59      1.0000 0.21494  0.81110  0.63240  Biso   1.000  O
  O60      1.0000 0.18153  0.73350  0.49820  Biso   1.000  O
  O61      1.0000 0.92920  0.67990  0.25500  Biso   1.000  O
  O62      1.0000 0.86015  0.70170  0.30440  Biso   1.000  O
  O63      1.0000 0.00440  0.84430  0.64040  Biso   1.000  O
  Ho8      1.0000 0.31081  0.17232  0.12435  Biso   1.000  Ho
  C106     1.0000 0.63300  0.53970  0.82730  Biso   1.000  C
  C107     1.0000 0.64450  0.45770  0.86460  Biso   1.000  C
  H43      1.0000 0.68100  0.44660  0.93230  Biso   1.000  H
  C108     1.0000 0.60280  0.39150  0.80350  Biso   1.000  C
  C109     1.0000 0.54850  0.40700  0.70430  Biso   1.000  C
  C110     1.0000 0.53550  0.49000  0.66900  Biso   1.000  C
  H44      1.0000 0.49730  0.50180  0.60270  Biso   1.000  H
  C111     1.0000 0.57770  0.55620  0.72930  Biso   1.000  C
  H45      1.0000 0.56890  0.61280  0.70380  Biso   1.000  H
  C112     1.0000 0.52000  0.30970  0.57500  Biso   1.000  C
  C113     1.0000 0.58560  0.31040  0.59620  Biso   1.000  C
  H46      1.0000 0.62230  0.33510  0.65690  Biso   1.000  H
  C114     1.0000 0.59720  0.27470  0.52850  Biso   1.000  C
  C115     1.0000 0.54300  0.24090  0.43780  Biso   1.000  C
  H47      1.0000 0.55060  0.21910  0.38960  Biso   1.000  H
  C116     1.0000 0.47750  0.23920  0.41860  Biso   1.000  C
  C117     1.0000 0.46580  0.27330  0.48800  Biso   1.000  C
  H48      1.0000 0.42140  0.27150  0.47570  Biso   1.000  H
  C118     1.0000 0.68080  0.61190  0.89180  Biso   1.000  C
  C119     1.0000 0.66900  0.27320  0.55420  Biso   1.000  C
  C120     1.0000 0.41830  0.20420  0.32020  Biso   1.000  C
  N8       1.0000 0.61840  0.30640  0.84660  Biso   1.000  N
  O64      1.0000 0.67360  0.68030  0.84630  Biso   1.000  O
  O65      1.0000 0.72316  0.59690  0.98360  Biso   1.000  O
  O66      1.0000 0.65340  0.29990  0.93910  Biso   1.000  O
  O67      1.0000 0.59630  0.24490  0.79040  Biso   1.000  O
  O68      1.0000 0.71494  0.31110  0.63240  Biso   1.000  O
  O69      1.0000 0.68153  0.23350  0.49820  Biso   1.000  O
  O70      1.0000 0.42920  0.17990  0.25500  Biso   1.000  O
  O71      1.0000 0.36015  0.20170  0.30440  Biso   1.000  O
  O72      1.0000 0.50440  0.34430  0.64040  Biso   1.000  O
