data_image0
_cell_length_a       7.5824
_cell_length_b       17.7713
_cell_length_c       6.4177
_cell_angle_alpha    90
_cell_angle_beta     91.1585
_cell_angle_gamma    90

_symmetry_space_group_name_H-M    "P 1"
_symmetry_int_tables_number       1

loop_
  _symmetry_equiv_pos_as_xyz
  'x, y, z'

loop_
  _atom_site_label
  _atom_site_occupancy
  _atom_site_fract_x
  _atom_site_fract_y
  _atom_site_fract_z
  _atom_site_thermal_displace_type
  _atom_site_B_iso_or_equiv
  _atom_site_type_symbol
  Cl1      1.0000 0.48380  0.61608  0.26370  Biso   1.000  Cl
  Ca1      1.0000 0.50026  0.44624  0.24070  Biso   1.000  Ca
  O1       1.0000 0.69710  0.50460  0.03190  Biso   1.000  O
  C1       1.0000 0.73825  0.27771  0.30626  Biso   1.000  C
  N1       1.0000 0.72829  0.24018  0.48468  Biso   1.000  N
  O2       1.0000 0.70416  0.34339  0.27229  Biso   1.000  O
  C2       1.0000 0.80883  0.22629  0.12200  Biso   1.000  C
  N2       1.0000 0.83593  0.26510  0.95213  Biso   1.000  N
  O3       1.0000 0.82766  0.15904  0.15490  Biso   1.000  O
  Cl2      1.0000 0.01620  0.11608  0.73630  Biso   1.000  Cl
  Ca2      1.0000 0.99974  0.94624  0.75930  Biso   1.000  Ca
  O4       1.0000 0.80290  0.00460  0.96810  Biso   1.000  O
  C3       1.0000 0.76175  0.77771  0.69374  Biso   1.000  C
  N3       1.0000 0.77171  0.74018  0.51532  Biso   1.000  N
  O5       1.0000 0.79584  0.84339  0.72771  Biso   1.000  O
  C4       1.0000 0.69117  0.72629  0.87800  Biso   1.000  C
  N4       1.0000 0.66407  0.76510  0.04787  Biso   1.000  N
  O6       1.0000 0.67234  0.65904  0.84510  Biso   1.000  O
  Cl3      1.0000 0.51620  0.38392  0.73630  Biso   1.000  Cl
  Ca3      1.0000 0.49974  0.55376  0.75930  Biso   1.000  Ca
  O7       1.0000 0.30290  0.49540  0.96810  Biso   1.000  O
  C5       1.0000 0.26175  0.72229  0.69374  Biso   1.000  C
  N5       1.0000 0.27171  0.75982  0.51532  Biso   1.000  N
  O8       1.0000 0.29584  0.65661  0.72771  Biso   1.000  O
  C6       1.0000 0.19117  0.77371  0.87800  Biso   1.000  C
  N6       1.0000 0.16407  0.73490  0.04787  Biso   1.000  N
  O9       1.0000 0.17234  0.84096  0.84510  Biso   1.000  O
  Cl4      1.0000 0.98380  0.88392  0.26370  Biso   1.000  Cl
  Ca4      1.0000 0.00026  0.05376  0.24070  Biso   1.000  Ca
  O10      1.0000 0.19710  0.99540  0.03190  Biso   1.000  O
  C7       1.0000 0.23825  0.22229  0.30626  Biso   1.000  C
  N7       1.0000 0.22829  0.25982  0.48468  Biso   1.000  N
  O11      1.0000 0.20416  0.15661  0.27229  Biso   1.000  O
  C8       1.0000 0.30883  0.27371  0.12200  Biso   1.000  C
  N8       1.0000 0.33593  0.23490  0.95213  Biso   1.000  N
  O12      1.0000 0.32766  0.34096  0.15490  Biso   1.000  O
