data_image0
_cell_length_a       14.537
_cell_length_b       14.537
_cell_length_c       20.195
_cell_angle_alpha    90
_cell_angle_beta     90
_cell_angle_gamma    90

_symmetry_space_group_name_H-M    "P 1"
_symmetry_int_tables_number       1

loop_
  _symmetry_equiv_pos_as_xyz
  'x, y, z'

loop_
  _atom_site_label
  _atom_site_occupancy
  _atom_site_fract_x
  _atom_site_fract_y
  _atom_site_fract_z
  _atom_site_thermal_displace_type
  _atom_site_B_iso_or_equiv
  _atom_site_type_symbol
  N1       1.0000 0.30020  0.65030  0.18740  Biso   1.000  N
  C1       1.0000 0.25970  0.56970  0.18180  Biso   1.000  C
  H1       1.0000 0.20860  0.55670  0.20960  Biso   1.000  H
  C2       1.0000 0.28870  0.50120  0.13620  Biso   1.000  C
  H2       1.0000 0.25670  0.44420  0.13490  Biso   1.000  H
  N2       1.0000 0.35840  0.51400  0.09560  Biso   1.000  N
  N3       1.0000 0.47210  0.60960  0.05780  Biso   1.000  N
  C3       1.0000 0.51710  0.68890  0.05870  Biso   1.000  C
  H3       1.0000 0.56640  0.69800  0.02850  Biso   1.000  H
  C4       1.0000 0.49420  0.75970  0.10280  Biso   1.000  C
  H4       1.0000 0.52890  0.81500  0.10320  Biso   1.000  H
  C5       1.0000 0.42210  0.74900  0.14520  Biso   1.000  C
  H5       1.0000 0.40490  0.79730  0.17430  Biso   1.000  H
  C6       1.0000 0.37390  0.66600  0.14510  Biso   1.000  C
  C7       1.0000 0.40050  0.59640  0.10040  Biso   1.000  C
  N4       1.0000 0.19980  0.84970  0.18740  Biso   1.000  N
  C8       1.0000 0.24030  0.93030  0.18180  Biso   1.000  C
  H6       1.0000 0.29140  0.94330  0.20960  Biso   1.000  H
  C9       1.0000 0.21130  0.99880  0.13620  Biso   1.000  C
  H7       1.0000 0.24330  0.05580  0.13490  Biso   1.000  H
  N5       1.0000 0.14160  0.98600  0.09560  Biso   1.000  N
  N6       1.0000 0.02790  0.89040  0.05780  Biso   1.000  N
  C10      1.0000 0.98290  0.81110  0.05870  Biso   1.000  C
  H8       1.0000 0.93360  0.80200  0.02850  Biso   1.000  H
  C11      1.0000 0.00580  0.74030  0.10280  Biso   1.000  C
  H9       1.0000 0.97110  0.68500  0.10320  Biso   1.000  H
  C12      1.0000 0.07790  0.75100  0.14520  Biso   1.000  C
  H10      1.0000 0.09510  0.70270  0.17430  Biso   1.000  H
  C13      1.0000 0.12610  0.83400  0.14510  Biso   1.000  C
  C14      1.0000 0.09950  0.90360  0.10040  Biso   1.000  C
  N7       1.0000 0.84970  0.30020  0.68740  Biso   1.000  N
  C15      1.0000 0.93030  0.25970  0.68180  Biso   1.000  C
  H11      1.0000 0.94330  0.20860  0.70960  Biso   1.000  H
  C16      1.0000 0.99880  0.28870  0.63620  Biso   1.000  C
  H12      1.0000 0.05580  0.25670  0.63490  Biso   1.000  H
  N8       1.0000 0.98600  0.35840  0.59560  Biso   1.000  N
  N9       1.0000 0.89040  0.47210  0.55780  Biso   1.000  N
  C17      1.0000 0.81110  0.51710  0.55870  Biso   1.000  C
  H13      1.0000 0.80200  0.56640  0.52850  Biso   1.000  H
  C18      1.0000 0.74030  0.49420  0.60280  Biso   1.000  C
  H14      1.0000 0.68500  0.52890  0.60320  Biso   1.000  H
  C19      1.0000 0.75100  0.42210  0.64520  Biso   1.000  C
  H15      1.0000 0.70270  0.40490  0.67430  Biso   1.000  H
  C20      1.0000 0.83400  0.37390  0.64510  Biso   1.000  C
  C21      1.0000 0.90360  0.40050  0.60040  Biso   1.000  C
  N10      1.0000 0.65030  0.19980  0.68740  Biso   1.000  N
  C22      1.0000 0.56970  0.24030  0.68180  Biso   1.000  C
  H16      1.0000 0.55670  0.29140  0.70960  Biso   1.000  H
  C23      1.0000 0.50120  0.21130  0.63620  Biso   1.000  C
  H17      1.0000 0.44420  0.24330  0.63490  Biso   1.000  H
  N11      1.0000 0.51400  0.14160  0.59560  Biso   1.000  N
  N12      1.0000 0.60960  0.02790  0.55780  Biso   1.000  N
  C24      1.0000 0.68890  0.98290  0.55870  Biso   1.000  C
  H18      1.0000 0.69800  0.93360  0.52850  Biso   1.000  H
  C25      1.0000 0.75970  0.00580  0.60280  Biso   1.000  C
  H19      1.0000 0.81500  0.97110  0.60320  Biso   1.000  H
  C26      1.0000 0.74900  0.07790  0.64520  Biso   1.000  C
  H20      1.0000 0.79730  0.09510  0.67430  Biso   1.000  H
  C27      1.0000 0.66600  0.12610  0.64510  Biso   1.000  C
  C28      1.0000 0.59640  0.09950  0.60040  Biso   1.000  C
  N13      1.0000 0.69980  0.15030  0.31260  Biso   1.000  N
  C29      1.0000 0.74030  0.06970  0.31820  Biso   1.000  C
  H21      1.0000 0.79140  0.05670  0.29040  Biso   1.000  H
  C30      1.0000 0.71130  0.00120  0.36380  Biso   1.000  C
  H22      1.0000 0.74330  0.94420  0.36510  Biso   1.000  H
  N14      1.0000 0.64160  0.01400  0.40440  Biso   1.000  N
  N15      1.0000 0.52790  0.10960  0.44220  Biso   1.000  N
  C31      1.0000 0.48290  0.18890  0.44130  Biso   1.000  C
  H23      1.0000 0.43360  0.19800  0.47150  Biso   1.000  H
  C32      1.0000 0.50580  0.25970  0.39720  Biso   1.000  C
  H24      1.0000 0.47110  0.31500  0.39680  Biso   1.000  H
  C33      1.0000 0.57790  0.24900  0.35480  Biso   1.000  C
  H25      1.0000 0.59510  0.29730  0.32570  Biso   1.000  H
  C34      1.0000 0.62610  0.16600  0.35490  Biso   1.000  C
  C35      1.0000 0.59950  0.09640  0.39960  Biso   1.000  C
  N16      1.0000 0.80020  0.34970  0.31260  Biso   1.000  N
  C36      1.0000 0.75970  0.43030  0.31820  Biso   1.000  C
  H26      1.0000 0.70860  0.44330  0.29040  Biso   1.000  H
  C37      1.0000 0.78870  0.49880  0.36380  Biso   1.000  C
  H27      1.0000 0.75670  0.55580  0.36510  Biso   1.000  H
  N17      1.0000 0.85840  0.48600  0.40440  Biso   1.000  N
  N18      1.0000 0.97210  0.39040  0.44220  Biso   1.000  N
  C38      1.0000 0.01710  0.31110  0.44130  Biso   1.000  C
  H28      1.0000 0.06640  0.30200  0.47150  Biso   1.000  H
  C39      1.0000 0.99420  0.24030  0.39720  Biso   1.000  C
  H29      1.0000 0.02890  0.18500  0.39680  Biso   1.000  H
  C40      1.0000 0.92210  0.25100  0.35480  Biso   1.000  C
  H30      1.0000 0.90490  0.20270  0.32570  Biso   1.000  H
  C41      1.0000 0.87390  0.33400  0.35490  Biso   1.000  C
  C42      1.0000 0.90050  0.40360  0.39960  Biso   1.000  C
  N19      1.0000 0.15030  0.80020  0.81260  Biso   1.000  N
  C43      1.0000 0.06970  0.75970  0.81820  Biso   1.000  C
  H31      1.0000 0.05670  0.70860  0.79040  Biso   1.000  H
  C44      1.0000 0.00120  0.78870  0.86380  Biso   1.000  C
  H32      1.0000 0.94420  0.75670  0.86510  Biso   1.000  H
  N20      1.0000 0.01400  0.85840  0.90440  Biso   1.000  N
  N21      1.0000 0.10960  0.97210  0.94220  Biso   1.000  N
  C45      1.0000 0.18890  0.01710  0.94130  Biso   1.000  C
  H33      1.0000 0.19800  0.06640  0.97150  Biso   1.000  H
  C46      1.0000 0.25970  0.99420  0.89720  Biso   1.000  C
  H34      1.0000 0.31500  0.02890  0.89680  Biso   1.000  H
  C47      1.0000 0.24900  0.92210  0.85480  Biso   1.000  C
  H35      1.0000 0.29730  0.90490  0.82570  Biso   1.000  H
  C48      1.0000 0.16600  0.87390  0.85490  Biso   1.000  C
  C49      1.0000 0.09640  0.90050  0.89960  Biso   1.000  C
  N22      1.0000 0.34970  0.69980  0.81260  Biso   1.000  N
  C50      1.0000 0.43030  0.74030  0.81820  Biso   1.000  C
  H36      1.0000 0.44330  0.79140  0.79040  Biso   1.000  H
  C51      1.0000 0.49880  0.71130  0.86380  Biso   1.000  C
  H37      1.0000 0.55580  0.74330  0.86510  Biso   1.000  H
  N23      1.0000 0.48600  0.64160  0.90440  Biso   1.000  N
  N24      1.0000 0.39040  0.52790  0.94220  Biso   1.000  N
  C52      1.0000 0.31110  0.48290  0.94130  Biso   1.000  C
  H38      1.0000 0.30200  0.43360  0.97150  Biso   1.000  H
  C53      1.0000 0.24030  0.50580  0.89720  Biso   1.000  C
  H39      1.0000 0.18500  0.47110  0.89680  Biso   1.000  H
  C54      1.0000 0.25100  0.57790  0.85480  Biso   1.000  C
  H40      1.0000 0.20270  0.59510  0.82570  Biso   1.000  H
  C55      1.0000 0.33400  0.62610  0.85490  Biso   1.000  C
  C56      1.0000 0.40360  0.59950  0.89960  Biso   1.000  C
  N25      1.0000 0.69980  0.34970  0.81260  Biso   1.000  N
  C57      1.0000 0.74030  0.43030  0.81820  Biso   1.000  C
  H41      1.0000 0.79140  0.44330  0.79040  Biso   1.000  H
  C58      1.0000 0.71130  0.49880  0.86380  Biso   1.000  C
  H42      1.0000 0.74330  0.55580  0.86510  Biso   1.000  H
  N26      1.0000 0.64160  0.48600  0.90440  Biso   1.000  N
  N27      1.0000 0.52790  0.39040  0.94220  Biso   1.000  N
  C59      1.0000 0.48290  0.31110  0.94130  Biso   1.000  C
  H43      1.0000 0.43360  0.30200  0.97150  Biso   1.000  H
  C60      1.0000 0.50580  0.24030  0.89720  Biso   1.000  C
  H44      1.0000 0.47110  0.18500  0.89680  Biso   1.000  H
  C61      1.0000 0.57790  0.25100  0.85480  Biso   1.000  C
  H45      1.0000 0.59510  0.20270  0.82570  Biso   1.000  H
  C62      1.0000 0.62610  0.33400  0.85490  Biso   1.000  C
  C63      1.0000 0.59950  0.40360  0.89960  Biso   1.000  C
  N28      1.0000 0.80020  0.15030  0.81260  Biso   1.000  N
  C64      1.0000 0.75970  0.06970  0.81820  Biso   1.000  C
  H46      1.0000 0.70860  0.05670  0.79040  Biso   1.000  H
  C65      1.0000 0.78870  0.00120  0.86380  Biso   1.000  C
  H47      1.0000 0.75670  0.94420  0.86510  Biso   1.000  H
  N29      1.0000 0.85840  0.01400  0.90440  Biso   1.000  N
  N30      1.0000 0.97210  0.10960  0.94220  Biso   1.000  N
  C66      1.0000 0.01710  0.18890  0.94130  Biso   1.000  C
  H48      1.0000 0.06640  0.19800  0.97150  Biso   1.000  H
  C67      1.0000 0.99420  0.25970  0.89720  Biso   1.000  C
  H49      1.0000 0.02890  0.31500  0.89680  Biso   1.000  H
  C68      1.0000 0.92210  0.24900  0.85480  Biso   1.000  C
  H50      1.0000 0.90490  0.29730  0.82570  Biso   1.000  H
  C69      1.0000 0.87390  0.16600  0.85490  Biso   1.000  C
  C70      1.0000 0.90050  0.09640  0.89960  Biso   1.000  C
  N31      1.0000 0.15030  0.69980  0.31260  Biso   1.000  N
  C71      1.0000 0.06970  0.74030  0.31820  Biso   1.000  C
  H51      1.0000 0.05670  0.79140  0.29040  Biso   1.000  H
  C72      1.0000 0.00120  0.71130  0.36380  Biso   1.000  C
  H52      1.0000 0.94420  0.74330  0.36510  Biso   1.000  H
  N32      1.0000 0.01400  0.64160  0.40440  Biso   1.000  N
  N33      1.0000 0.10960  0.52790  0.44220  Biso   1.000  N
  C73      1.0000 0.18890  0.48290  0.44130  Biso   1.000  C
  H53      1.0000 0.19800  0.43360  0.47150  Biso   1.000  H
  C74      1.0000 0.25970  0.50580  0.39720  Biso   1.000  C
  H54      1.0000 0.31500  0.47110  0.39680  Biso   1.000  H
  C75      1.0000 0.24900  0.57790  0.35480  Biso   1.000  C
  H55      1.0000 0.29730  0.59510  0.32570  Biso   1.000  H
  C76      1.0000 0.16600  0.62610  0.35490  Biso   1.000  C
  C77      1.0000 0.09640  0.59950  0.39960  Biso   1.000  C
  N34      1.0000 0.34970  0.80020  0.31260  Biso   1.000  N
  C78      1.0000 0.43030  0.75970  0.31820  Biso   1.000  C
  H56      1.0000 0.44330  0.70860  0.29040  Biso   1.000  H
  C79      1.0000 0.49880  0.78870  0.36380  Biso   1.000  C
  H57      1.0000 0.55580  0.75670  0.36510  Biso   1.000  H
  N35      1.0000 0.48600  0.85840  0.40440  Biso   1.000  N
  N36      1.0000 0.39040  0.97210  0.44220  Biso   1.000  N
  C80      1.0000 0.31110  0.01710  0.44130  Biso   1.000  C
  H58      1.0000 0.30200  0.06640  0.47150  Biso   1.000  H
  C81      1.0000 0.24030  0.99420  0.39720  Biso   1.000  C
  H59      1.0000 0.18500  0.02890  0.39680  Biso   1.000  H
  C82      1.0000 0.25100  0.92210  0.35480  Biso   1.000  C
  H60      1.0000 0.20270  0.90490  0.32570  Biso   1.000  H
  C83      1.0000 0.33400  0.87390  0.35490  Biso   1.000  C
  C84      1.0000 0.40360  0.90050  0.39960  Biso   1.000  C
  N37      1.0000 0.30020  0.84970  0.68740  Biso   1.000  N
  C85      1.0000 0.25970  0.93030  0.68180  Biso   1.000  C
  H61      1.0000 0.20860  0.94330  0.70960  Biso   1.000  H
  C86      1.0000 0.28870  0.99880  0.63620  Biso   1.000  C
  H62      1.0000 0.25670  0.05580  0.63490  Biso   1.000  H
  N38      1.0000 0.35840  0.98600  0.59560  Biso   1.000  N
  N39      1.0000 0.47210  0.89040  0.55780  Biso   1.000  N
  C87      1.0000 0.51710  0.81110  0.55870  Biso   1.000  C
  H63      1.0000 0.56640  0.80200  0.52850  Biso   1.000  H
  C88      1.0000 0.49420  0.74030  0.60280  Biso   1.000  C
  H64      1.0000 0.52890  0.68500  0.60320  Biso   1.000  H
  C89      1.0000 0.42210  0.75100  0.64520  Biso   1.000  C
  H65      1.0000 0.40490  0.70270  0.67430  Biso   1.000  H
  C90      1.0000 0.37390  0.83400  0.64510  Biso   1.000  C
  C91      1.0000 0.40050  0.90360  0.60040  Biso   1.000  C
  N40      1.0000 0.19980  0.65030  0.68740  Biso   1.000  N
  C92      1.0000 0.24030  0.56970  0.68180  Biso   1.000  C
  H66      1.0000 0.29140  0.55670  0.70960  Biso   1.000  H
  C93      1.0000 0.21130  0.50120  0.63620  Biso   1.000  C
  H67      1.0000 0.24330  0.44420  0.63490  Biso   1.000  H
  N41      1.0000 0.14160  0.51400  0.59560  Biso   1.000  N
  N42      1.0000 0.02790  0.60960  0.55780  Biso   1.000  N
  C94      1.0000 0.98290  0.68890  0.55870  Biso   1.000  C
  H68      1.0000 0.93360  0.69800  0.52850  Biso   1.000  H
  C95      1.0000 0.00580  0.75970  0.60280  Biso   1.000  C
  H69      1.0000 0.97110  0.81500  0.60320  Biso   1.000  H
  C96      1.0000 0.07790  0.74900  0.64520  Biso   1.000  C
  H70      1.0000 0.09510  0.79730  0.67430  Biso   1.000  H
  C97      1.0000 0.12610  0.66600  0.64510  Biso   1.000  C
  C98      1.0000 0.09950  0.59640  0.60040  Biso   1.000  C
  N43      1.0000 0.84970  0.19980  0.18740  Biso   1.000  N
  C99      1.0000 0.93030  0.24030  0.18180  Biso   1.000  C
  H71      1.0000 0.94330  0.29140  0.20960  Biso   1.000  H
  C100     1.0000 0.99880  0.21130  0.13620  Biso   1.000  C
  H72      1.0000 0.05580  0.24330  0.13490  Biso   1.000  H
  N44      1.0000 0.98600  0.14160  0.09560  Biso   1.000  N
  N45      1.0000 0.89040  0.02790  0.05780  Biso   1.000  N
  C101     1.0000 0.81110  0.98290  0.05870  Biso   1.000  C
  H73      1.0000 0.80200  0.93360  0.02850  Biso   1.000  H
  C102     1.0000 0.74030  0.00580  0.10280  Biso   1.000  C
  H74      1.0000 0.68500  0.97110  0.10320  Biso   1.000  H
  C103     1.0000 0.75100  0.07790  0.14520  Biso   1.000  C
  H75      1.0000 0.70270  0.09510  0.17430  Biso   1.000  H
  C104     1.0000 0.83400  0.12610  0.14510  Biso   1.000  C
  C105     1.0000 0.90360  0.09950  0.10040  Biso   1.000  C
  N46      1.0000 0.65030  0.30020  0.18740  Biso   1.000  N
  C106     1.0000 0.56970  0.25970  0.18180  Biso   1.000  C
  H76      1.0000 0.55670  0.20860  0.20960  Biso   1.000  H
  C107     1.0000 0.50120  0.28870  0.13620  Biso   1.000  C
  H77      1.0000 0.44420  0.25670  0.13490  Biso   1.000  H
  N47      1.0000 0.51400  0.35840  0.09560  Biso   1.000  N
  N48      1.0000 0.60960  0.47210  0.05780  Biso   1.000  N
  C108     1.0000 0.68890  0.51710  0.05870  Biso   1.000  C
  H78      1.0000 0.69800  0.56640  0.02850  Biso   1.000  H
  C109     1.0000 0.75970  0.49420  0.10280  Biso   1.000  C
  H79      1.0000 0.81500  0.52890  0.10320  Biso   1.000  H
  C110     1.0000 0.74900  0.42210  0.14520  Biso   1.000  C
  H80      1.0000 0.79730  0.40490  0.17430  Biso   1.000  H
  C111     1.0000 0.66600  0.37390  0.14510  Biso   1.000  C
  C112     1.0000 0.59640  0.40050  0.10040  Biso   1.000  C
  Cu1      1.0000 0.50000  0.50000  0.00000  Biso   1.000  Cu
  Cu2      1.0000 0.00000  0.00000  0.00000  Biso   1.000  Cu
  Cu3      1.0000 0.00000  0.50000  0.50000  Biso   1.000  Cu
  Cu4      1.0000 0.50000  0.00000  0.50000  Biso   1.000  Cu
  Cu5      1.0000 0.25000  0.75000  0.25000  Biso   1.000  Cu
  Cu6      1.0000 0.75000  0.25000  0.75000  Biso   1.000  Cu
  Cu7      1.0000 0.75000  0.25000  0.25000  Biso   1.000  Cu
  Cu8      1.0000 0.25000  0.75000  0.75000  Biso   1.000  Cu
