data_image0
_cell_length_a       7.7092
_cell_length_b       9.1132
_cell_length_c       12.2839
_cell_angle_alpha    90
_cell_angle_beta     90
_cell_angle_gamma    90

_symmetry_space_group_name_H-M    "P 1"
_symmetry_int_tables_number       1

loop_
  _symmetry_equiv_pos_as_xyz
  'x, y, z'

loop_
  _atom_site_label
  _atom_site_occupancy
  _atom_site_fract_x
  _atom_site_fract_y
  _atom_site_fract_z
  _atom_site_thermal_displace_type
  _atom_site_B_iso_or_equiv
  _atom_site_type_symbol
  O1       1.0000 0.75800  0.63200  0.43870  Biso   1.000  O
  O2       1.0000 0.07870  0.64630  0.34410  Biso   1.000  O
  C1       1.0000 0.51240  0.71080  0.34030  Biso   1.000  C
  H1       1.0000 0.45290  0.66370  0.40150  Biso   1.000  H
  H2       1.0000 0.47150  0.66790  0.27180  Biso   1.000  H
  H3       1.0000 0.48750  0.81630  0.34080  Biso   1.000  H
  C2       1.0000 0.70580  0.68700  0.35080  Biso   1.000  C
  C3       1.0000 0.81790  0.72520  0.26370  Biso   1.000  C
  C4       1.0000 0.00130  0.70350  0.26610  Biso   1.000  C
  C5       1.0000 0.10690  0.75780  0.17000  Biso   1.000  C
  H4       1.0000 0.21050  0.80890  0.19660  Biso   1.000  H
  H5       1.0000 0.03670  0.82550  0.12650  Biso   1.000  H
  H6       1.0000 0.14190  0.67410  0.12500  Biso   1.000  H
  C6       1.0000 0.74110  0.79900  0.17320  Biso   1.000  C
  N1       1.0000 0.67610  0.85520  0.10110  Biso   1.000  N
  O3       1.0000 0.24200  0.36800  0.43870  Biso   1.000  O
  O4       1.0000 0.92130  0.35370  0.34410  Biso   1.000  O
  C7       1.0000 0.48760  0.28920  0.34030  Biso   1.000  C
  H7       1.0000 0.54710  0.33630  0.40150  Biso   1.000  H
  H8       1.0000 0.52850  0.33210  0.27180  Biso   1.000  H
  H9       1.0000 0.51250  0.18370  0.34080  Biso   1.000  H
  C8       1.0000 0.29420  0.31300  0.35080  Biso   1.000  C
  C9       1.0000 0.18210  0.27480  0.26370  Biso   1.000  C
  C10      1.0000 0.99870  0.29650  0.26610  Biso   1.000  C
  C11      1.0000 0.89310  0.24220  0.17000  Biso   1.000  C
  H10      1.0000 0.78950  0.19110  0.19660  Biso   1.000  H
  H11      1.0000 0.96330  0.17450  0.12650  Biso   1.000  H
  H12      1.0000 0.85810  0.32590  0.12500  Biso   1.000  H
  C12      1.0000 0.25890  0.20100  0.17320  Biso   1.000  C
  N2       1.0000 0.32390  0.14480  0.10110  Biso   1.000  N
  O5       1.0000 0.24200  0.63200  0.56130  Biso   1.000  O
  O6       1.0000 0.92130  0.64630  0.65590  Biso   1.000  O
  C13      1.0000 0.48760  0.71080  0.65970  Biso   1.000  C
  H13      1.0000 0.54710  0.66370  0.59850  Biso   1.000  H
  H14      1.0000 0.52850  0.66790  0.72820  Biso   1.000  H
  H15      1.0000 0.51250  0.81630  0.65920  Biso   1.000  H
  C14      1.0000 0.29420  0.68700  0.64920  Biso   1.000  C
  C15      1.0000 0.18210  0.72520  0.73630  Biso   1.000  C
  C16      1.0000 0.99870  0.70350  0.73390  Biso   1.000  C
  C17      1.0000 0.89310  0.75780  0.83000  Biso   1.000  C
  H16      1.0000 0.78950  0.80890  0.80340  Biso   1.000  H
  H17      1.0000 0.96330  0.82550  0.87350  Biso   1.000  H
  H18      1.0000 0.85810  0.67410  0.87500  Biso   1.000  H
  C18      1.0000 0.25890  0.79900  0.82680  Biso   1.000  C
  N3       1.0000 0.32390  0.85520  0.89890  Biso   1.000  N
  O7       1.0000 0.75800  0.36800  0.56130  Biso   1.000  O
  O8       1.0000 0.07870  0.35370  0.65590  Biso   1.000  O
  C19      1.0000 0.51240  0.28920  0.65970  Biso   1.000  C
  H19      1.0000 0.45290  0.33630  0.59850  Biso   1.000  H
  H20      1.0000 0.47150  0.33210  0.72820  Biso   1.000  H
  H21      1.0000 0.48750  0.18370  0.65920  Biso   1.000  H
  C20      1.0000 0.70580  0.31300  0.64920  Biso   1.000  C
  C21      1.0000 0.81790  0.27480  0.73630  Biso   1.000  C
  C22      1.0000 0.00130  0.29650  0.73390  Biso   1.000  C
  C23      1.0000 0.10690  0.24220  0.83000  Biso   1.000  C
  H22      1.0000 0.21050  0.19110  0.80340  Biso   1.000  H
  H23      1.0000 0.03670  0.17450  0.87350  Biso   1.000  H
  H24      1.0000 0.14190  0.32590  0.87500  Biso   1.000  H
  C24      1.0000 0.74110  0.20100  0.82680  Biso   1.000  C
  N4       1.0000 0.67610  0.14480  0.89890  Biso   1.000  N
  Eu1      1.0000 0.00000  0.50000  0.50000  Biso   1.000  Eu
  Ag1      1.0000 0.50000  0.00000  0.00000  Biso   1.000  Ag
