data_image0
_cell_length_a       7.6835
_cell_length_b       8.6805
_cell_length_c       12.354
_cell_angle_alpha    90
_cell_angle_beta     90
_cell_angle_gamma    90

_symmetry_space_group_name_H-M    "P 1"
_symmetry_int_tables_number       1

loop_
  _symmetry_equiv_pos_as_xyz
  'x, y, z'

loop_
  _atom_site_label
  _atom_site_occupancy
  _atom_site_fract_x
  _atom_site_fract_y
  _atom_site_fract_z
  _atom_site_thermal_displace_type
  _atom_site_B_iso_or_equiv
  _atom_site_type_symbol
  O1       1.0000 0.41560  0.14920  0.64750  Biso   1.000  O
  O2       1.0000 0.26380  0.86540  0.55750  Biso   1.000  O
  C1       1.0000 0.75460  0.29580  0.82380  Biso   1.000  C
  C2       1.0000 0.67680  0.22780  0.73070  Biso   1.000  C
  C3       1.0000 0.49410  0.21080  0.72620  Biso   1.000  C
  C4       1.0000 0.21100  0.80800  0.64450  Biso   1.000  C
  C5       1.0000 0.61410  0.73160  0.81910  Biso   1.000  C
  H1       1.0000 0.69150  0.64940  0.79380  Biso   1.000  H
  H2       1.0000 0.53750  0.69140  0.87590  Biso   1.000  H
  H3       1.0000 0.68390  0.81650  0.84830  Biso   1.000  H
  C6       1.0000 0.98320  0.22150  0.65290  Biso   1.000  C
  H4       1.0000 0.04170  0.18020  0.58870  Biso   1.000  H
  H5       1.0000 0.02900  0.17060  0.71780  Biso   1.000  H
  H6       1.0000 0.00440  0.33260  0.65780  Biso   1.000  H
  N1       1.0000 0.82200  0.35110  0.89740  Biso   1.000  N
  O3       1.0000 0.58440  0.85080  0.64750  Biso   1.000  O
  O4       1.0000 0.73620  0.13460  0.55750  Biso   1.000  O
  C7       1.0000 0.24540  0.70420  0.82380  Biso   1.000  C
  C8       1.0000 0.32320  0.77220  0.73070  Biso   1.000  C
  C9       1.0000 0.50590  0.78920  0.72620  Biso   1.000  C
  C10      1.0000 0.78900  0.19200  0.64450  Biso   1.000  C
  C11      1.0000 0.38590  0.26840  0.81910  Biso   1.000  C
  H7       1.0000 0.30850  0.35060  0.79380  Biso   1.000  H
  H8       1.0000 0.46250  0.30860  0.87590  Biso   1.000  H
  H9       1.0000 0.31610  0.18350  0.84830  Biso   1.000  H
  C12      1.0000 0.01680  0.77850  0.65290  Biso   1.000  C
  H10      1.0000 0.95830  0.81980  0.58870  Biso   1.000  H
  H11      1.0000 0.97100  0.82940  0.71780  Biso   1.000  H
  H12      1.0000 0.99560  0.66740  0.65780  Biso   1.000  H
  N2       1.0000 0.17800  0.64890  0.89740  Biso   1.000  N
  O5       1.0000 0.58440  0.14920  0.35250  Biso   1.000  O
  O6       1.0000 0.73620  0.86540  0.44250  Biso   1.000  O
  C13      1.0000 0.24540  0.29580  0.17620  Biso   1.000  C
  C14      1.0000 0.32320  0.22780  0.26930  Biso   1.000  C
  C15      1.0000 0.50590  0.21080  0.27380  Biso   1.000  C
  C16      1.0000 0.78900  0.80800  0.35550  Biso   1.000  C
  C17      1.0000 0.38590  0.73160  0.18090  Biso   1.000  C
  H13      1.0000 0.30850  0.64940  0.20620  Biso   1.000  H
  H14      1.0000 0.46250  0.69140  0.12410  Biso   1.000  H
  H15      1.0000 0.31610  0.81650  0.15170  Biso   1.000  H
  C18      1.0000 0.01680  0.22150  0.34710  Biso   1.000  C
  H16      1.0000 0.95830  0.18020  0.41130  Biso   1.000  H
  H17      1.0000 0.97100  0.17060  0.28220  Biso   1.000  H
  H18      1.0000 0.99560  0.33260  0.34220  Biso   1.000  H
  N3       1.0000 0.17800  0.35110  0.10260  Biso   1.000  N
  O7       1.0000 0.41560  0.85080  0.35250  Biso   1.000  O
  O8       1.0000 0.26380  0.13460  0.44250  Biso   1.000  O
  C19      1.0000 0.75460  0.70420  0.17620  Biso   1.000  C
  C20      1.0000 0.67680  0.77220  0.26930  Biso   1.000  C
  C21      1.0000 0.49410  0.78920  0.27380  Biso   1.000  C
  C22      1.0000 0.21100  0.19200  0.35550  Biso   1.000  C
  C23      1.0000 0.61410  0.26840  0.18090  Biso   1.000  C
  H19      1.0000 0.69150  0.35060  0.20620  Biso   1.000  H
  H20      1.0000 0.53750  0.30860  0.12410  Biso   1.000  H
  H21      1.0000 0.68390  0.18350  0.15170  Biso   1.000  H
  C24      1.0000 0.98320  0.77850  0.34710  Biso   1.000  C
  H22      1.0000 0.04170  0.81980  0.41130  Biso   1.000  H
  H23      1.0000 0.02900  0.82940  0.28220  Biso   1.000  H
  H24      1.0000 0.00440  0.66740  0.34220  Biso   1.000  H
  N4       1.0000 0.82200  0.64890  0.10260  Biso   1.000  N
  Ag1      1.0000 0.00000  0.50000  0.00000  Biso   1.000  Ag
  Yb1      1.0000 0.50000  0.00000  0.50000  Biso   1.000  Yb
