data_ZAYKAN_charged
_audit_creation_date              2014-07-02
_audit_creation_method            'Materials Studio'
_symmetry_space_group_name_H-M    'P1'
_symmetry_Int_Tables_number       1
_symmetry_cell_setting            triclinic
loop_
_symmetry_equiv_pos_as_xyz
  x,y,z
_cell_length_a                    12.2490
_cell_length_b                    21.7390
_cell_length_c                    22.7220
_cell_angle_alpha                 90.0000
_cell_angle_beta                  91.6700
_cell_angle_gamma                 90.0000
loop_
_atom_site_label
_atom_site_type_symbol
_atom_site_fract_x
_atom_site_fract_y
_atom_site_fract_z
_atom_site_U_iso_or_equiv
_atom_site_adp_type
_atom_site_occupancy
Nd1    Nd    0.13255   0.71081   0.58648   0.01267  Uiso   1.00
Nd2    Nd    0.64758   0.61566   0.58435   0.01267  Uiso   1.00
Nd3    Nd    0.86745   0.21081   0.91352   0.01267  Uiso   1.00
Nd4    Nd    0.35242   0.11566   0.91565   0.01267  Uiso   1.00
Nd5    Nd    0.86745   0.28919   0.41352   0.01267  Uiso   1.00
Nd6    Nd    0.35242   0.38434   0.41565   0.01267  Uiso   1.00
Nd7    Nd    0.13255   0.78919   0.08648   0.01267  Uiso   1.00
Nd8    Nd    0.64758   0.88434   0.08435   0.01267  Uiso   1.00
H1     H     0.48640   0.66620   0.73830   0.01267  Uiso   1.00
H2     H     0.22510   0.71200   0.83140   0.01267  Uiso   1.00
H3     H     0.12950   0.72920   0.74660   0.01267  Uiso   1.00
H4     H     0.95620   0.65590   0.75910   0.01267  Uiso   1.00
H5     H     0.70200   0.57840   0.83130   0.01267  Uiso   1.00
H6     H     0.61250   0.57530   0.74000   0.01267  Uiso   1.00
H7     H     0.51360   0.16620   0.76170   0.01267  Uiso   1.00
H8     H     0.77490   0.21200   0.66860   0.01267  Uiso   1.00
H9     H     0.87050   0.22920   0.75340   0.01267  Uiso   1.00
H10    H     0.04380   0.15590   0.74090   0.01267  Uiso   1.00
H11    H     0.29800   0.07840   0.66870   0.01267  Uiso   1.00
H12    H     0.38750   0.07530   0.76000   0.01267  Uiso   1.00
H13    H     0.51360   0.33380   0.26170   0.01267  Uiso   1.00
H14    H     0.77490   0.28800   0.16860   0.01267  Uiso   1.00
H15    H     0.87050   0.27080   0.25340   0.01267  Uiso   1.00
H16    H     0.04380   0.34410   0.24090   0.01267  Uiso   1.00
H17    H     0.29800   0.42160   0.16870   0.01267  Uiso   1.00
H18    H     0.38750   0.42470   0.26000   0.01267  Uiso   1.00
H19    H     0.48640   0.83380   0.23830   0.01267  Uiso   1.00
H20    H     0.22510   0.78800   0.33140   0.01267  Uiso   1.00
H21    H     0.12950   0.77080   0.24660   0.01267  Uiso   1.00
H22    H     0.95620   0.84410   0.25910   0.01267  Uiso   1.00
H23    H     0.70200   0.92160   0.33130   0.01267  Uiso   1.00
H24    H     0.61250   0.92470   0.24000   0.01267  Uiso   1.00
W1     W     0.81691   0.03463   0.85203   0.01267  Uiso   1.00
W2     W     0.67295   0.77251   0.82525   0.01267  Uiso   1.00
W3     W     0.49457   0.85701   0.74490   0.01267  Uiso   1.00
W4     W     0.03554   0.95378   0.78151   0.01267  Uiso   1.00
W5     W     0.77891   0.92126   0.60917   0.01267  Uiso   1.00
W6     W     0.84446   0.04462   0.69370   0.01267  Uiso   1.00
W7     W     0.95450   0.82024   0.84242   0.01267  Uiso   1.00
W8     W     0.58100   0.99919   0.67832   0.01267  Uiso   1.00
W9     W     0.97483   0.83279   0.69919   0.01267  Uiso   1.00
W10    W     0.73913   0.90848   0.91374   0.01267  Uiso   1.00
W11    W     0.69218   0.78032   0.68215   0.01267  Uiso   1.00
W12    W     0.56230   0.98957   0.83902   0.01267  Uiso   1.00
W13    W     0.18309   0.53463   0.64797   0.01267  Uiso   1.00
W14    W     0.32705   0.27251   0.67475   0.01267  Uiso   1.00
W15    W     0.50543   0.35701   0.75510   0.01267  Uiso   1.00
W16    W     0.96446   0.45378   0.71849   0.01267  Uiso   1.00
W17    W     0.22109   0.42126   0.89083   0.01267  Uiso   1.00
W18    W     0.15554   0.54462   0.80630   0.01267  Uiso   1.00
W19    W     0.04550   0.32024   0.65758   0.01267  Uiso   1.00
W20    W     0.41900   0.49919   0.82168   0.01267  Uiso   1.00
W21    W     0.02517   0.33279   0.80081   0.01267  Uiso   1.00
W22    W     0.26087   0.40848   0.58626   0.01267  Uiso   1.00
W23    W     0.30782   0.28032   0.81785   0.01267  Uiso   1.00
W24    W     0.43770   0.48957   0.66098   0.01267  Uiso   1.00
W25    W     0.18309   0.96537   0.14797   0.01267  Uiso   1.00
W26    W     0.32705   0.22749   0.17475   0.01267  Uiso   1.00
W27    W     0.50543   0.14299   0.25510   0.01267  Uiso   1.00
W28    W     0.96446   0.04622   0.21849   0.01267  Uiso   1.00
W29    W     0.22109   0.07874   0.39083   0.01267  Uiso   1.00
W30    W     0.15554   0.95538   0.30630   0.01267  Uiso   1.00
W31    W     0.04550   0.17976   0.15758   0.01267  Uiso   1.00
W32    W     0.41900   0.00081   0.32168   0.01267  Uiso   1.00
W33    W     0.02517   0.16721   0.30081   0.01267  Uiso   1.00
W34    W     0.26087   0.09152   0.08626   0.01267  Uiso   1.00
W35    W     0.30782   0.21968   0.31785   0.01267  Uiso   1.00
W36    W     0.43770   0.01043   0.16098   0.01267  Uiso   1.00
W37    W     0.81691   0.46537   0.35203   0.01267  Uiso   1.00
W38    W     0.67295   0.72749   0.32525   0.01267  Uiso   1.00
W39    W     0.49457   0.64299   0.24490   0.01267  Uiso   1.00
W40    W     0.03554   0.54622   0.28151   0.01267  Uiso   1.00
W41    W     0.77891   0.57874   0.10917   0.01267  Uiso   1.00
W42    W     0.84446   0.45538   0.19370   0.01267  Uiso   1.00
W43    W     0.95450   0.67976   0.34242   0.01267  Uiso   1.00
W44    W     0.58100   0.50081   0.17832   0.01267  Uiso   1.00
W45    W     0.97483   0.66721   0.19919   0.01267  Uiso   1.00
W46    W     0.73913   0.59152   0.41374   0.01267  Uiso   1.00
W47    W     0.69218   0.71968   0.18215   0.01267  Uiso   1.00
W48    W     0.56230   0.51043   0.33902   0.01267  Uiso   1.00
C1     C     0.39200   0.67230   0.62800   0.01267  Uiso   1.00
C2     C     0.35000   0.68640   0.68850   0.01267  Uiso   1.00
C3     C     0.41200   0.67920   0.74040   0.01267  Uiso   1.00
C4     C     0.26000   0.70850   0.79420   0.01267  Uiso   1.00
C5     C     0.20200   0.71350   0.74300   0.01267  Uiso   1.00
C6     C     0.89550   0.64900   0.64490   0.01267  Uiso   1.00
C7     C     0.83670   0.63060   0.70040   0.01267  Uiso   1.00
C8     C     0.88500   0.63750   0.75620   0.01267  Uiso   1.00
C9     C     0.73600   0.59540   0.79730   0.01267  Uiso   1.00
C10    C     0.68660   0.58960   0.74280   0.01267  Uiso   1.00
C11    C     0.60800   0.17230   0.87200   0.01267  Uiso   1.00
C12    C     0.65000   0.18640   0.81150   0.01267  Uiso   1.00
C13    C     0.58800   0.17920   0.75960   0.01267  Uiso   1.00
C14    C     0.74000   0.20850   0.70580   0.01267  Uiso   1.00
C15    C     0.79800   0.21350   0.75700   0.01267  Uiso   1.00
C16    C     0.10450   0.14900   0.85510   0.01267  Uiso   1.00
C17    C     0.16330   0.13060   0.79960   0.01267  Uiso   1.00
C18    C     0.11500   0.13750   0.74380   0.01267  Uiso   1.00
C19    C     0.26400   0.09540   0.70270   0.01267  Uiso   1.00
C20    C     0.31340   0.08960   0.75720   0.01267  Uiso   1.00
C21    C     0.60800   0.32770   0.37200   0.01267  Uiso   1.00
C22    C     0.65000   0.31360   0.31150   0.01267  Uiso   1.00
C23    C     0.58800   0.32080   0.25960   0.01267  Uiso   1.00
C24    C     0.74000   0.29150   0.20580   0.01267  Uiso   1.00
C25    C     0.79800   0.28650   0.25700   0.01267  Uiso   1.00
C26    C     0.10450   0.35100   0.35510   0.01267  Uiso   1.00
C27    C     0.16330   0.36940   0.29960   0.01267  Uiso   1.00
C28    C     0.11500   0.36250   0.24380   0.01267  Uiso   1.00
C29    C     0.26400   0.40460   0.20270   0.01267  Uiso   1.00
C30    C     0.31340   0.41040   0.25720   0.01267  Uiso   1.00
C31    C     0.39200   0.82770   0.12800   0.01267  Uiso   1.00
C32    C     0.35000   0.81360   0.18850   0.01267  Uiso   1.00
C33    C     0.41200   0.82080   0.24040   0.01267  Uiso   1.00
C34    C     0.26000   0.79150   0.29420   0.01267  Uiso   1.00
C35    C     0.20200   0.78650   0.24300   0.01267  Uiso   1.00
C36    C     0.89550   0.85100   0.14490   0.01267  Uiso   1.00
C37    C     0.83670   0.86940   0.20040   0.01267  Uiso   1.00
C38    C     0.88500   0.86250   0.25620   0.01267  Uiso   1.00
C39    C     0.73600   0.90460   0.29730   0.01267  Uiso   1.00
C40    C     0.68660   0.91040   0.24280   0.01267  Uiso   1.00
N1     N     0.73490   0.60800   0.69320   0.01267  Uiso   1.00
N2     N     0.83690   0.62130   0.80250   0.01267  Uiso   1.00
N3     N     0.24280   0.70200   0.68960   0.01267  Uiso   1.00
N4     N     0.36720   0.69090   0.79140   0.01267  Uiso   1.00
N5     N     0.26510   0.10800   0.80680   0.01267  Uiso   1.00
N6     N     0.16310   0.12130   0.69750   0.01267  Uiso   1.00
N7     N     0.75720   0.20200   0.81040   0.01267  Uiso   1.00
N8     N     0.63280   0.19090   0.70860   0.01267  Uiso   1.00
N9     N     0.26510   0.39200   0.30680   0.01267  Uiso   1.00
N10    N     0.16310   0.37870   0.19750   0.01267  Uiso   1.00
N11    N     0.75720   0.29800   0.31040   0.01267  Uiso   1.00
N12    N     0.63280   0.30910   0.20860   0.01267  Uiso   1.00
N13    N     0.73490   0.89200   0.19320   0.01267  Uiso   1.00
N14    N     0.83690   0.87870   0.30250   0.01267  Uiso   1.00
N15    N     0.24280   0.79800   0.18960   0.01267  Uiso   1.00
N16    N     0.36720   0.80910   0.29140   0.01267  Uiso   1.00
O1     O     0.07330   0.89610   0.72180   0.01267  Uiso   1.00
O2     O     0.79720   0.91490   0.53720   0.01267  Uiso   1.00
O3     O     0.06220   0.79180   0.65500   0.01267  Uiso   1.00
O4     O     0.35860   0.84430   0.73660   0.01267  Uiso   1.00
O5     O     0.45110   0.02890   0.86160   0.01267  Uiso   1.00
O6     O     0.73200   0.89090   0.98670   0.01267  Uiso   1.00
O7     O     0.16260   0.98510   0.79100   0.01267  Uiso   1.00
O8     O     0.47910   0.03950   0.64330   0.01267  Uiso   1.00
O9     O     0.68050   0.71940   0.63140   0.01267  Uiso   1.00
O10    O     0.66980   0.83510   0.88330   0.01267  Uiso   1.00
O11    O     0.95090   0.99690   0.83620   0.01267  Uiso   1.00
O12    O     0.67710   0.84290   0.75500   0.01267  Uiso   1.00
O13    O     0.84580   0.78440   0.69370   0.01267  Uiso   1.00
O14    O     0.03120   0.77700   0.88890   0.01267  Uiso   1.00
O15    O     0.81250   0.06070   0.77390   0.01267  Uiso   1.00
O16    O     0.85320   0.99910   0.62260   0.01267  Uiso   1.00
O17    O     0.72810   0.95240   0.83160   0.01267  Uiso   1.00
O18    O     0.87680   0.87060   0.89600   0.01267  Uiso   1.00
O19    O     0.96900   0.00200   0.72290   0.01267  Uiso   1.00
O20    O     0.74480   0.95600   0.70400   0.01267  Uiso   1.00
O21    O     0.90870   0.88500   0.64390   0.01267  Uiso   1.00
O22    O     0.59310   0.94770   0.91170   0.01267  Uiso   1.00
O23    O     0.56000   0.01870   0.75760   0.01267  Uiso   1.00
O24    O     0.70640   0.84750   0.62910   0.01267  Uiso   1.00
O25    O     0.52510   0.79240   0.80520   0.01267  Uiso   1.00
O26    O     0.00680   0.78980   0.77070   0.01267  Uiso   1.00
O27    O     0.68160   0.72970   0.75000   0.01267  Uiso   1.00
O28    O     0.82510   0.77260   0.83240   0.01267  Uiso   1.00
O29    O     0.64410   0.96270   0.60970   0.01267  Uiso   1.00
O30    O     0.06100   0.88870   0.84060   0.01267  Uiso   1.00
O31    O     0.85260   0.10040   0.88940   0.01267  Uiso   1.00
O32    O     0.89880   0.88280   0.77210   0.01267  Uiso   1.00
O33    O     0.80830   0.98750   0.92590   0.01267  Uiso   1.00
O34    O     0.54110   0.80040   0.68570   0.01267  Uiso   1.00
O35    O     0.51980   0.92180   0.69190   0.01267  Uiso   1.00
O36    O     0.49950   0.91620   0.80700   0.01267  Uiso   1.00
O37    O     0.66370   0.05470   0.85790   0.01267  Uiso   1.00
O38    O     0.69300   0.06120   0.67460   0.01267  Uiso   1.00
O39    O     0.89800   0.11400   0.67190   0.01267  Uiso   1.00
O40    O     0.64320   0.70780   0.86530   0.01267  Uiso   1.00
O41    O     0.01000   0.78260   0.53200   0.01267  Uiso   1.00
O42    O     0.19870   0.70720   0.48380   0.01267  Uiso   1.00
O43    O     0.00190   0.65030   0.51930   0.01267  Uiso   1.00
O44    O     0.24920   0.80460   0.57980   0.01267  Uiso   1.00
O45    O     0.98700   0.67240   0.65000   0.01267  Uiso   1.00
O46    O     0.33020   0.68070   0.58480   0.01267  Uiso   1.00
O47    O     0.48830   0.65580   0.62820   0.01267  Uiso   1.00
O48    O     0.84430   0.63760   0.59600   0.01267  Uiso   1.00
O49    O     0.51040   0.56940   0.51650   0.01267  Uiso   1.00
O50    O     0.58730   0.70440   0.51670   0.01267  Uiso   1.00
O51    O     0.74050   0.51540   0.57850   0.01267  Uiso   1.00
O52    O     0.92670   0.39610   0.77820   0.01267  Uiso   1.00
O53    O     0.20280   0.41490   0.96280   0.01267  Uiso   1.00
O54    O     0.93780   0.29180   0.84500   0.01267  Uiso   1.00
O55    O     0.64140   0.34430   0.76340   0.01267  Uiso   1.00
O56    O     0.54890   0.52890   0.63840   0.01267  Uiso   1.00
O57    O     0.26800   0.39090   0.51330   0.01267  Uiso   1.00
O58    O     0.83740   0.48510   0.70900   0.01267  Uiso   1.00
O59    O     0.52090   0.53950   0.85670   0.01267  Uiso   1.00
O60    O     0.31950   0.21940   0.86860   0.01267  Uiso   1.00
O61    O     0.33020   0.33510   0.61670   0.01267  Uiso   1.00
O62    O     0.04910   0.49690   0.66380   0.01267  Uiso   1.00
O63    O     0.32290   0.34290   0.74500   0.01267  Uiso   1.00
O64    O     0.15420   0.28440   0.80630   0.01267  Uiso   1.00
O65    O     0.96880   0.27700   0.61110   0.01267  Uiso   1.00
O66    O     0.18750   0.56070   0.72610   0.01267  Uiso   1.00
O67    O     0.14680   0.49910   0.87740   0.01267  Uiso   1.00
O68    O     0.27190   0.45240   0.66840   0.01267  Uiso   1.00
O69    O     0.12320   0.37060   0.60400   0.01267  Uiso   1.00
O70    O     0.03100   0.50200   0.77710   0.01267  Uiso   1.00
O71    O     0.25520   0.45600   0.79600   0.01267  Uiso   1.00
O72    O     0.09130   0.38500   0.85610   0.01267  Uiso   1.00
O73    O     0.40690   0.44770   0.58830   0.01267  Uiso   1.00
O74    O     0.44000   0.51870   0.74240   0.01267  Uiso   1.00
O75    O     0.29360   0.34750   0.87090   0.01267  Uiso   1.00
O76    O     0.47490   0.29240   0.69480   0.01267  Uiso   1.00
O77    O     0.99320   0.28980   0.72930   0.01267  Uiso   1.00
O78    O     0.31840   0.22970   0.75000   0.01267  Uiso   1.00
O79    O     0.17490   0.27260   0.66760   0.01267  Uiso   1.00
O80    O     0.35590   0.46270   0.89030   0.01267  Uiso   1.00
O81    O     0.93900   0.38870   0.65940   0.01267  Uiso   1.00
O82    O     0.14740   0.60040   0.61060   0.01267  Uiso   1.00
O83    O     0.10120   0.38280   0.72790   0.01267  Uiso   1.00
O84    O     0.19170   0.48750   0.57410   0.01267  Uiso   1.00
O85    O     0.45890   0.30040   0.81430   0.01267  Uiso   1.00
O86    O     0.48020   0.42180   0.80810   0.01267  Uiso   1.00
O87    O     0.50050   0.41620   0.69300   0.01267  Uiso   1.00
O88    O     0.33630   0.55470   0.64210   0.01267  Uiso   1.00
O89    O     0.30700   0.56120   0.82540   0.01267  Uiso   1.00
O90    O     0.10200   0.61400   0.82810   0.01267  Uiso   1.00
O91    O     0.35680   0.20780   0.63470   0.01267  Uiso   1.00
O92    O     0.99000   0.28260   0.96800   0.01267  Uiso   1.00
O93    O     0.80130   0.20720   0.01620   0.01267  Uiso   1.00
O94    O     0.99810   0.15030   0.98070   0.01267  Uiso   1.00
O95    O     0.75080   0.30460   0.92020   0.01267  Uiso   1.00
O96    O     0.01300   0.17240   0.85000   0.01267  Uiso   1.00
O97    O     0.66980   0.18070   0.91520   0.01267  Uiso   1.00
O98    O     0.51170   0.15580   0.87180   0.01267  Uiso   1.00
O99    O     0.15570   0.13760   0.90400   0.01267  Uiso   1.00
O100   O     0.48960   0.06940   0.98350   0.01267  Uiso   1.00
O101   O     0.41270   0.20440   0.98330   0.01267  Uiso   1.00
O102   O     0.25950   0.01540   0.92150   0.01267  Uiso   1.00
O103   O     0.92670   0.10390   0.27820   0.01267  Uiso   1.00
O104   O     0.20280   0.08510   0.46280   0.01267  Uiso   1.00
O105   O     0.93780   0.20820   0.34500   0.01267  Uiso   1.00
O106   O     0.64140   0.15570   0.26340   0.01267  Uiso   1.00
O107   O     0.54890   0.97110   0.13840   0.01267  Uiso   1.00
O108   O     0.26800   0.10910   0.01330   0.01267  Uiso   1.00
O109   O     0.83740   0.01490   0.20900   0.01267  Uiso   1.00
O110   O     0.52090   0.96050   0.35670   0.01267  Uiso   1.00
O111   O     0.31950   0.28060   0.36860   0.01267  Uiso   1.00
O112   O     0.33020   0.16490   0.11670   0.01267  Uiso   1.00
O113   O     0.04910   0.00310   0.16380   0.01267  Uiso   1.00
O114   O     0.32290   0.15710   0.24500   0.01267  Uiso   1.00
O115   O     0.15420   0.21560   0.30630   0.01267  Uiso   1.00
O116   O     0.96880   0.22300   0.11110   0.01267  Uiso   1.00
O117   O     0.18750   0.93930   0.22610   0.01267  Uiso   1.00
O118   O     0.14680   0.00090   0.37740   0.01267  Uiso   1.00
O119   O     0.27190   0.04760   0.16840   0.01267  Uiso   1.00
O120   O     0.12320   0.12940   0.10400   0.01267  Uiso   1.00
O121   O     0.03100   0.99800   0.27710   0.01267  Uiso   1.00
O122   O     0.25520   0.04400   0.29600   0.01267  Uiso   1.00
O123   O     0.09130   0.11500   0.35610   0.01267  Uiso   1.00
O124   O     0.40690   0.05230   0.08830   0.01267  Uiso   1.00
O125   O     0.44000   0.98130   0.24240   0.01267  Uiso   1.00
O126   O     0.29360   0.15250   0.37090   0.01267  Uiso   1.00
O127   O     0.47490   0.20760   0.19480   0.01267  Uiso   1.00
O128   O     0.99320   0.21020   0.22930   0.01267  Uiso   1.00
O129   O     0.31840   0.27030   0.25000   0.01267  Uiso   1.00
O130   O     0.17490   0.22740   0.16760   0.01267  Uiso   1.00
O131   O     0.35590   0.03730   0.39030   0.01267  Uiso   1.00
O132   O     0.93900   0.11130   0.15940   0.01267  Uiso   1.00
O133   O     0.14740   0.89960   0.11060   0.01267  Uiso   1.00
O134   O     0.10120   0.11720   0.22790   0.01267  Uiso   1.00
O135   O     0.19170   0.01250   0.07410   0.01267  Uiso   1.00
O136   O     0.45890   0.19960   0.31430   0.01267  Uiso   1.00
O137   O     0.48020   0.07820   0.30810   0.01267  Uiso   1.00
O138   O     0.50050   0.08380   0.19300   0.01267  Uiso   1.00
O139   O     0.33630   0.94530   0.14210   0.01267  Uiso   1.00
O140   O     0.30700   0.93880   0.32540   0.01267  Uiso   1.00
O141   O     0.10200   0.88600   0.32810   0.01267  Uiso   1.00
O142   O     0.35680   0.29220   0.13470   0.01267  Uiso   1.00
O143   O     0.99000   0.21740   0.46800   0.01267  Uiso   1.00
O144   O     0.80130   0.29280   0.51620   0.01267  Uiso   1.00
O145   O     0.99810   0.34970   0.48070   0.01267  Uiso   1.00
O146   O     0.75080   0.19540   0.42020   0.01267  Uiso   1.00
O147   O     0.01300   0.32760   0.35000   0.01267  Uiso   1.00
O148   O     0.66980   0.31930   0.41520   0.01267  Uiso   1.00
O149   O     0.51170   0.34420   0.37180   0.01267  Uiso   1.00
O150   O     0.15570   0.36240   0.40400   0.01267  Uiso   1.00
O151   O     0.48960   0.43060   0.48350   0.01267  Uiso   1.00
O152   O     0.41270   0.29560   0.48330   0.01267  Uiso   1.00
O153   O     0.25950   0.48460   0.42150   0.01267  Uiso   1.00
O154   O     0.07330   0.60390   0.22180   0.01267  Uiso   1.00
O155   O     0.79720   0.58510   0.03720   0.01267  Uiso   1.00
O156   O     0.06220   0.70820   0.15500   0.01267  Uiso   1.00
O157   O     0.35860   0.65570   0.23660   0.01267  Uiso   1.00
O158   O     0.45110   0.47110   0.36160   0.01267  Uiso   1.00
O159   O     0.73200   0.60910   0.48670   0.01267  Uiso   1.00
O160   O     0.16260   0.51490   0.29100   0.01267  Uiso   1.00
O161   O     0.47910   0.46050   0.14330   0.01267  Uiso   1.00
O162   O     0.68050   0.78060   0.13140   0.01267  Uiso   1.00
O163   O     0.66980   0.66490   0.38330   0.01267  Uiso   1.00
O164   O     0.95090   0.50310   0.33620   0.01267  Uiso   1.00
O165   O     0.67710   0.65710   0.25500   0.01267  Uiso   1.00
O166   O     0.84580   0.71560   0.19370   0.01267  Uiso   1.00
O167   O     0.03120   0.72300   0.38890   0.01267  Uiso   1.00
O168   O     0.81250   0.43930   0.27390   0.01267  Uiso   1.00
O169   O     0.85320   0.50090   0.12260   0.01267  Uiso   1.00
O170   O     0.72810   0.54760   0.33160   0.01267  Uiso   1.00
O171   O     0.87680   0.62940   0.39600   0.01267  Uiso   1.00
O172   O     0.96900   0.49800   0.22290   0.01267  Uiso   1.00
O173   O     0.74480   0.54400   0.20400   0.01267  Uiso   1.00
O174   O     0.90870   0.61500   0.14390   0.01267  Uiso   1.00
O175   O     0.59310   0.55230   0.41170   0.01267  Uiso   1.00
O176   O     0.56000   0.48130   0.25760   0.01267  Uiso   1.00
O177   O     0.70640   0.65250   0.12910   0.01267  Uiso   1.00
O178   O     0.52510   0.70760   0.30520   0.01267  Uiso   1.00
O179   O     0.00680   0.71020   0.27070   0.01267  Uiso   1.00
O180   O     0.68160   0.77030   0.25000   0.01267  Uiso   1.00
O181   O     0.82510   0.72740   0.33240   0.01267  Uiso   1.00
O182   O     0.64410   0.53730   0.10970   0.01267  Uiso   1.00
O183   O     0.06100   0.61130   0.34060   0.01267  Uiso   1.00
O184   O     0.85260   0.39960   0.38940   0.01267  Uiso   1.00
O185   O     0.89880   0.61720   0.27210   0.01267  Uiso   1.00
O186   O     0.80830   0.51250   0.42590   0.01267  Uiso   1.00
O187   O     0.54110   0.69960   0.18570   0.01267  Uiso   1.00
O188   O     0.51980   0.57820   0.19190   0.01267  Uiso   1.00
O189   O     0.49950   0.58380   0.30700   0.01267  Uiso   1.00
O190   O     0.66370   0.44530   0.35790   0.01267  Uiso   1.00
O191   O     0.69300   0.43880   0.17460   0.01267  Uiso   1.00
O192   O     0.89800   0.38600   0.17190   0.01267  Uiso   1.00
O193   O     0.64320   0.79220   0.36530   0.01267  Uiso   1.00
O194   O     0.01000   0.71740   0.03200   0.01267  Uiso   1.00
O195   O     0.19870   0.79280   0.98380   0.01267  Uiso   1.00
O196   O     0.00190   0.84970   0.01930   0.01267  Uiso   1.00
O197   O     0.24920   0.69540   0.07980   0.01267  Uiso   1.00
O198   O     0.98700   0.82760   0.15000   0.01267  Uiso   1.00
O199   O     0.33020   0.81930   0.08480   0.01267  Uiso   1.00
O200   O     0.48830   0.84420   0.12820   0.01267  Uiso   1.00
O201   O     0.84430   0.86240   0.09600   0.01267  Uiso   1.00
O202   O     0.51040   0.93060   0.01650   0.01267  Uiso   1.00
O203   O     0.58730   0.79560   0.01670   0.01267  Uiso   1.00
O204   O     0.74050   0.98460   0.07850   0.01267  Uiso   1.00
H25    H     0.83270   0.66640   0.90940   0.01267  Uiso   1.00
H26    H     0.95860   0.66930   0.92340   0.01267  Uiso   1.00
H27    H     0.91230   0.62270   0.87630   0.01267  Uiso   1.00
H28    H     0.89070   0.61220   0.94320   0.01267  Uiso   1.00
N17    N     0.89900   0.64260   0.91310   0.01267  Uiso   1.00
H29    H     0.27310   0.60730   0.53040   0.01267  Uiso   1.00
H30    H     0.37800   0.58890   0.49670   0.01267  Uiso   1.00
H31    H     0.26230   0.57020   0.47140   0.01267  Uiso   1.00
H32    H     0.31010   0.53830   0.52840   0.01267  Uiso   1.00
N18    N     0.30600   0.57600   0.50670   0.01267  Uiso   1.00
H33    H     0.16730   0.16640   0.59060   0.01267  Uiso   1.00
H34    H     0.04140   0.16930   0.57660   0.01267  Uiso   1.00
H35    H     0.08770   0.12270   0.62370   0.01267  Uiso   1.00
H36    H     0.10930   0.11220   0.55680   0.01267  Uiso   1.00
N19    N     0.10100   0.14260   0.58690   0.01267  Uiso   1.00
H37    H     0.72690   0.10730   0.96960   0.01267  Uiso   1.00
H38    H     0.62200   0.08890   0.00330   0.01267  Uiso   1.00
H39    H     0.73770   0.07020   0.02860   0.01267  Uiso   1.00
H40    H     0.68990   0.03830   0.97160   0.01267  Uiso   1.00
N20    N     0.69400   0.07600   0.99330   0.01267  Uiso   1.00
H41    H     0.16730   0.33360   0.09060   0.01267  Uiso   1.00
H42    H     0.04140   0.33070   0.07660   0.01267  Uiso   1.00
H43    H     0.08770   0.37730   0.12370   0.01267  Uiso   1.00
H44    H     0.10930   0.38780   0.05680   0.01267  Uiso   1.00
N21    N     0.10100   0.35740   0.08690   0.01267  Uiso   1.00
H45    H     0.72690   0.39270   0.46960   0.01267  Uiso   1.00
H46    H     0.62200   0.41110   0.50330   0.01267  Uiso   1.00
H47    H     0.73770   0.42980   0.52860   0.01267  Uiso   1.00
H48    H     0.68990   0.46170   0.47160   0.01267  Uiso   1.00
N22    N     0.69400   0.42400   0.49330   0.01267  Uiso   1.00
H49    H     0.83270   0.83360   0.40940   0.01267  Uiso   1.00
H50    H     0.95860   0.83070   0.42340   0.01267  Uiso   1.00
H51    H     0.91230   0.87730   0.37630   0.01267  Uiso   1.00
H52    H     0.89070   0.88780   0.44320   0.01267  Uiso   1.00
N23    N     0.89900   0.85740   0.41310   0.01267  Uiso   1.00
H53    H     0.27310   0.89270   0.03040   0.01267  Uiso   1.00
H54    H     0.37800   0.91110   0.99670   0.01267  Uiso   1.00
H55    H     0.26230   0.92980   0.97140   0.01267  Uiso   1.00
H56    H     0.31010   0.96170   0.02840   0.01267  Uiso   1.00
N24    N     0.30600   0.92400   0.00670   0.01267  Uiso   1.00
