data_ZEBMAW_clean
_audit_creation_date              2014-07-02
_audit_creation_method            'Materials Studio'
_symmetry_space_group_name_H-M    'P1'
_symmetry_Int_Tables_number       1
_symmetry_cell_setting            triclinic
loop_
_symmetry_equiv_pos_as_xyz
  x,y,z
_cell_length_a                    14.5345
_cell_length_b                    14.5345
_cell_length_c                    21.9356
_cell_angle_alpha                 82.2636
_cell_angle_beta                  82.2636
_cell_angle_gamma                 66.6477
loop_
_atom_site_label
_atom_site_type_symbol
_atom_site_fract_x
_atom_site_fract_y
_atom_site_fract_z
_atom_site_U_iso_or_equiv
_atom_site_adp_type
_atom_site_occupancy
Ce1    Ce    0.53207   0.95185   0.59573   0.01267  Uiso   1.00
Ce2    Ce    0.04815   0.46793   0.90427   0.01267  Uiso   1.00
Ce3    Ce    0.46793   0.04815   0.40427   0.01267  Uiso   1.00
Ce4    Ce    0.95185   0.53207   0.09573   0.01267  Uiso   1.00
Si1    Si    0.88930   0.34932   0.50609   0.01267  Uiso   1.00
Si2    Si    0.65068   0.11070   0.99391   0.01267  Uiso   1.00
Si3    Si    0.11070   0.65068   0.49391   0.01267  Uiso   1.00
Si4    Si    0.34932   0.88930   0.00609   0.01267  Uiso   1.00
H1     H     0.74300   0.70620   0.53850   0.01267  Uiso   1.00
H2     H     0.81930   0.56890   0.48170   0.01267  Uiso   1.00
H3     H     0.82570   0.38690   0.63500   0.01267  Uiso   1.00
H4     H     0.75400   0.52240   0.69140   0.01267  Uiso   1.00
H5     H     0.68030   0.37670   0.50490   0.01267  Uiso   1.00
H6     H     0.58440   0.28220   0.53210   0.01267  Uiso   1.00
H7     H     0.82670   0.04750   0.58770   0.01267  Uiso   1.00
H8     H     0.92380   0.14220   0.55780   0.01267  Uiso   1.00
H9     H     0.01540   0.49180   0.31750   0.01267  Uiso   1.00
H10    H     0.00320   0.44260   0.42130   0.01267  Uiso   1.00
H11    H     0.79160   0.34300   0.39620   0.01267  Uiso   1.00
H12    H     0.80810   0.38810   0.29160   0.01267  Uiso   1.00
H13    H     0.02740   0.34000   0.59840   0.01267  Uiso   1.00
H14    H     0.19060   0.24000   0.61810   0.01267  Uiso   1.00
H15    H     0.21880   0.08880   0.47190   0.01267  Uiso   1.00
H16    H     0.05470   0.18450   0.45530   0.01267  Uiso   1.00
H17    H     0.70460   0.64480   0.72550   0.01267  Uiso   1.00
H18    H     0.29380   0.25700   0.96150   0.01267  Uiso   1.00
H19    H     0.43110   0.18070   0.01830   0.01267  Uiso   1.00
H20    H     0.61310   0.17430   0.86500   0.01267  Uiso   1.00
H21    H     0.47760   0.24600   0.80860   0.01267  Uiso   1.00
H22    H     0.62330   0.31970   0.99510   0.01267  Uiso   1.00
H23    H     0.71780   0.41560   0.96790   0.01267  Uiso   1.00
H24    H     0.95250   0.17330   0.91230   0.01267  Uiso   1.00
H25    H     0.85780   0.07620   0.94220   0.01267  Uiso   1.00
H26    H     0.50820   0.98460   0.18250   0.01267  Uiso   1.00
H27    H     0.55740   0.99680   0.07870   0.01267  Uiso   1.00
H28    H     0.65700   0.20840   0.10380   0.01267  Uiso   1.00
H29    H     0.61190   0.19190   0.20840   0.01267  Uiso   1.00
H30    H     0.66000   0.97260   0.90160   0.01267  Uiso   1.00
H31    H     0.76000   0.80940   0.88190   0.01267  Uiso   1.00
H32    H     0.91120   0.78120   0.02810   0.01267  Uiso   1.00
H33    H     0.81550   0.94530   0.04470   0.01267  Uiso   1.00
H34    H     0.35520   0.29540   0.77450   0.01267  Uiso   1.00
H35    H     0.25700   0.29380   0.46150   0.01267  Uiso   1.00
H36    H     0.18070   0.43110   0.51830   0.01267  Uiso   1.00
H37    H     0.17430   0.61310   0.36500   0.01267  Uiso   1.00
H38    H     0.24600   0.47760   0.30860   0.01267  Uiso   1.00
H39    H     0.31970   0.62330   0.49510   0.01267  Uiso   1.00
H40    H     0.41560   0.71780   0.46790   0.01267  Uiso   1.00
H41    H     0.17330   0.95250   0.41230   0.01267  Uiso   1.00
H42    H     0.07620   0.85780   0.44220   0.01267  Uiso   1.00
H43    H     0.98460   0.50820   0.68250   0.01267  Uiso   1.00
H44    H     0.99680   0.55740   0.57870   0.01267  Uiso   1.00
H45    H     0.20840   0.65700   0.60380   0.01267  Uiso   1.00
H46    H     0.19190   0.61190   0.70840   0.01267  Uiso   1.00
H47    H     0.97260   0.66000   0.40160   0.01267  Uiso   1.00
H48    H     0.80940   0.76000   0.38190   0.01267  Uiso   1.00
H49    H     0.78120   0.91120   0.52810   0.01267  Uiso   1.00
H50    H     0.94530   0.81550   0.54470   0.01267  Uiso   1.00
H51    H     0.29540   0.35520   0.27450   0.01267  Uiso   1.00
H52    H     0.70620   0.74300   0.03850   0.01267  Uiso   1.00
H53    H     0.56890   0.81930   0.98170   0.01267  Uiso   1.00
H54    H     0.38690   0.82570   0.13500   0.01267  Uiso   1.00
H55    H     0.52240   0.75400   0.19140   0.01267  Uiso   1.00
H56    H     0.37670   0.68030   0.00490   0.01267  Uiso   1.00
H57    H     0.28220   0.58440   0.03210   0.01267  Uiso   1.00
H58    H     0.04750   0.82670   0.08770   0.01267  Uiso   1.00
H59    H     0.14220   0.92380   0.05780   0.01267  Uiso   1.00
H60    H     0.49180   0.01540   0.81750   0.01267  Uiso   1.00
H61    H     0.44260   0.00320   0.92130   0.01267  Uiso   1.00
H62    H     0.34300   0.79160   0.89620   0.01267  Uiso   1.00
H63    H     0.38810   0.80810   0.79160   0.01267  Uiso   1.00
H64    H     0.34000   0.02740   0.09840   0.01267  Uiso   1.00
H65    H     0.24000   0.19060   0.11810   0.01267  Uiso   1.00
H66    H     0.08880   0.21880   0.97190   0.01267  Uiso   1.00
H67    H     0.18450   0.05470   0.95530   0.01267  Uiso   1.00
H68    H     0.64480   0.70460   0.22550   0.01267  Uiso   1.00
C1     C     0.69323   0.71763   0.65864   0.01267  Uiso   1.00
C2     C     0.73879   0.62859   0.62103   0.01267  Uiso   1.00
C3     C     0.75958   0.64158   0.55823   0.01267  Uiso   1.00
C4     C     0.80515   0.55875   0.52406   0.01267  Uiso   1.00
C5     C     0.83011   0.46191   0.55118   0.01267  Uiso   1.00
C6     C     0.80940   0.45120   0.61488   0.01267  Uiso   1.00
C7     C     0.76570   0.53250   0.64877   0.01267  Uiso   1.00
C8     C     0.81391   0.26931   0.52754   0.01267  Uiso   1.00
C9     C     0.71055   0.31015   0.52092   0.01267  Uiso   1.00
C10    C     0.65272   0.25392   0.53762   0.01267  Uiso   1.00
C11    C     0.69582   0.15502   0.56274   0.01267  Uiso   1.00
C12    C     0.63404   0.09244   0.58029   0.01267  Uiso   1.00
C13    C     0.79717   0.11357   0.57057   0.01267  Uiso   1.00
C14    C     0.85531   0.17091   0.55270   0.01267  Uiso   1.00
C15    C     0.32875   0.09135   0.55913   0.01267  Uiso   1.00
C16    C     0.92739   0.47079   0.22556   0.01267  Uiso   1.00
C17    C     0.91428   0.44288   0.29327   0.01267  Uiso   1.00
C18    C     0.97120   0.46060   0.33315   0.01267  Uiso   1.00
C19    C     0.96276   0.43236   0.39560   0.01267  Uiso   1.00
C20    C     0.89448   0.38868   0.42100   0.01267  Uiso   1.00
C21    C     0.83723   0.37243   0.38068   0.01267  Uiso   1.00
C22    C     0.84724   0.39944   0.31762   0.01267  Uiso   1.00
C23    C     0.02224   0.27364   0.52429   0.01267  Uiso   1.00
C24    C     0.06538   0.28898   0.57316   0.01267  Uiso   1.00
C25    C     0.16367   0.22967   0.58472   0.01267  Uiso   1.00
C26    C     0.22239   0.15459   0.54664   0.01267  Uiso   1.00
C27    C     0.18034   0.13874   0.49773   0.01267  Uiso   1.00
C28    C     0.08209   0.19689   0.48766   0.01267  Uiso   1.00
C29    C     0.28237   0.30677   0.84136   0.01267  Uiso   1.00
C30    C     0.37141   0.26121   0.87897   0.01267  Uiso   1.00
C31    C     0.35842   0.24042   0.94177   0.01267  Uiso   1.00
C32    C     0.44125   0.19485   0.97594   0.01267  Uiso   1.00
C33    C     0.53809   0.16989   0.94882   0.01267  Uiso   1.00
C34    C     0.54880   0.19060   0.88512   0.01267  Uiso   1.00
C35    C     0.46750   0.23430   0.85123   0.01267  Uiso   1.00
C36    C     0.73069   0.18609   0.97246   0.01267  Uiso   1.00
C37    C     0.68985   0.28945   0.97908   0.01267  Uiso   1.00
C38    C     0.74608   0.34728   0.96238   0.01267  Uiso   1.00
C39    C     0.84498   0.30418   0.93726   0.01267  Uiso   1.00
C40    C     0.90756   0.36596   0.91971   0.01267  Uiso   1.00
C41    C     0.88643   0.20283   0.92943   0.01267  Uiso   1.00
C42    C     0.82909   0.14469   0.94730   0.01267  Uiso   1.00
C43    C     0.90865   0.67125   0.94087   0.01267  Uiso   1.00
C44    C     0.52921   0.07261   0.27444   0.01267  Uiso   1.00
C45    C     0.55712   0.08572   0.20673   0.01267  Uiso   1.00
C46    C     0.53940   0.02880   0.16685   0.01267  Uiso   1.00
C47    C     0.56764   0.03724   0.10440   0.01267  Uiso   1.00
C48    C     0.61132   0.10552   0.07900   0.01267  Uiso   1.00
C49    C     0.62757   0.16277   0.11932   0.01267  Uiso   1.00
C50    C     0.60056   0.15276   0.18238   0.01267  Uiso   1.00
C51    C     0.72636   0.97776   0.97571   0.01267  Uiso   1.00
C52    C     0.71102   0.93462   0.92684   0.01267  Uiso   1.00
C53    C     0.77033   0.83633   0.91528   0.01267  Uiso   1.00
C54    C     0.84541   0.77761   0.95336   0.01267  Uiso   1.00
C55    C     0.86126   0.81966   0.00227   0.01267  Uiso   1.00
C56    C     0.80311   0.91791   0.01234   0.01267  Uiso   1.00
C57    C     0.30677   0.28237   0.34136   0.01267  Uiso   1.00
C58    C     0.26121   0.37141   0.37897   0.01267  Uiso   1.00
C59    C     0.24042   0.35842   0.44177   0.01267  Uiso   1.00
C60    C     0.19485   0.44125   0.47594   0.01267  Uiso   1.00
C61    C     0.16989   0.53809   0.44882   0.01267  Uiso   1.00
C62    C     0.19060   0.54880   0.38512   0.01267  Uiso   1.00
C63    C     0.23430   0.46750   0.35123   0.01267  Uiso   1.00
C64    C     0.18609   0.73069   0.47246   0.01267  Uiso   1.00
C65    C     0.28945   0.68985   0.47908   0.01267  Uiso   1.00
C66    C     0.34728   0.74608   0.46238   0.01267  Uiso   1.00
C67    C     0.30418   0.84498   0.43726   0.01267  Uiso   1.00
C68    C     0.36596   0.90756   0.41971   0.01267  Uiso   1.00
C69    C     0.20283   0.88643   0.42943   0.01267  Uiso   1.00
C70    C     0.14469   0.82909   0.44730   0.01267  Uiso   1.00
C71    C     0.67125   0.90865   0.44087   0.01267  Uiso   1.00
C72    C     0.07261   0.52921   0.77444   0.01267  Uiso   1.00
C73    C     0.08572   0.55712   0.70673   0.01267  Uiso   1.00
C74    C     0.02880   0.53940   0.66685   0.01267  Uiso   1.00
C75    C     0.03724   0.56764   0.60440   0.01267  Uiso   1.00
C76    C     0.10552   0.61132   0.57900   0.01267  Uiso   1.00
C77    C     0.16277   0.62757   0.61932   0.01267  Uiso   1.00
C78    C     0.15276   0.60056   0.68238   0.01267  Uiso   1.00
C79    C     0.97776   0.72636   0.47571   0.01267  Uiso   1.00
C80    C     0.93462   0.71102   0.42684   0.01267  Uiso   1.00
C81    C     0.83633   0.77033   0.41528   0.01267  Uiso   1.00
C82    C     0.77761   0.84541   0.45336   0.01267  Uiso   1.00
C83    C     0.81966   0.86126   0.50227   0.01267  Uiso   1.00
C84    C     0.91791   0.80311   0.51234   0.01267  Uiso   1.00
C85    C     0.71763   0.69323   0.15864   0.01267  Uiso   1.00
C86    C     0.62859   0.73879   0.12103   0.01267  Uiso   1.00
C87    C     0.64158   0.75958   0.05823   0.01267  Uiso   1.00
C88    C     0.55875   0.80515   0.02406   0.01267  Uiso   1.00
C89    C     0.46191   0.83011   0.05118   0.01267  Uiso   1.00
C90    C     0.45120   0.80940   0.11488   0.01267  Uiso   1.00
C91    C     0.53250   0.76570   0.14877   0.01267  Uiso   1.00
C92    C     0.26931   0.81391   0.02754   0.01267  Uiso   1.00
C93    C     0.31015   0.71055   0.02092   0.01267  Uiso   1.00
C94    C     0.25392   0.65272   0.03762   0.01267  Uiso   1.00
C95    C     0.15502   0.69582   0.06274   0.01267  Uiso   1.00
C96    C     0.09244   0.63404   0.08029   0.01267  Uiso   1.00
C97    C     0.11357   0.79717   0.07057   0.01267  Uiso   1.00
C98    C     0.17091   0.85531   0.05270   0.01267  Uiso   1.00
C99    C     0.09135   0.32875   0.05913   0.01267  Uiso   1.00
C100   C     0.47079   0.92739   0.72556   0.01267  Uiso   1.00
C101   C     0.44288   0.91428   0.79327   0.01267  Uiso   1.00
C102   C     0.46060   0.97120   0.83315   0.01267  Uiso   1.00
C103   C     0.43236   0.96276   0.89560   0.01267  Uiso   1.00
C104   C     0.38868   0.89448   0.92100   0.01267  Uiso   1.00
C105   C     0.37243   0.83723   0.88068   0.01267  Uiso   1.00
C106   C     0.39944   0.84724   0.81762   0.01267  Uiso   1.00
C107   C     0.27364   0.02224   0.02429   0.01267  Uiso   1.00
C108   C     0.28898   0.06538   0.07316   0.01267  Uiso   1.00
C109   C     0.22967   0.16367   0.08472   0.01267  Uiso   1.00
C110   C     0.15459   0.22239   0.04664   0.01267  Uiso   1.00
C111   C     0.13874   0.18034   0.99773   0.01267  Uiso   1.00
C112   C     0.19689   0.08209   0.98766   0.01267  Uiso   1.00
O1     O     0.68330   0.70510   0.71458   0.01267  Uiso   1.00
O2     O     0.67026   0.80434   0.62962   0.01267  Uiso   1.00
O3     O     0.67377   0.00629   0.60800   0.01267  Uiso   1.00
O4     O     0.54417   0.12557   0.56580   0.01267  Uiso   1.00
O5     O     0.35354   0.07926   0.61277   0.01267  Uiso   1.00
O6     O     0.87991   0.44903   0.18915   0.01267  Uiso   1.00
O7     O     0.98620   0.51498   0.20542   0.01267  Uiso   1.00
O8     O     0.39265   0.04857   0.51493   0.01267  Uiso   1.00
O9     O     0.29490   0.31670   0.78542   0.01267  Uiso   1.00
O10    O     0.19566   0.32974   0.87038   0.01267  Uiso   1.00
O11    O     0.99371   0.32623   0.89200   0.01267  Uiso   1.00
O12    O     0.87443   0.45583   0.93420   0.01267  Uiso   1.00
O13    O     0.92074   0.64646   0.88723   0.01267  Uiso   1.00
O14    O     0.55097   0.12009   0.31085   0.01267  Uiso   1.00
O15    O     0.48502   0.01380   0.29458   0.01267  Uiso   1.00
O16    O     0.95143   0.60735   0.98507   0.01267  Uiso   1.00
O17    O     0.31670   0.29490   0.28542   0.01267  Uiso   1.00
O18    O     0.32974   0.19566   0.37038   0.01267  Uiso   1.00
O19    O     0.32623   0.99371   0.39200   0.01267  Uiso   1.00
O20    O     0.45583   0.87443   0.43420   0.01267  Uiso   1.00
O21    O     0.64646   0.92074   0.38723   0.01267  Uiso   1.00
O22    O     0.12009   0.55097   0.81085   0.01267  Uiso   1.00
O23    O     0.01380   0.48502   0.79458   0.01267  Uiso   1.00
O24    O     0.60735   0.95143   0.48507   0.01267  Uiso   1.00
O25    O     0.70510   0.68330   0.21458   0.01267  Uiso   1.00
O26    O     0.80434   0.67026   0.12962   0.01267  Uiso   1.00
O27    O     0.00629   0.67377   0.10800   0.01267  Uiso   1.00
O28    O     0.12557   0.54417   0.06580   0.01267  Uiso   1.00
O29    O     0.07926   0.35354   0.11277   0.01267  Uiso   1.00
O30    O     0.44903   0.87991   0.68915   0.01267  Uiso   1.00
O31    O     0.51498   0.98620   0.70542   0.01267  Uiso   1.00
O32    O     0.04857   0.39265   0.01493   0.01267  Uiso   1.00
