data_ZECKOJ_clean
_audit_creation_date              2014-07-02
_audit_creation_method            'Materials Studio'
_symmetry_space_group_name_H-M    'P1'
_symmetry_Int_Tables_number       1
_symmetry_cell_setting            triclinic
loop_
_symmetry_equiv_pos_as_xyz
  x,y,z
_cell_length_a                    13.8151
_cell_length_b                    13.8151
_cell_length_c                    13.8151
_cell_angle_alpha                 105.3350
_cell_angle_beta                  105.3350
_cell_angle_gamma                 118.1040
loop_
_atom_site_label
_atom_site_type_symbol
_atom_site_fract_x
_atom_site_fract_y
_atom_site_fract_z
_atom_site_U_iso_or_equiv
_atom_site_adp_type
_atom_site_occupancy
Cu1    Cu    0.52117   0.62025   0.09908   0.01267  Uiso   1.00
Cu2    Cu    0.52117   0.42209   0.90092   0.01267  Uiso   1.00
Cu3    Cu    0.67209   0.27117   0.40092   0.01267  Uiso   1.00
Cu4    Cu    0.87025   0.27117   0.59908   0.01267  Uiso   1.00
H1     H     0.65770   0.59220   0.39150   0.01267  Uiso   1.00
H2     H     0.51190   0.51590   0.33260   0.01267  Uiso   1.00
H3     H     0.59190   0.63730   0.32260   0.01267  Uiso   1.00
H4     H     0.20070   0.26620   0.60850   0.01267  Uiso   1.00
H5     H     0.18330   0.17930   0.66740   0.01267  Uiso   1.00
H6     H     0.31470   0.26930   0.67740   0.01267  Uiso   1.00
H7     H     0.51620   0.40770   0.56550   0.01267  Uiso   1.00
H8     H     0.42930   0.26190   0.49600   0.01267  Uiso   1.00
H9     H     0.51930   0.34190   0.45460   0.01267  Uiso   1.00
H10    H     0.84220   0.95070   0.43450   0.01267  Uiso   1.00
H11    H     0.76590   0.93330   0.50400   0.01267  Uiso   1.00
H12    H     0.88730   0.06470   0.54540   0.01267  Uiso   1.00
H13    H     0.20070   0.59220   0.93450   0.01267  Uiso   1.00
H14    H     0.18330   0.51590   0.00400   0.01267  Uiso   1.00
H15    H     0.31470   0.63730   0.04540   0.01267  Uiso   1.00
H16    H     0.65770   0.26620   0.06550   0.01267  Uiso   1.00
H17    H     0.51190   0.17930   0.99600   0.01267  Uiso   1.00
H18    H     0.59190   0.26930   0.95460   0.01267  Uiso   1.00
H19    H     0.84220   0.40770   0.89150   0.01267  Uiso   1.00
H20    H     0.76590   0.26190   0.83260   0.01267  Uiso   1.00
H21    H     0.88730   0.34190   0.82260   0.01267  Uiso   1.00
H22    H     0.51620   0.95070   0.10850   0.01267  Uiso   1.00
H23    H     0.42930   0.93330   0.16740   0.01267  Uiso   1.00
H24    H     0.51930   0.06470   0.17740   0.01267  Uiso   1.00
C1     C     0.57980   0.49110   0.22210   0.01267  Uiso   1.00
C2     C     0.58590   0.56560   0.32630   0.01267  Uiso   1.00
C3     C     0.26900   0.35770   0.77790   0.01267  Uiso   1.00
C4     C     0.23930   0.25960   0.67370   0.01267  Uiso   1.00
C5     C     0.60770   0.32980   0.58870   0.01267  Uiso   1.00
C6     C     0.50960   0.33590   0.52030   0.01267  Uiso   1.00
C7     C     0.74110   0.01900   0.41130   0.01267  Uiso   1.00
C8     C     0.81560   0.98930   0.47970   0.01267  Uiso   1.00
C9     C     0.26900   0.49110   0.91130   0.01267  Uiso   1.00
C10    C     0.23930   0.56560   0.97970   0.01267  Uiso   1.00
C11    C     0.57980   0.35770   0.08870   0.01267  Uiso   1.00
C12    C     0.58590   0.25960   0.02030   0.01267  Uiso   1.00
C13    C     0.74110   0.32980   0.72210   0.01267  Uiso   1.00
C14    C     0.81560   0.33590   0.82630   0.01267  Uiso   1.00
C15    C     0.60770   0.01900   0.27790   0.01267  Uiso   1.00
C16    C     0.50960   0.98930   0.17370   0.01267  Uiso   1.00
C17    C     0.60430   0.39980   0.20450   0.01267  Uiso   1.00
C18    C     0.63450   0.35530   0.27920   0.01267  Uiso   1.00
C19    C     0.19530   0.39980   0.79550   0.01267  Uiso   1.00
C20    C     0.07610   0.35530   0.72080   0.01267  Uiso   1.00
C21    C     0.64980   0.35430   0.70450   0.01267  Uiso   1.00
C22    C     0.60530   0.38450   0.77920   0.01267  Uiso   1.00
C23    C     0.64980   0.94530   0.29550   0.01267  Uiso   1.00
C24    C     0.60530   0.82610   0.22080   0.01267  Uiso   1.00
N1     N     0.54890   0.50230   0.12780   0.01267  Uiso   1.00
N2     N     0.37450   0.42110   0.87220   0.01267  Uiso   1.00
N3     N     0.67110   0.29890   0.54660   0.01267  Uiso   1.00
N4     N     0.75230   0.12450   0.45340   0.01267  Uiso   1.00
N5     N     0.37450   0.50230   0.95340   0.01267  Uiso   1.00
N6     N     0.54890   0.42110   0.04660   0.01267  Uiso   1.00
N7     N     0.75230   0.29890   0.62780   0.01267  Uiso   1.00
N8     N     0.67110   0.12450   0.37220   0.01267  Uiso   1.00
O1     O     0.64960   0.39960   0.38020   0.01267  Uiso   1.00
O2     O     0.01940   0.26940   0.61980   0.01267  Uiso   1.00
O3     O     0.51940   0.39960   0.75000   0.01267  Uiso   1.00
O4     O     0.64960   0.76940   0.25000   0.01267  Uiso   1.00
O5     O     0.01940   0.39960   0.75000   0.01267  Uiso   1.00
O6     O     0.64960   0.26940   0.25000   0.01267  Uiso   1.00
O7     O     0.64960   0.39960   0.88020   0.01267  Uiso   1.00
O8     O     0.51940   0.76940   0.11980   0.01267  Uiso   1.00
