data_image0
_cell_length_a       9.8633
_cell_length_b       16.4409
_cell_length_c       18.2187
_cell_angle_alpha    90
_cell_angle_beta     94.197
_cell_angle_gamma    90

_symmetry_space_group_name_H-M    "P 1"
_symmetry_int_tables_number       1

loop_
  _symmetry_equiv_pos_as_xyz
  'x, y, z'

loop_
  _atom_site_label
  _atom_site_occupancy
  _atom_site_fract_x
  _atom_site_fract_y
  _atom_site_fract_z
  _atom_site_thermal_displace_type
  _atom_site_B_iso_or_equiv
  _atom_site_type_symbol
  C1       1.0000 0.78730  0.56920  0.02310  Biso   1.000  C
  C2       1.0000 0.74230  0.64540  0.05870  Biso   1.000  C
  C3       1.0000 0.80900  0.67850  0.11810  Biso   1.000  C
  H1       1.0000 0.89160  0.65700  0.13700  Biso   1.000  H
  C4       1.0000 0.75100  0.74800  0.15230  Biso   1.000  C
  H2       1.0000 0.79490  0.77390  0.19280  Biso   1.000  H
  C5       1.0000 0.62160  0.77490  0.12040  Biso   1.000  C
  C6       1.0000 0.56060  0.74310  0.06240  Biso   1.000  C
  H3       1.0000 0.47700  0.76280  0.04320  Biso   1.000  H
  C7       1.0000 0.62000  0.68160  0.03090  Biso   1.000  C
  H4       1.0000 0.57820  0.66090  0.98750  Biso   1.000  H
  C8       1.0000 0.61140  0.86960  0.21360  Biso   1.000  C
  H5       1.0000 0.68900  0.90030  0.19890  Biso   1.000  H
  H6       1.0000 0.64330  0.82830  0.24880  Biso   1.000  H
  C9       1.0000 0.42440  0.98360  0.19160  Biso   1.000  C
  H7       1.0000 0.48850  0.01400  0.16440  Biso   1.000  H
  H8       1.0000 0.36980  0.94980  0.15720  Biso   1.000  H
  C10      1.0000 0.27480  0.09820  0.18670  Biso   1.000  C
  C11      1.0000 0.27490  0.10580  0.11400  Biso   1.000  C
  C12      1.0000 0.19520  0.17010  0.07670  Biso   1.000  C
  C13      1.0000 0.13140  0.22450  0.11780  Biso   1.000  C
  C14      1.0000 0.15810  0.22120  0.19220  Biso   1.000  C
  H9       1.0000 0.12780  0.26320  0.22100  Biso   1.000  H
  C15      1.0000 0.22790  0.15790  0.22550  Biso   1.000  C
  H10      1.0000 0.24260  0.15710  0.27650  Biso   1.000  H
  C16      1.0000 0.04960  0.29050  0.07990  Biso   1.000  C
  C17      1.0000 0.37590  0.58140  0.90780  Biso   1.000  C
  H11      1.0000 0.39510  0.53100  0.92930  Biso   1.000  H
  C18      1.0000 0.28640  0.69670  0.88300  Biso   1.000  C
  H12      1.0000 0.22980  0.74190  0.88340  Biso   1.000  H
  C19      1.0000 0.38830  0.68630  0.83690  Biso   1.000  C
  H13      1.0000 0.41510  0.72290  0.80190  Biso   1.000  H
  C20      1.0000 0.54900  0.56940  0.81760  Biso   1.000  C
  H14      1.0000 0.61440  0.60870  0.80230  Biso   1.000  H
  H15      1.0000 0.59570  0.53440  0.85410  Biso   1.000  H
  C21      1.0000 0.62420  0.46510  0.73070  Biso   1.000  C
  H16      1.0000 0.69320  0.50150  0.71430  Biso   1.000  H
  H17      1.0000 0.59610  0.42960  0.68990  Biso   1.000  H
  C22      1.0000 0.64570  0.33860  0.81390  Biso   1.000  C
  H18      1.0000 0.57500  0.30690  0.79280  Biso   1.000  H
  C23      1.0000 0.78830  0.43650  0.83750  Biso   1.000  C
  H19      1.0000 0.83530  0.48530  0.83470  Biso   1.000  H
  C24      1.0000 0.72790  0.31970  0.87150  Biso   1.000  C
  H20      1.0000 0.72600  0.27120  0.89750  Biso   1.000  H
  N1       1.0000 0.28000  0.63150  0.92800  Biso   1.000  N
  N2       1.0000 0.44170  0.61280  0.85230  Biso   1.000  N
  N3       1.0000 0.68520  0.41530  0.79080  Biso   1.000  N
  N4       1.0000 0.81640  0.38200  0.88740  Biso   1.000  N
  O1       1.0000 0.71060  0.53490  0.97550  Biso   1.000  O
  O2       1.0000 0.90220  0.53950  0.04620  Biso   1.000  O
  O3       1.0000 0.54550  0.83580  0.15570  Biso   1.000  O
  O4       1.0000 0.34180  0.03630  0.22790  Biso   1.000  O
  O5       1.0000 0.04380  0.35860  0.11160  Biso   1.000  O
  O6       1.0000 0.99190  0.27810  0.01940  Biso   1.000  O
  Cd1      1.0000 0.10043  0.59173  0.99601  Biso   1.000  Cd
  C25      1.0000 0.81900  0.07080  0.37700  Biso   1.000  C
  C26      1.0000 0.91200  0.15200  0.40100  Biso   1.000  C
  C27      1.0000 0.21270  0.56920  0.47690  Biso   1.000  C
  C28      1.0000 0.25770  0.64540  0.44130  Biso   1.000  C
  C29      1.0000 0.19100  0.67850  0.38190  Biso   1.000  C
  H21      1.0000 0.10840  0.65700  0.36300  Biso   1.000  H
  C30      1.0000 0.24900  0.74800  0.34770  Biso   1.000  C
  H22      1.0000 0.20510  0.77390  0.30720  Biso   1.000  H
  C31      1.0000 0.37840  0.77490  0.37960  Biso   1.000  C
  C32      1.0000 0.43940  0.74310  0.43760  Biso   1.000  C
  H23      1.0000 0.52300  0.76280  0.45680  Biso   1.000  H
  C33      1.0000 0.38000  0.68160  0.46910  Biso   1.000  C
  H24      1.0000 0.42180  0.66090  0.51250  Biso   1.000  H
  C34      1.0000 0.38860  0.86960  0.28640  Biso   1.000  C
  H25      1.0000 0.31100  0.90030  0.30110  Biso   1.000  H
  H26      1.0000 0.35670  0.82830  0.25120  Biso   1.000  H
  C35      1.0000 0.57560  0.98360  0.30840  Biso   1.000  C
  H27      1.0000 0.51150  0.01400  0.33560  Biso   1.000  H
  H28      1.0000 0.63020  0.94980  0.34280  Biso   1.000  H
  C36      1.0000 0.72520  0.09820  0.31330  Biso   1.000  C
  C37      1.0000 0.72510  0.10580  0.38600  Biso   1.000  C
  C38      1.0000 0.80480  0.17010  0.42330  Biso   1.000  C
  C39      1.0000 0.86860  0.22450  0.38220  Biso   1.000  C
  C40      1.0000 0.84190  0.22120  0.30780  Biso   1.000  C
  H29      1.0000 0.87220  0.26320  0.27900  Biso   1.000  H
  C41      1.0000 0.77210  0.15790  0.27450  Biso   1.000  C
  H30      1.0000 0.75740  0.15710  0.22350  Biso   1.000  H
  C42      1.0000 0.95040  0.29050  0.42010  Biso   1.000  C
  C43      1.0000 0.62410  0.58140  0.59220  Biso   1.000  C
  H31      1.0000 0.60490  0.53100  0.57070  Biso   1.000  H
  C44      1.0000 0.71360  0.69670  0.61700  Biso   1.000  C
  H32      1.0000 0.77020  0.74190  0.61660  Biso   1.000  H
  C45      1.0000 0.61170  0.68630  0.66310  Biso   1.000  C
  H33      1.0000 0.58490  0.72290  0.69810  Biso   1.000  H
  C46      1.0000 0.45100  0.56940  0.68240  Biso   1.000  C
  H34      1.0000 0.38560  0.60870  0.69770  Biso   1.000  H
  H35      1.0000 0.40430  0.53440  0.64590  Biso   1.000  H
  C47      1.0000 0.37580  0.46510  0.76930  Biso   1.000  C
  H36      1.0000 0.30680  0.50150  0.78570  Biso   1.000  H
  H37      1.0000 0.40390  0.42960  0.81010  Biso   1.000  H
  C48      1.0000 0.35430  0.33860  0.68610  Biso   1.000  C
  H38      1.0000 0.42500  0.30690  0.70720  Biso   1.000  H
  C49      1.0000 0.21170  0.43650  0.66250  Biso   1.000  C
  H39      1.0000 0.16470  0.48530  0.66530  Biso   1.000  H
  C50      1.0000 0.27210  0.31970  0.62850  Biso   1.000  C
  H40      1.0000 0.27400  0.27120  0.60250  Biso   1.000  H
  N5       1.0000 0.72000  0.63150  0.57200  Biso   1.000  N
  N6       1.0000 0.55830  0.61280  0.64770  Biso   1.000  N
  N7       1.0000 0.31480  0.41530  0.70920  Biso   1.000  N
  N8       1.0000 0.18360  0.38200  0.61260  Biso   1.000  N
  O7       1.0000 0.28940  0.53490  0.52450  Biso   1.000  O
  O8       1.0000 0.09780  0.53950  0.45380  Biso   1.000  O
  O9       1.0000 0.45450  0.83580  0.34430  Biso   1.000  O
  O10      1.0000 0.65820  0.03630  0.27210  Biso   1.000  O
  O11      1.0000 0.95620  0.35860  0.38840  Biso   1.000  O
  O12      1.0000 0.00810  0.27810  0.48060  Biso   1.000  O
  Cd2      1.0000 0.89957  0.59173  0.50399  Biso   1.000  Cd
  C51      1.0000 0.18100  0.07080  0.12300  Biso   1.000  C
  C52      1.0000 0.08800  0.15200  0.09900  Biso   1.000  C
  C53      1.0000 0.21270  0.43080  0.97690  Biso   1.000  C
  C54      1.0000 0.25770  0.35460  0.94130  Biso   1.000  C
  C55      1.0000 0.19100  0.32150  0.88190  Biso   1.000  C
  H41      1.0000 0.10840  0.34300  0.86300  Biso   1.000  H
  C56      1.0000 0.24900  0.25200  0.84770  Biso   1.000  C
  H42      1.0000 0.20510  0.22610  0.80720  Biso   1.000  H
  C57      1.0000 0.37840  0.22510  0.87960  Biso   1.000  C
  C58      1.0000 0.43940  0.25690  0.93760  Biso   1.000  C
  H43      1.0000 0.52300  0.23720  0.95680  Biso   1.000  H
  C59      1.0000 0.38000  0.31840  0.96910  Biso   1.000  C
  H44      1.0000 0.42180  0.33910  0.01250  Biso   1.000  H
  C60      1.0000 0.38860  0.13040  0.78640  Biso   1.000  C
  H45      1.0000 0.31100  0.09970  0.80110  Biso   1.000  H
  H46      1.0000 0.35670  0.17170  0.75120  Biso   1.000  H
  C61      1.0000 0.57560  0.01640  0.80840  Biso   1.000  C
  H47      1.0000 0.51150  0.98600  0.83560  Biso   1.000  H
  H48      1.0000 0.63020  0.05020  0.84280  Biso   1.000  H
  C62      1.0000 0.72520  0.90180  0.81330  Biso   1.000  C
  C63      1.0000 0.72510  0.89420  0.88600  Biso   1.000  C
  C64      1.0000 0.80480  0.82990  0.92330  Biso   1.000  C
  C65      1.0000 0.86860  0.77550  0.88220  Biso   1.000  C
  C66      1.0000 0.84190  0.77880  0.80780  Biso   1.000  C
  H49      1.0000 0.87220  0.73680  0.77900  Biso   1.000  H
  C67      1.0000 0.77210  0.84210  0.77450  Biso   1.000  C
  H50      1.0000 0.75740  0.84290  0.72350  Biso   1.000  H
  C68      1.0000 0.95040  0.70950  0.92010  Biso   1.000  C
  C69      1.0000 0.62410  0.41860  0.09220  Biso   1.000  C
  H51      1.0000 0.60490  0.46900  0.07070  Biso   1.000  H
  C70      1.0000 0.71360  0.30330  0.11700  Biso   1.000  C
  H52      1.0000 0.77020  0.25810  0.11660  Biso   1.000  H
  C71      1.0000 0.61170  0.31370  0.16310  Biso   1.000  C
  H53      1.0000 0.58490  0.27710  0.19810  Biso   1.000  H
  C72      1.0000 0.45100  0.43060  0.18240  Biso   1.000  C
  H54      1.0000 0.38560  0.39130  0.19770  Biso   1.000  H
  H55      1.0000 0.40430  0.46560  0.14590  Biso   1.000  H
  C73      1.0000 0.37580  0.53490  0.26930  Biso   1.000  C
  H56      1.0000 0.30680  0.49850  0.28570  Biso   1.000  H
  H57      1.0000 0.40390  0.57040  0.31010  Biso   1.000  H
  C74      1.0000 0.35430  0.66140  0.18610  Biso   1.000  C
  H58      1.0000 0.42500  0.69310  0.20720  Biso   1.000  H
  C75      1.0000 0.21170  0.56350  0.16250  Biso   1.000  C
  H59      1.0000 0.16470  0.51470  0.16530  Biso   1.000  H
  C76      1.0000 0.27210  0.68030  0.12850  Biso   1.000  C
  H60      1.0000 0.27400  0.72880  0.10250  Biso   1.000  H
  N9       1.0000 0.72000  0.36850  0.07200  Biso   1.000  N
  N10      1.0000 0.55830  0.38720  0.14770  Biso   1.000  N
  N11      1.0000 0.31480  0.58470  0.20920  Biso   1.000  N
  N12      1.0000 0.18360  0.61800  0.11260  Biso   1.000  N
  O13      1.0000 0.28940  0.46510  0.02450  Biso   1.000  O
  O14      1.0000 0.09780  0.46050  0.95380  Biso   1.000  O
  O15      1.0000 0.45450  0.16420  0.84430  Biso   1.000  O
  O16      1.0000 0.65820  0.96370  0.77210  Biso   1.000  O
  O17      1.0000 0.95620  0.64140  0.88840  Biso   1.000  O
  O18      1.0000 0.00810  0.72190  0.98060  Biso   1.000  O
  Cd3      1.0000 0.89957  0.40827  0.00399  Biso   1.000  Cd
  C77      1.0000 0.18100  0.92920  0.62300  Biso   1.000  C
  C78      1.0000 0.08800  0.84800  0.59900  Biso   1.000  C
  C79      1.0000 0.78730  0.43080  0.52310  Biso   1.000  C
  C80      1.0000 0.74230  0.35460  0.55870  Biso   1.000  C
  C81      1.0000 0.80900  0.32150  0.61810  Biso   1.000  C
  H61      1.0000 0.89160  0.34300  0.63700  Biso   1.000  H
  C82      1.0000 0.75100  0.25200  0.65230  Biso   1.000  C
  H62      1.0000 0.79490  0.22610  0.69280  Biso   1.000  H
  C83      1.0000 0.62160  0.22510  0.62040  Biso   1.000  C
  C84      1.0000 0.56060  0.25690  0.56240  Biso   1.000  C
  H63      1.0000 0.47700  0.23720  0.54320  Biso   1.000  H
  C85      1.0000 0.62000  0.31840  0.53090  Biso   1.000  C
  H64      1.0000 0.57820  0.33910  0.48750  Biso   1.000  H
  C86      1.0000 0.61140  0.13040  0.71360  Biso   1.000  C
  H65      1.0000 0.68900  0.09970  0.69890  Biso   1.000  H
  H66      1.0000 0.64330  0.17170  0.74880  Biso   1.000  H
  C87      1.0000 0.42440  0.01640  0.69160  Biso   1.000  C
  H67      1.0000 0.48850  0.98600  0.66440  Biso   1.000  H
  H68      1.0000 0.36980  0.05020  0.65720  Biso   1.000  H
  C88      1.0000 0.27480  0.90180  0.68670  Biso   1.000  C
  C89      1.0000 0.27490  0.89420  0.61400  Biso   1.000  C
  C90      1.0000 0.19520  0.82990  0.57670  Biso   1.000  C
  C91      1.0000 0.13140  0.77550  0.61780  Biso   1.000  C
  C92      1.0000 0.15810  0.77880  0.69220  Biso   1.000  C
  H69      1.0000 0.12780  0.73680  0.72100  Biso   1.000  H
  C93      1.0000 0.22790  0.84210  0.72550  Biso   1.000  C
  H70      1.0000 0.24260  0.84290  0.77650  Biso   1.000  H
  C94      1.0000 0.04960  0.70950  0.57990  Biso   1.000  C
  C95      1.0000 0.37590  0.41860  0.40780  Biso   1.000  C
  H71      1.0000 0.39510  0.46900  0.42930  Biso   1.000  H
  C96      1.0000 0.28640  0.30330  0.38300  Biso   1.000  C
  H72      1.0000 0.22980  0.25810  0.38340  Biso   1.000  H
  C97      1.0000 0.38830  0.31370  0.33690  Biso   1.000  C
  H73      1.0000 0.41510  0.27710  0.30190  Biso   1.000  H
  C98      1.0000 0.54900  0.43060  0.31760  Biso   1.000  C
  H74      1.0000 0.61440  0.39130  0.30230  Biso   1.000  H
  H75      1.0000 0.59570  0.46560  0.35410  Biso   1.000  H
  C99      1.0000 0.62420  0.53490  0.23070  Biso   1.000  C
  H76      1.0000 0.69320  0.49850  0.21430  Biso   1.000  H
  H77      1.0000 0.59610  0.57040  0.18990  Biso   1.000  H
  C100     1.0000 0.64570  0.66140  0.31390  Biso   1.000  C
  H78      1.0000 0.57500  0.69310  0.29280  Biso   1.000  H
  C101     1.0000 0.78830  0.56350  0.33750  Biso   1.000  C
  H79      1.0000 0.83530  0.51470  0.33470  Biso   1.000  H
  C102     1.0000 0.72790  0.68030  0.37150  Biso   1.000  C
  H80      1.0000 0.72600  0.72880  0.39750  Biso   1.000  H
  N13      1.0000 0.28000  0.36850  0.42800  Biso   1.000  N
  N14      1.0000 0.44170  0.38720  0.35230  Biso   1.000  N
  N15      1.0000 0.68520  0.58470  0.29080  Biso   1.000  N
  N16      1.0000 0.81640  0.61800  0.38740  Biso   1.000  N
  O19      1.0000 0.71060  0.46510  0.47550  Biso   1.000  O
  O20      1.0000 0.90220  0.46050  0.54620  Biso   1.000  O
  O21      1.0000 0.54550  0.16420  0.65570  Biso   1.000  O
  O22      1.0000 0.34180  0.96370  0.72790  Biso   1.000  O
  O23      1.0000 0.04380  0.64140  0.61160  Biso   1.000  O
  O24      1.0000 0.99190  0.72190  0.51940  Biso   1.000  O
  Cd4      1.0000 0.10043  0.40827  0.49601  Biso   1.000  Cd
  C103     1.0000 0.81900  0.92920  0.87700  Biso   1.000  C
  C104     1.0000 0.91200  0.84800  0.90100  Biso   1.000  C
  C105     1.0000 0.50000  0.93090  0.25000  Biso   1.000  C
  C106     1.0000 0.50000  0.06910  0.75000  Biso   1.000  C
  C107     1.0000 0.50000  0.51670  0.75000  Biso   1.000  C
  C108     1.0000 0.50000  0.48330  0.25000  Biso   1.000  C
