data_image0
_cell_length_a       16.4393
_cell_length_b       16.4393
_cell_length_c       23.777
_cell_angle_alpha    90
_cell_angle_beta     90
_cell_angle_gamma    120

_symmetry_space_group_name_H-M    "P 1"
_symmetry_int_tables_number       1

loop_
  _symmetry_equiv_pos_as_xyz
  'x, y, z'

loop_
  _atom_site_label
  _atom_site_occupancy
  _atom_site_fract_x
  _atom_site_fract_y
  _atom_site_fract_z
  _atom_site_thermal_displace_type
  _atom_site_B_iso_or_equiv
  _atom_site_type_symbol
  C1       1.0000 0.82580  0.80130  0.03740  Biso   1.000  C
  C2       1.0000 0.78830  0.69670  0.04200  Biso   1.000  C
  C3       1.0000 0.83240  0.66140  0.07480  Biso   1.000  C
  H1       1.0000 0.88960  0.70230  0.09160  Biso   1.000  H
  C4       1.0000 0.79280  0.56630  0.08280  Biso   1.000  C
  H2       1.0000 0.82290  0.54390  0.10590  Biso   1.000  H
  C5       1.0000 0.70660  0.50150  0.05660  Biso   1.000  C
  C6       1.0000 0.66620  0.53800  0.02130  Biso   1.000  C
  H3       1.0000 0.61180  0.49710  0.00180  Biso   1.000  H
  C7       1.0000 0.70480  0.63490  0.01410  Biso   1.000  C
  H4       1.0000 0.67520  0.65810  0.99100  Biso   1.000  H
  C8       1.0000 0.65740  0.40090  0.07040  Biso   1.000  C
  C9       1.0000 0.56130  0.34970  0.06910  Biso   1.000  C
  H5       1.0000 0.52850  0.37950  0.05810  Biso   1.000  H
  C10      1.0000 0.35630  0.22130  0.04260  Biso   1.000  C
  H6       1.0000 0.38890  0.26580  0.01480  Biso   1.000  H
  C11      1.0000 0.25940  0.17410  0.04300  Biso   1.000  C
  H7       1.0000 0.22710  0.18840  0.01630  Biso   1.000  H
  O1       1.0000 0.89140  0.85840  0.06880  Biso   1.000  O
  O2       1.0000 0.79000  0.83050  0.00160  Biso   1.000  O
  O3       1.0000 0.06420  0.07050  0.04510  Biso   1.000  O
  C12      1.0000 0.19870  0.02450  0.37073  Biso   1.000  C
  C13      1.0000 0.30330  0.09160  0.37533  Biso   1.000  C
  C14      1.0000 0.33860  0.17100  0.40813  Biso   1.000  C
  H8       1.0000 0.29770  0.18730  0.42493  Biso   1.000  H
  C15      1.0000 0.43370  0.22650  0.41613  Biso   1.000  C
  H9       1.0000 0.45610  0.27900  0.43923  Biso   1.000  H
  C16      1.0000 0.49850  0.20510  0.38993  Biso   1.000  C
  C17      1.0000 0.46200  0.12820  0.35463  Biso   1.000  C
  H10      1.0000 0.50290  0.11470  0.33513  Biso   1.000  H
  C18      1.0000 0.36510  0.06990  0.34743  Biso   1.000  C
  H11      1.0000 0.34190  0.01710  0.32433  Biso   1.000  H
  C19      1.0000 0.59910  0.25650  0.40373  Biso   1.000  C
  C20      1.0000 0.65030  0.21160  0.40243  Biso   1.000  C
  H12      1.0000 0.62050  0.14900  0.39143  Biso   1.000  H
  C21      1.0000 0.77870  0.13500  0.37593  Biso   1.000  C
  H13      1.0000 0.73420  0.12310  0.34813  Biso   1.000  H
  C22      1.0000 0.82590  0.08530  0.37633  Biso   1.000  C
  H14      1.0000 0.81160  0.03870  0.34963  Biso   1.000  H
  O4       1.0000 0.14160  0.03300  0.40213  Biso   1.000  O
  O5       1.0000 0.16950  0.95950  0.33493  Biso   1.000  O
  O6       1.0000 0.92950  0.99370  0.37843  Biso   1.000  O
  C23      1.0000 0.97550  0.17420  0.70407  Biso   1.000  C
  C24      1.0000 0.90840  0.21170  0.70867  Biso   1.000  C
  C25      1.0000 0.82900  0.16760  0.74147  Biso   1.000  C
  H15      1.0000 0.81270  0.11040  0.75827  Biso   1.000  H
  C26      1.0000 0.77350  0.20720  0.74947  Biso   1.000  C
  H16      1.0000 0.72100  0.17710  0.77257  Biso   1.000  H
  C27      1.0000 0.79490  0.29340  0.72327  Biso   1.000  C
  C28      1.0000 0.87180  0.33380  0.68797  Biso   1.000  C
  H17      1.0000 0.88530  0.38820  0.66847  Biso   1.000  H
  C29      1.0000 0.93010  0.29520  0.68077  Biso   1.000  C
  H18      1.0000 0.98290  0.32480  0.65767  Biso   1.000  H
  C30      1.0000 0.74350  0.34260  0.73707  Biso   1.000  C
  C31      1.0000 0.78840  0.43870  0.73577  Biso   1.000  C
  H19      1.0000 0.85100  0.47150  0.72477  Biso   1.000  H
  C32      1.0000 0.86500  0.64370  0.70927  Biso   1.000  C
  H20      1.0000 0.87690  0.61110  0.68147  Biso   1.000  H
  C33      1.0000 0.91470  0.74060  0.70967  Biso   1.000  C
  H21      1.0000 0.96130  0.77290  0.68297  Biso   1.000  H
  O7       1.0000 0.96700  0.10860  0.73547  Biso   1.000  O
  O8       1.0000 0.04050  0.21000  0.66827  Biso   1.000  O
  O9       1.0000 0.00630  0.93580  0.71177  Biso   1.000  O
  C34      1.0000 0.17420  0.19870  0.53740  Biso   1.000  C
  C35      1.0000 0.21170  0.30330  0.54200  Biso   1.000  C
  C36      1.0000 0.16760  0.33860  0.57480  Biso   1.000  C
  H22      1.0000 0.11040  0.29770  0.59160  Biso   1.000  H
  C37      1.0000 0.20720  0.43370  0.58280  Biso   1.000  C
  H23      1.0000 0.17710  0.45610  0.60590  Biso   1.000  H
  C38      1.0000 0.29340  0.49850  0.55660  Biso   1.000  C
  C39      1.0000 0.33380  0.46200  0.52130  Biso   1.000  C
  H24      1.0000 0.38820  0.50290  0.50180  Biso   1.000  H
  C40      1.0000 0.29520  0.36510  0.51410  Biso   1.000  C
  H25      1.0000 0.32480  0.34190  0.49100  Biso   1.000  H
  C41      1.0000 0.34260  0.59910  0.57040  Biso   1.000  C
  C42      1.0000 0.43870  0.65030  0.56910  Biso   1.000  C
  H26      1.0000 0.47150  0.62050  0.55810  Biso   1.000  H
  C43      1.0000 0.64370  0.77870  0.54260  Biso   1.000  C
  H27      1.0000 0.61110  0.73420  0.51480  Biso   1.000  H
  C44      1.0000 0.74060  0.82590  0.54300  Biso   1.000  C
  H28      1.0000 0.77290  0.81160  0.51630  Biso   1.000  H
  O10      1.0000 0.10860  0.14160  0.56880  Biso   1.000  O
  O11      1.0000 0.21000  0.16950  0.50160  Biso   1.000  O
  O12      1.0000 0.93580  0.92950  0.54510  Biso   1.000  O
  C45      1.0000 0.80130  0.97550  0.87073  Biso   1.000  C
  C46      1.0000 0.69670  0.90840  0.87533  Biso   1.000  C
  C47      1.0000 0.66140  0.82900  0.90813  Biso   1.000  C
  H29      1.0000 0.70230  0.81270  0.92493  Biso   1.000  H
  C48      1.0000 0.56630  0.77350  0.91613  Biso   1.000  C
  H30      1.0000 0.54390  0.72100  0.93923  Biso   1.000  H
  C49      1.0000 0.50150  0.79490  0.88993  Biso   1.000  C
  C50      1.0000 0.53800  0.87180  0.85463  Biso   1.000  C
  H31      1.0000 0.49710  0.88530  0.83513  Biso   1.000  H
  C51      1.0000 0.63490  0.93010  0.84743  Biso   1.000  C
  H32      1.0000 0.65810  0.98290  0.82433  Biso   1.000  H
  C52      1.0000 0.40090  0.74350  0.90373  Biso   1.000  C
  C53      1.0000 0.34970  0.78840  0.90243  Biso   1.000  C
  H33      1.0000 0.37950  0.85100  0.89143  Biso   1.000  H
  C54      1.0000 0.22130  0.86500  0.87593  Biso   1.000  C
  H34      1.0000 0.26580  0.87690  0.84813  Biso   1.000  H
  C55      1.0000 0.17410  0.91470  0.87633  Biso   1.000  C
  H35      1.0000 0.18840  0.96130  0.84963  Biso   1.000  H
  O13      1.0000 0.85840  0.96700  0.90213  Biso   1.000  O
  O14      1.0000 0.83050  0.04050  0.83493  Biso   1.000  O
  O15      1.0000 0.07050  0.00630  0.87843  Biso   1.000  O
  C56      1.0000 0.02450  0.82580  0.20407  Biso   1.000  C
  C57      1.0000 0.09160  0.78830  0.20867  Biso   1.000  C
  C58      1.0000 0.17100  0.83240  0.24147  Biso   1.000  C
  H36      1.0000 0.18730  0.88960  0.25827  Biso   1.000  H
  C59      1.0000 0.22650  0.79280  0.24947  Biso   1.000  C
  H37      1.0000 0.27900  0.82290  0.27257  Biso   1.000  H
  C60      1.0000 0.20510  0.70660  0.22327  Biso   1.000  C
  C61      1.0000 0.12820  0.66620  0.18797  Biso   1.000  C
  H38      1.0000 0.11470  0.61180  0.16847  Biso   1.000  H
  C62      1.0000 0.06990  0.70480  0.18077  Biso   1.000  C
  H39      1.0000 0.01710  0.67520  0.15767  Biso   1.000  H
  C63      1.0000 0.25650  0.65740  0.23707  Biso   1.000  C
  C64      1.0000 0.21160  0.56130  0.23577  Biso   1.000  C
  H40      1.0000 0.14900  0.52850  0.22477  Biso   1.000  H
  C65      1.0000 0.13500  0.35630  0.20927  Biso   1.000  C
  H41      1.0000 0.12310  0.38890  0.18147  Biso   1.000  H
  C66      1.0000 0.08530  0.25940  0.20967  Biso   1.000  C
  H42      1.0000 0.03870  0.22710  0.18297  Biso   1.000  H
  O16      1.0000 0.03300  0.89140  0.23547  Biso   1.000  O
  O17      1.0000 0.95950  0.79000  0.16827  Biso   1.000  O
  O18      1.0000 0.99370  0.06420  0.21177  Biso   1.000  O
  C67      1.0000 0.80130  0.82580  0.29593  Biso   1.000  C
  C68      1.0000 0.69670  0.78830  0.29133  Biso   1.000  C
  C69      1.0000 0.66140  0.83240  0.25853  Biso   1.000  C
  H43      1.0000 0.70230  0.88960  0.24173  Biso   1.000  H
  C70      1.0000 0.56630  0.79280  0.25053  Biso   1.000  C
  H44      1.0000 0.54390  0.82290  0.22743  Biso   1.000  H
  C71      1.0000 0.50150  0.70660  0.27673  Biso   1.000  C
  C72      1.0000 0.53800  0.66620  0.31203  Biso   1.000  C
  H45      1.0000 0.49710  0.61180  0.33153  Biso   1.000  H
  C73      1.0000 0.63490  0.70480  0.31923  Biso   1.000  C
  H46      1.0000 0.65810  0.67520  0.34233  Biso   1.000  H
  C74      1.0000 0.40090  0.65740  0.26293  Biso   1.000  C
  C75      1.0000 0.34970  0.56130  0.26423  Biso   1.000  C
  H47      1.0000 0.37950  0.52850  0.27523  Biso   1.000  H
  C76      1.0000 0.22130  0.35630  0.29073  Biso   1.000  C
  H48      1.0000 0.26580  0.38890  0.31853  Biso   1.000  H
  C77      1.0000 0.17410  0.25940  0.29033  Biso   1.000  C
  H49      1.0000 0.18840  0.22710  0.31703  Biso   1.000  H
  O19      1.0000 0.85840  0.89140  0.26453  Biso   1.000  O
  O20      1.0000 0.83050  0.79000  0.33173  Biso   1.000  O
  O21      1.0000 0.07050  0.06420  0.28823  Biso   1.000  O
  C78      1.0000 0.02450  0.19870  0.96260  Biso   1.000  C
  C79      1.0000 0.09160  0.30330  0.95800  Biso   1.000  C
  C80      1.0000 0.17100  0.33860  0.92520  Biso   1.000  C
  H50      1.0000 0.18730  0.29770  0.90840  Biso   1.000  H
  C81      1.0000 0.22650  0.43370  0.91720  Biso   1.000  C
  H51      1.0000 0.27900  0.45610  0.89410  Biso   1.000  H
  C82      1.0000 0.20510  0.49850  0.94340  Biso   1.000  C
  C83      1.0000 0.12820  0.46200  0.97870  Biso   1.000  C
  H52      1.0000 0.11470  0.50290  0.99820  Biso   1.000  H
  C84      1.0000 0.06990  0.36510  0.98590  Biso   1.000  C
  H53      1.0000 0.01710  0.34190  0.00900  Biso   1.000  H
  C85      1.0000 0.25650  0.59910  0.92960  Biso   1.000  C
  C86      1.0000 0.21160  0.65030  0.93090  Biso   1.000  C
  H54      1.0000 0.14900  0.62050  0.94190  Biso   1.000  H
  C87      1.0000 0.13500  0.77870  0.95740  Biso   1.000  C
  H55      1.0000 0.12310  0.73420  0.98520  Biso   1.000  H
  C88      1.0000 0.08530  0.82590  0.95700  Biso   1.000  C
  H56      1.0000 0.03870  0.81160  0.98370  Biso   1.000  H
  O22      1.0000 0.03300  0.14160  0.93120  Biso   1.000  O
  O23      1.0000 0.95950  0.16950  0.99840  Biso   1.000  O
  O24      1.0000 0.99370  0.92950  0.95490  Biso   1.000  O
  C89      1.0000 0.17420  0.97550  0.62927  Biso   1.000  C
  C90      1.0000 0.21170  0.90840  0.62467  Biso   1.000  C
  C91      1.0000 0.16760  0.82900  0.59187  Biso   1.000  C
  H57      1.0000 0.11040  0.81270  0.57507  Biso   1.000  H
  C92      1.0000 0.20720  0.77350  0.58387  Biso   1.000  C
  H58      1.0000 0.17710  0.72100  0.56077  Biso   1.000  H
  C93      1.0000 0.29340  0.79490  0.61007  Biso   1.000  C
  C94      1.0000 0.33380  0.87180  0.64537  Biso   1.000  C
  H59      1.0000 0.38820  0.88530  0.66487  Biso   1.000  H
  C95      1.0000 0.29520  0.93010  0.65257  Biso   1.000  C
  H60      1.0000 0.32480  0.98290  0.67567  Biso   1.000  H
  C96      1.0000 0.34260  0.74350  0.59627  Biso   1.000  C
  C97      1.0000 0.43870  0.78840  0.59757  Biso   1.000  C
  H61      1.0000 0.47150  0.85100  0.60857  Biso   1.000  H
  C98      1.0000 0.64370  0.86500  0.62407  Biso   1.000  C
  H62      1.0000 0.61110  0.87690  0.65187  Biso   1.000  H
  C99      1.0000 0.74060  0.91470  0.62367  Biso   1.000  C
  H63      1.0000 0.77290  0.96130  0.65037  Biso   1.000  H
  O25      1.0000 0.10860  0.96700  0.59787  Biso   1.000  O
  O26      1.0000 0.21000  0.04050  0.66507  Biso   1.000  O
  O27      1.0000 0.93580  0.00630  0.62157  Biso   1.000  O
  C100     1.0000 0.19870  0.17420  0.79593  Biso   1.000  C
  C101     1.0000 0.30330  0.21170  0.79133  Biso   1.000  C
  C102     1.0000 0.33860  0.16760  0.75853  Biso   1.000  C
  H64      1.0000 0.29770  0.11040  0.74173  Biso   1.000  H
  C103     1.0000 0.43370  0.20720  0.75053  Biso   1.000  C
  H65      1.0000 0.45610  0.17710  0.72743  Biso   1.000  H
  C104     1.0000 0.49850  0.29340  0.77673  Biso   1.000  C
  C105     1.0000 0.46200  0.33380  0.81203  Biso   1.000  C
  H66      1.0000 0.50290  0.38820  0.83153  Biso   1.000  H
  C106     1.0000 0.36510  0.29520  0.81923  Biso   1.000  C
  H67      1.0000 0.34190  0.32480  0.84233  Biso   1.000  H
  C107     1.0000 0.59910  0.34260  0.76293  Biso   1.000  C
  C108     1.0000 0.65030  0.43870  0.76423  Biso   1.000  C
  H68      1.0000 0.62050  0.47150  0.77523  Biso   1.000  H
  C109     1.0000 0.77870  0.64370  0.79073  Biso   1.000  C
  H69      1.0000 0.73420  0.61110  0.81853  Biso   1.000  H
  C110     1.0000 0.82590  0.74060  0.79033  Biso   1.000  C
  H70      1.0000 0.81160  0.77290  0.81703  Biso   1.000  H
  O28      1.0000 0.14160  0.10860  0.76453  Biso   1.000  O
  O29      1.0000 0.16950  0.21000  0.83173  Biso   1.000  O
  O30      1.0000 0.92950  0.93580  0.78823  Biso   1.000  O
  C111     1.0000 0.97550  0.80130  0.46260  Biso   1.000  C
  C112     1.0000 0.90840  0.69670  0.45800  Biso   1.000  C
  C113     1.0000 0.82900  0.66140  0.42520  Biso   1.000  C
  H71      1.0000 0.81270  0.70230  0.40840  Biso   1.000  H
  C114     1.0000 0.77350  0.56630  0.41720  Biso   1.000  C
  H72      1.0000 0.72100  0.54390  0.39410  Biso   1.000  H
  C115     1.0000 0.79490  0.50150  0.44340  Biso   1.000  C
  C116     1.0000 0.87180  0.53800  0.47870  Biso   1.000  C
  H73      1.0000 0.88530  0.49710  0.49820  Biso   1.000  H
  C117     1.0000 0.93010  0.63490  0.48590  Biso   1.000  C
  H74      1.0000 0.98290  0.65810  0.50900  Biso   1.000  H
  C118     1.0000 0.74350  0.40090  0.42960  Biso   1.000  C
  C119     1.0000 0.78840  0.34970  0.43090  Biso   1.000  C
  H75      1.0000 0.85100  0.37950  0.44190  Biso   1.000  H
  C120     1.0000 0.86500  0.22130  0.45740  Biso   1.000  C
  H76      1.0000 0.87690  0.26580  0.48520  Biso   1.000  H
  C121     1.0000 0.91470  0.17410  0.45700  Biso   1.000  C
  H77      1.0000 0.96130  0.18840  0.48370  Biso   1.000  H
  O31      1.0000 0.96700  0.85840  0.43120  Biso   1.000  O
  O32      1.0000 0.04050  0.83050  0.49840  Biso   1.000  O
  O33      1.0000 0.00630  0.07050  0.45490  Biso   1.000  O
  C122     1.0000 0.82580  0.02450  0.12927  Biso   1.000  C
  C123     1.0000 0.78830  0.09160  0.12467  Biso   1.000  C
  C124     1.0000 0.83240  0.17100  0.09187  Biso   1.000  C
  H78      1.0000 0.88960  0.18730  0.07507  Biso   1.000  H
  C125     1.0000 0.79280  0.22650  0.08387  Biso   1.000  C
  H79      1.0000 0.82290  0.27900  0.06077  Biso   1.000  H
  C126     1.0000 0.70660  0.20510  0.11007  Biso   1.000  C
  C127     1.0000 0.66620  0.12820  0.14537  Biso   1.000  C
  H80      1.0000 0.61180  0.11470  0.16487  Biso   1.000  H
  C128     1.0000 0.70480  0.06990  0.15257  Biso   1.000  C
  H81      1.0000 0.67520  0.01710  0.17567  Biso   1.000  H
  C129     1.0000 0.65740  0.25650  0.09627  Biso   1.000  C
  C130     1.0000 0.56130  0.21160  0.09757  Biso   1.000  C
  H82      1.0000 0.52850  0.14900  0.10857  Biso   1.000  H
  C131     1.0000 0.35630  0.13500  0.12407  Biso   1.000  C
  H83      1.0000 0.38890  0.12310  0.15187  Biso   1.000  H
  C132     1.0000 0.25940  0.08530  0.12367  Biso   1.000  C
  H84      1.0000 0.22710  0.03870  0.15037  Biso   1.000  H
  O34      1.0000 0.89140  0.03300  0.09787  Biso   1.000  O
  O35      1.0000 0.79000  0.95950  0.16507  Biso   1.000  O
  O36      1.0000 0.06420  0.99370  0.12157  Biso   1.000  O
  Pr1      1.0000 0.91567  0.00000  0.00000  Biso   1.000  Pr
  Pr2      1.0000 0.00000  0.91567  0.33333  Biso   1.000  Pr
  Pr3      1.0000 0.08433  0.08433  0.66667  Biso   1.000  Pr
  Pr4      1.0000 0.08433  0.00000  0.50000  Biso   1.000  Pr
  Pr5      1.0000 0.00000  0.08433  0.83333  Biso   1.000  Pr
  Pr6      1.0000 0.91567  0.91567  0.16667  Biso   1.000  Pr
  C133     1.0000 0.70670  0.35335  0.08333  Biso   1.000  C
  H85      1.0000 0.77200  0.38600  0.08333  Biso   1.000  H
  C134     1.0000 0.51080  0.25540  0.08333  Biso   1.000  C
  C135     1.0000 0.40550  0.20275  0.08333  Biso   1.000  C
  C136     1.0000 0.20950  0.10475  0.08333  Biso   1.000  C
  C137     1.0000 0.10410  0.05205  0.08333  Biso   1.000  C
  C138     1.0000 0.64665  0.35335  0.41667  Biso   1.000  C
  H86      1.0000 0.61400  0.38600  0.41667  Biso   1.000  H
  C139     1.0000 0.74460  0.25540  0.41667  Biso   1.000  C
  C140     1.0000 0.79725  0.20275  0.41667  Biso   1.000  C
  C141     1.0000 0.89525  0.10475  0.41667  Biso   1.000  C
  C142     1.0000 0.94795  0.05205  0.41667  Biso   1.000  C
  C143     1.0000 0.64665  0.29330  0.75000  Biso   1.000  C
  H87      1.0000 0.61400  0.22800  0.75000  Biso   1.000  H
  C144     1.0000 0.74460  0.48920  0.75000  Biso   1.000  C
  C145     1.0000 0.79725  0.59450  0.75000  Biso   1.000  C
  C146     1.0000 0.89525  0.79050  0.75000  Biso   1.000  C
  C147     1.0000 0.94795  0.89590  0.75000  Biso   1.000  C
  C148     1.0000 0.29330  0.64665  0.58333  Biso   1.000  C
  H88      1.0000 0.22800  0.61400  0.58333  Biso   1.000  H
  C149     1.0000 0.48920  0.74460  0.58333  Biso   1.000  C
  C150     1.0000 0.59450  0.79725  0.58333  Biso   1.000  C
  C151     1.0000 0.79050  0.89525  0.58333  Biso   1.000  C
  C152     1.0000 0.89590  0.94795  0.58333  Biso   1.000  C
  C153     1.0000 0.35335  0.64665  0.91667  Biso   1.000  C
  H89      1.0000 0.38600  0.61400  0.91667  Biso   1.000  H
  C154     1.0000 0.25540  0.74460  0.91667  Biso   1.000  C
  C155     1.0000 0.20275  0.79725  0.91667  Biso   1.000  C
  C156     1.0000 0.10475  0.89525  0.91667  Biso   1.000  C
  C157     1.0000 0.05205  0.94795  0.91667  Biso   1.000  C
  C158     1.0000 0.35335  0.70670  0.25000  Biso   1.000  C
  H90      1.0000 0.38600  0.77200  0.25000  Biso   1.000  H
  C159     1.0000 0.25540  0.51080  0.25000  Biso   1.000  C
  C160     1.0000 0.20275  0.40550  0.25000  Biso   1.000  C
  C161     1.0000 0.10475  0.20950  0.25000  Biso   1.000  C
  C162     1.0000 0.05205  0.10410  0.25000  Biso   1.000  C
