data_ZEDZAL_clean
_audit_creation_date              2014-07-02
_audit_creation_method            'Materials Studio'
_symmetry_space_group_name_H-M    'P1'
_symmetry_Int_Tables_number       1
_symmetry_cell_setting            triclinic
loop_
_symmetry_equiv_pos_as_xyz
  x,y,z
_cell_length_a                    16.4393
_cell_length_b                    16.4393
_cell_length_c                    23.7770
_cell_angle_alpha                 90.0000
_cell_angle_beta                  90.0000
_cell_angle_gamma                 120.0000
loop_
_atom_site_label
_atom_site_type_symbol
_atom_site_fract_x
_atom_site_fract_y
_atom_site_fract_z
_atom_site_U_iso_or_equiv
_atom_site_adp_type
_atom_site_occupancy
Pr1    Pr    0.08433   0.08433   0.00000   0.01267  Uiso   1.00
Pr2    Pr    0.00000   0.91567   0.66667   0.01267  Uiso   1.00
Pr3    Pr    0.91567   0.00000   0.33333   0.01267  Uiso   1.00
Pr4    Pr    0.91567   0.91567   0.50000   0.01267  Uiso   1.00
Pr5    Pr    0.00000   0.08433   0.16667   0.01267  Uiso   1.00
Pr6    Pr    0.08433   0.00000   0.83333   0.01267  Uiso   1.00
H1     H     0.11090   0.81210   0.90900   0.01267  Uiso   1.00
H2     H     0.17770   0.72220   0.89350   0.01267  Uiso   1.00
H3     H     0.38690   0.88460   0.99920   0.01267  Uiso   1.00
H4     H     0.32510   0.98270   0.00900   0.01267  Uiso   1.00
H5     H     0.47160   0.85100   0.94230   0.01267  Uiso   1.00
H6     H     0.61090   0.87990   0.98470   0.01267  Uiso   1.00
H7     H     0.77330   0.96080   0.98330   0.01267  Uiso   1.00
H8     H     0.70120   0.88910   0.57567   0.01267  Uiso   1.00
H9     H     0.54450   0.82230   0.56017   0.01267  Uiso   1.00
H10    H     0.49770   0.61310   0.66587   0.01267  Uiso   1.00
H11    H     0.65760   0.67490   0.67567   0.01267  Uiso   1.00
H12    H     0.37940   0.52840   0.60897   0.01267  Uiso   1.00
H13    H     0.26900   0.38910   0.65137   0.01267  Uiso   1.00
H14    H     0.18750   0.22670   0.64997   0.01267  Uiso   1.00
H15    H     0.18790   0.29880   0.24233   0.01267  Uiso   1.00
H16    H     0.27780   0.45550   0.22683   0.01267  Uiso   1.00
H17    H     0.11540   0.50230   0.33253   0.01267  Uiso   1.00
H18    H     0.01730   0.34240   0.34233   0.01267  Uiso   1.00
H19    H     0.14900   0.62060   0.27563   0.01267  Uiso   1.00
H20    H     0.12010   0.73100   0.31803   0.01267  Uiso   1.00
H21    H     0.03920   0.81250   0.31663   0.01267  Uiso   1.00
H22    H     0.88910   0.18790   0.40900   0.01267  Uiso   1.00
H23    H     0.82230   0.27780   0.39350   0.01267  Uiso   1.00
H24    H     0.61310   0.11540   0.49920   0.01267  Uiso   1.00
H25    H     0.67490   0.01730   0.50900   0.01267  Uiso   1.00
H26    H     0.52840   0.14900   0.44230   0.01267  Uiso   1.00
H27    H     0.38910   0.12010   0.48470   0.01267  Uiso   1.00
H28    H     0.22670   0.03920   0.48330   0.01267  Uiso   1.00
H29    H     0.29880   0.11090   0.07567   0.01267  Uiso   1.00
H30    H     0.45550   0.17770   0.06017   0.01267  Uiso   1.00
H31    H     0.50230   0.38690   0.16587   0.01267  Uiso   1.00
H32    H     0.34240   0.32510   0.17567   0.01267  Uiso   1.00
H33    H     0.62060   0.47160   0.10897   0.01267  Uiso   1.00
H34    H     0.73100   0.61090   0.15137   0.01267  Uiso   1.00
H35    H     0.81250   0.77330   0.14997   0.01267  Uiso   1.00
H36    H     0.81210   0.70120   0.74233   0.01267  Uiso   1.00
H37    H     0.72220   0.54450   0.72683   0.01267  Uiso   1.00
H38    H     0.88460   0.49770   0.83253   0.01267  Uiso   1.00
H39    H     0.98270   0.65760   0.84233   0.01267  Uiso   1.00
H40    H     0.85100   0.37940   0.77563   0.01267  Uiso   1.00
H41    H     0.87990   0.26900   0.81803   0.01267  Uiso   1.00
H42    H     0.96080   0.18750   0.81663   0.01267  Uiso   1.00
H43    H     0.29880   0.18790   0.75767   0.01267  Uiso   1.00
H44    H     0.45550   0.27780   0.77317   0.01267  Uiso   1.00
H45    H     0.50230   0.11540   0.66747   0.01267  Uiso   1.00
H46    H     0.34240   0.01730   0.65767   0.01267  Uiso   1.00
H47    H     0.62060   0.14900   0.72437   0.01267  Uiso   1.00
H48    H     0.73100   0.12010   0.68197   0.01267  Uiso   1.00
H49    H     0.81250   0.03920   0.68337   0.01267  Uiso   1.00
H50    H     0.81210   0.11090   0.09100   0.01267  Uiso   1.00
H51    H     0.72220   0.17770   0.10650   0.01267  Uiso   1.00
H52    H     0.88460   0.38690   0.00080   0.01267  Uiso   1.00
H53    H     0.98270   0.32510   0.99100   0.01267  Uiso   1.00
H54    H     0.85100   0.47160   0.05770   0.01267  Uiso   1.00
H55    H     0.87990   0.61090   0.01530   0.01267  Uiso   1.00
H56    H     0.96080   0.77330   0.01670   0.01267  Uiso   1.00
H57    H     0.88910   0.70120   0.42433   0.01267  Uiso   1.00
H58    H     0.82230   0.54450   0.43983   0.01267  Uiso   1.00
H59    H     0.61310   0.49770   0.33413   0.01267  Uiso   1.00
H60    H     0.67490   0.65760   0.32433   0.01267  Uiso   1.00
H61    H     0.52840   0.37940   0.39103   0.01267  Uiso   1.00
H62    H     0.38910   0.26900   0.34863   0.01267  Uiso   1.00
H63    H     0.22670   0.18750   0.35003   0.01267  Uiso   1.00
H64    H     0.70120   0.81210   0.25767   0.01267  Uiso   1.00
H65    H     0.54450   0.72220   0.27317   0.01267  Uiso   1.00
H66    H     0.49770   0.88460   0.16747   0.01267  Uiso   1.00
H67    H     0.65760   0.98270   0.15767   0.01267  Uiso   1.00
H68    H     0.37940   0.85100   0.22437   0.01267  Uiso   1.00
H69    H     0.26900   0.87990   0.18197   0.01267  Uiso   1.00
H70    H     0.18750   0.96080   0.18337   0.01267  Uiso   1.00
H71    H     0.18790   0.88910   0.59100   0.01267  Uiso   1.00
H72    H     0.27780   0.82230   0.60650   0.01267  Uiso   1.00
H73    H     0.11540   0.61310   0.50080   0.01267  Uiso   1.00
H74    H     0.01730   0.67490   0.49100   0.01267  Uiso   1.00
H75    H     0.14900   0.52840   0.55770   0.01267  Uiso   1.00
H76    H     0.12010   0.38910   0.51530   0.01267  Uiso   1.00
H77    H     0.03920   0.22670   0.51670   0.01267  Uiso   1.00
H78    H     0.11090   0.29880   0.92433   0.01267  Uiso   1.00
H79    H     0.17770   0.45550   0.93983   0.01267  Uiso   1.00
H80    H     0.38690   0.50230   0.83413   0.01267  Uiso   1.00
H81    H     0.32510   0.34240   0.82433   0.01267  Uiso   1.00
H82    H     0.47160   0.62060   0.89103   0.01267  Uiso   1.00
H83    H     0.61090   0.73100   0.84863   0.01267  Uiso   1.00
H84    H     0.77330   0.81250   0.85003   0.01267  Uiso   1.00
H85    H     0.22770   0.61385   0.91667   0.01267  Uiso   1.00
H86    H     0.38615   0.77230   0.58333   0.01267  Uiso   1.00
H87    H     0.38615   0.61385   0.25000   0.01267  Uiso   1.00
H88    H     0.77230   0.38615   0.41667   0.01267  Uiso   1.00
H89    H     0.61385   0.22770   0.08333   0.01267  Uiso   1.00
H90    H     0.61385   0.38615   0.75000   0.01267  Uiso   1.00
C1     C     0.17570   0.97610   0.96370   0.01267  Uiso   1.00
C2     C     0.21370   0.91070   0.95850   0.01267  Uiso   1.00
C3     C     0.16850   0.82890   0.92540   0.01267  Uiso   1.00
C4     C     0.20720   0.77410   0.91710   0.01267  Uiso   1.00
C5     C     0.29310   0.79550   0.94410   0.01267  Uiso   1.00
C6     C     0.33310   0.87170   0.97930   0.01267  Uiso   1.00
C7     C     0.29520   0.93020   0.98590   0.01267  Uiso   1.00
C8     C     0.34210   0.74350   0.93030   0.01267  Uiso   1.00
C9     C     0.43850   0.78830   0.93130   0.01267  Uiso   1.00
C10    C     0.64330   0.86660   0.95760   0.01267  Uiso   1.00
C11    C     0.74030   0.91440   0.95660   0.01267  Uiso   1.00
C12    C     0.80040   0.82430   0.63037   0.01267  Uiso   1.00
C13    C     0.69700   0.78630   0.62517   0.01267  Uiso   1.00
C14    C     0.66040   0.83150   0.59207   0.01267  Uiso   1.00
C15    C     0.56690   0.79280   0.58377   0.01267  Uiso   1.00
C16    C     0.50240   0.70690   0.61077   0.01267  Uiso   1.00
C17    C     0.53860   0.66690   0.64597   0.01267  Uiso   1.00
C18    C     0.63500   0.70480   0.65257   0.01267  Uiso   1.00
C19    C     0.40140   0.65790   0.59697   0.01267  Uiso   1.00
C20    C     0.34980   0.56150   0.59797   0.01267  Uiso   1.00
C21    C     0.22330   0.35670   0.62427   0.01267  Uiso   1.00
C22    C     0.17410   0.25970   0.62327   0.01267  Uiso   1.00
C23    C     0.02390   0.19960   0.29703   0.01267  Uiso   1.00
C24    C     0.08930   0.30300   0.29183   0.01267  Uiso   1.00
C25    C     0.17110   0.33960   0.25873   0.01267  Uiso   1.00
C26    C     0.22590   0.43310   0.25043   0.01267  Uiso   1.00
C27    C     0.20450   0.49760   0.27743   0.01267  Uiso   1.00
C28    C     0.12830   0.46140   0.31263   0.01267  Uiso   1.00
C29    C     0.06980   0.36500   0.31923   0.01267  Uiso   1.00
C30    C     0.25650   0.59860   0.26363   0.01267  Uiso   1.00
C31    C     0.21170   0.65020   0.26463   0.01267  Uiso   1.00
C32    C     0.13340   0.77670   0.29093   0.01267  Uiso   1.00
C33    C     0.08560   0.82590   0.28993   0.01267  Uiso   1.00
C34    C     0.82430   0.02390   0.46370   0.01267  Uiso   1.00
C35    C     0.78630   0.08930   0.45850   0.01267  Uiso   1.00
C36    C     0.83150   0.17110   0.42540   0.01267  Uiso   1.00
C37    C     0.79280   0.22590   0.41710   0.01267  Uiso   1.00
C38    C     0.70690   0.20450   0.44410   0.01267  Uiso   1.00
C39    C     0.66690   0.12830   0.47930   0.01267  Uiso   1.00
C40    C     0.70480   0.06980   0.48590   0.01267  Uiso   1.00
C41    C     0.65790   0.25650   0.43030   0.01267  Uiso   1.00
C42    C     0.56150   0.21170   0.43130   0.01267  Uiso   1.00
C43    C     0.35670   0.13340   0.45760   0.01267  Uiso   1.00
C44    C     0.25970   0.08560   0.45660   0.01267  Uiso   1.00
C45    C     0.19960   0.17570   0.13037   0.01267  Uiso   1.00
C46    C     0.30300   0.21370   0.12517   0.01267  Uiso   1.00
C47    C     0.33960   0.16850   0.09207   0.01267  Uiso   1.00
C48    C     0.43310   0.20720   0.08377   0.01267  Uiso   1.00
C49    C     0.49760   0.29310   0.11077   0.01267  Uiso   1.00
C50    C     0.46140   0.33310   0.14597   0.01267  Uiso   1.00
C51    C     0.36500   0.29520   0.15257   0.01267  Uiso   1.00
C52    C     0.59860   0.34210   0.09697   0.01267  Uiso   1.00
C53    C     0.65020   0.43850   0.09797   0.01267  Uiso   1.00
C54    C     0.77670   0.64330   0.12427   0.01267  Uiso   1.00
C55    C     0.82590   0.74030   0.12327   0.01267  Uiso   1.00
C56    C     0.97610   0.80040   0.79703   0.01267  Uiso   1.00
C57    C     0.91070   0.69700   0.79183   0.01267  Uiso   1.00
C58    C     0.82890   0.66040   0.75873   0.01267  Uiso   1.00
C59    C     0.77410   0.56690   0.75043   0.01267  Uiso   1.00
C60    C     0.79550   0.50240   0.77743   0.01267  Uiso   1.00
C61    C     0.87170   0.53860   0.81263   0.01267  Uiso   1.00
C62    C     0.93020   0.63500   0.81923   0.01267  Uiso   1.00
C63    C     0.74350   0.40140   0.76363   0.01267  Uiso   1.00
C64    C     0.78830   0.34980   0.76463   0.01267  Uiso   1.00
C65    C     0.86660   0.22330   0.79093   0.01267  Uiso   1.00
C66    C     0.91440   0.17410   0.78993   0.01267  Uiso   1.00
C67    C     0.19960   0.02390   0.70297   0.01267  Uiso   1.00
C68    C     0.30300   0.08930   0.70817   0.01267  Uiso   1.00
C69    C     0.33960   0.17110   0.74127   0.01267  Uiso   1.00
C70    C     0.43310   0.22590   0.74957   0.01267  Uiso   1.00
C71    C     0.49760   0.20450   0.72257   0.01267  Uiso   1.00
C72    C     0.46140   0.12830   0.68737   0.01267  Uiso   1.00
C73    C     0.36500   0.06980   0.68077   0.01267  Uiso   1.00
C74    C     0.59860   0.25650   0.73637   0.01267  Uiso   1.00
C75    C     0.65020   0.21170   0.73537   0.01267  Uiso   1.00
C76    C     0.77670   0.13340   0.70907   0.01267  Uiso   1.00
C77    C     0.82590   0.08560   0.71007   0.01267  Uiso   1.00
C78    C     0.97610   0.17570   0.03630   0.01267  Uiso   1.00
C79    C     0.91070   0.21370   0.04150   0.01267  Uiso   1.00
C80    C     0.82890   0.16850   0.07460   0.01267  Uiso   1.00
C81    C     0.77410   0.20720   0.08290   0.01267  Uiso   1.00
C82    C     0.79550   0.29310   0.05590   0.01267  Uiso   1.00
C83    C     0.87170   0.33310   0.02070   0.01267  Uiso   1.00
C84    C     0.93020   0.29520   0.01410   0.01267  Uiso   1.00
C85    C     0.74350   0.34210   0.06970   0.01267  Uiso   1.00
C86    C     0.78830   0.43850   0.06870   0.01267  Uiso   1.00
C87    C     0.86660   0.64330   0.04240   0.01267  Uiso   1.00
C88    C     0.91440   0.74030   0.04340   0.01267  Uiso   1.00
C89    C     0.82430   0.80040   0.36963   0.01267  Uiso   1.00
C90    C     0.78630   0.69700   0.37483   0.01267  Uiso   1.00
C91    C     0.83150   0.66040   0.40793   0.01267  Uiso   1.00
C92    C     0.79280   0.56690   0.41623   0.01267  Uiso   1.00
C93    C     0.70690   0.50240   0.38923   0.01267  Uiso   1.00
C94    C     0.66690   0.53860   0.35403   0.01267  Uiso   1.00
C95    C     0.70480   0.63500   0.34743   0.01267  Uiso   1.00
C96    C     0.65790   0.40140   0.40303   0.01267  Uiso   1.00
C97    C     0.56150   0.34980   0.40203   0.01267  Uiso   1.00
C98    C     0.35670   0.22330   0.37573   0.01267  Uiso   1.00
C99    C     0.25970   0.17410   0.37673   0.01267  Uiso   1.00
C100   C     0.80040   0.97610   0.20297   0.01267  Uiso   1.00
C101   C     0.69700   0.91070   0.20817   0.01267  Uiso   1.00
C102   C     0.66040   0.82890   0.24127   0.01267  Uiso   1.00
C103   C     0.56690   0.77410   0.24957   0.01267  Uiso   1.00
C104   C     0.50240   0.79550   0.22257   0.01267  Uiso   1.00
C105   C     0.53860   0.87170   0.18737   0.01267  Uiso   1.00
C106   C     0.63500   0.93020   0.18077   0.01267  Uiso   1.00
C107   C     0.40140   0.74350   0.23637   0.01267  Uiso   1.00
C108   C     0.34980   0.78830   0.23537   0.01267  Uiso   1.00
C109   C     0.22330   0.86660   0.20907   0.01267  Uiso   1.00
C110   C     0.17410   0.91440   0.21007   0.01267  Uiso   1.00
C111   C     0.02390   0.82430   0.53630   0.01267  Uiso   1.00
C112   C     0.08930   0.78630   0.54150   0.01267  Uiso   1.00
C113   C     0.17110   0.83150   0.57460   0.01267  Uiso   1.00
C114   C     0.22590   0.79280   0.58290   0.01267  Uiso   1.00
C115   C     0.20450   0.70690   0.55590   0.01267  Uiso   1.00
C116   C     0.12830   0.66690   0.52070   0.01267  Uiso   1.00
C117   C     0.06980   0.70480   0.51410   0.01267  Uiso   1.00
C118   C     0.25650   0.65790   0.56970   0.01267  Uiso   1.00
C119   C     0.21170   0.56150   0.56870   0.01267  Uiso   1.00
C120   C     0.13340   0.35670   0.54240   0.01267  Uiso   1.00
C121   C     0.08560   0.25970   0.54340   0.01267  Uiso   1.00
C122   C     0.17570   0.19960   0.86963   0.01267  Uiso   1.00
C123   C     0.21370   0.30300   0.87483   0.01267  Uiso   1.00
C124   C     0.16850   0.33960   0.90793   0.01267  Uiso   1.00
C125   C     0.20720   0.43310   0.91623   0.01267  Uiso   1.00
C126   C     0.29310   0.49760   0.88923   0.01267  Uiso   1.00
C127   C     0.33310   0.46140   0.85403   0.01267  Uiso   1.00
C128   C     0.29520   0.36500   0.84743   0.01267  Uiso   1.00
C129   C     0.34210   0.59860   0.90303   0.01267  Uiso   1.00
C130   C     0.43850   0.65020   0.90203   0.01267  Uiso   1.00
C131   C     0.64330   0.77670   0.87573   0.01267  Uiso   1.00
C132   C     0.74030   0.82590   0.87673   0.01267  Uiso   1.00
C133   C     0.29310   0.64655   0.91667   0.01267  Uiso   1.00
C134   C     0.48850   0.74425   0.91667   0.01267  Uiso   1.00
C135   C     0.59470   0.79735   0.91667   0.01267  Uiso   1.00
C136   C     0.78970   0.89485   0.91667   0.01267  Uiso   1.00
C137   C     0.89470   0.94735   0.91667   0.01267  Uiso   1.00
C138   C     0.35345   0.70690   0.58333   0.01267  Uiso   1.00
C139   C     0.25575   0.51150   0.58333   0.01267  Uiso   1.00
C140   C     0.20265   0.40530   0.58333   0.01267  Uiso   1.00
C141   C     0.10515   0.21030   0.58333   0.01267  Uiso   1.00
C142   C     0.05265   0.10530   0.58333   0.01267  Uiso   1.00
C143   C     0.35345   0.64655   0.25000   0.01267  Uiso   1.00
C144   C     0.25575   0.74425   0.25000   0.01267  Uiso   1.00
C145   C     0.20265   0.79735   0.25000   0.01267  Uiso   1.00
C146   C     0.10515   0.89485   0.25000   0.01267  Uiso   1.00
C147   C     0.05265   0.94735   0.25000   0.01267  Uiso   1.00
C148   C     0.70690   0.35345   0.41667   0.01267  Uiso   1.00
C149   C     0.51150   0.25575   0.41667   0.01267  Uiso   1.00
C150   C     0.40530   0.20265   0.41667   0.01267  Uiso   1.00
C151   C     0.21030   0.10515   0.41667   0.01267  Uiso   1.00
C152   C     0.10530   0.05265   0.41667   0.01267  Uiso   1.00
C153   C     0.64655   0.29310   0.08333   0.01267  Uiso   1.00
C154   C     0.74425   0.48850   0.08333   0.01267  Uiso   1.00
C155   C     0.79735   0.59470   0.08333   0.01267  Uiso   1.00
C156   C     0.89485   0.78970   0.08333   0.01267  Uiso   1.00
C157   C     0.94735   0.89470   0.08333   0.01267  Uiso   1.00
C158   C     0.64655   0.35345   0.75000   0.01267  Uiso   1.00
C159   C     0.74425   0.25575   0.75000   0.01267  Uiso   1.00
C160   C     0.79735   0.20265   0.75000   0.01267  Uiso   1.00
C161   C     0.89485   0.10515   0.75000   0.01267  Uiso   1.00
C162   C     0.94735   0.05265   0.75000   0.01267  Uiso   1.00
O1     O     0.10890   0.96690   0.93164   0.01267  Uiso   1.00
O2     O     0.21020   0.04100   0.99790   0.01267  Uiso   1.00
O3     O     0.93480   0.00570   0.95554   0.01267  Uiso   1.00
O4     O     0.85800   0.89110   0.59831   0.01267  Uiso   1.00
O5     O     0.83080   0.78980   0.66457   0.01267  Uiso   1.00
O6     O     0.07090   0.06520   0.62221   0.01267  Uiso   1.00
O7     O     0.03310   0.14200   0.26497   0.01267  Uiso   1.00
O8     O     0.95900   0.16920   0.33123   0.01267  Uiso   1.00
O9     O     0.99430   0.92910   0.28887   0.01267  Uiso   1.00
O10    O     0.89110   0.03310   0.43164   0.01267  Uiso   1.00
O11    O     0.78980   0.95900   0.49790   0.01267  Uiso   1.00
O12    O     0.06520   0.99430   0.45554   0.01267  Uiso   1.00
O13    O     0.14200   0.10890   0.09831   0.01267  Uiso   1.00
O14    O     0.16920   0.21020   0.16457   0.01267  Uiso   1.00
O15    O     0.92910   0.93480   0.12221   0.01267  Uiso   1.00
O16    O     0.96690   0.85800   0.76497   0.01267  Uiso   1.00
O17    O     0.04100   0.83080   0.83123   0.01267  Uiso   1.00
O18    O     0.00570   0.07090   0.78887   0.01267  Uiso   1.00
O19    O     0.14200   0.03310   0.73503   0.01267  Uiso   1.00
O20    O     0.16920   0.95900   0.66877   0.01267  Uiso   1.00
O21    O     0.92910   0.99430   0.71113   0.01267  Uiso   1.00
O22    O     0.96690   0.10890   0.06836   0.01267  Uiso   1.00
O23    O     0.04100   0.21020   0.00210   0.01267  Uiso   1.00
O24    O     0.00570   0.93480   0.04446   0.01267  Uiso   1.00
O25    O     0.89110   0.85800   0.40169   0.01267  Uiso   1.00
O26    O     0.78980   0.83080   0.33543   0.01267  Uiso   1.00
O27    O     0.06520   0.07090   0.37779   0.01267  Uiso   1.00
O28    O     0.85800   0.96690   0.23503   0.01267  Uiso   1.00
O29    O     0.83080   0.04100   0.16877   0.01267  Uiso   1.00
O30    O     0.07090   0.00570   0.21113   0.01267  Uiso   1.00
O31    O     0.03310   0.89110   0.56836   0.01267  Uiso   1.00
O32    O     0.95900   0.78980   0.50210   0.01267  Uiso   1.00
O33    O     0.99430   0.06520   0.54446   0.01267  Uiso   1.00
O34    O     0.10890   0.14200   0.90169   0.01267  Uiso   1.00
O35    O     0.21020   0.16920   0.83543   0.01267  Uiso   1.00
O36    O     0.93480   0.92910   0.87779   0.01267  Uiso   1.00
