data_image0
_cell_length_a       14.853
_cell_length_b       17.01
_cell_length_c       14.538
_cell_angle_alpha    90
_cell_angle_beta     120.72
_cell_angle_gamma    90

_symmetry_space_group_name_H-M    "P 1"
_symmetry_int_tables_number       1

loop_
  _symmetry_equiv_pos_as_xyz
  'x, y, z'

loop_
  _atom_site_label
  _atom_site_occupancy
  _atom_site_fract_x
  _atom_site_fract_y
  _atom_site_fract_z
  _atom_site_thermal_displace_type
  _atom_site_B_iso_or_equiv
  _atom_site_type_symbol
  Br1      1.0000 0.42502  0.89335  0.31346  Biso   1.000  Br
  Br2      1.0000 0.33001  0.34782  0.11135  Biso   1.000  Br
  Co1      1.0000 0.09221  0.12065  0.20785  Biso   1.000  Co
  N1       1.0000 0.17630  0.04450  0.16380  Biso   1.000  N
  N2       1.0000 0.21570  0.20580  0.25600  Biso   1.000  N
  O1       1.0000 0.17030  0.92230  0.86480  Biso   1.000  O
  O2       1.0000 0.02410  0.96350  0.86100  Biso   1.000  O
  O3       1.0000 0.51070  0.32660  0.55120  Biso   1.000  O
  O4       1.0000 0.40830  0.24000  0.57260  Biso   1.000  O
  H1       1.0000 0.04660  0.22350  0.31110  Biso   1.000  H
  C1       1.0000 0.31150  0.94940  0.20560  Biso   1.000  C
  C2       1.0000 0.26290  0.00540  0.23590  Biso   1.000  C
  H2       1.0000 0.29180  0.01630  0.30980  Biso   1.000  H
  C3       1.0000 0.13460  0.02600  0.05920  Biso   1.000  C
  H3       1.0000 0.07160  0.05110  0.00800  Biso   1.000  H
  C4       1.0000 0.17990  0.97190  0.02360  Biso   1.000  C
  C5       1.0000 0.27160  0.93210  0.09830  Biso   1.000  C
  H4       1.0000 0.30470  0.89510  0.07620  Biso   1.000  H
  C6       1.0000 0.11970  0.95140  0.90440  Biso   1.000  C
  C7       1.0000 0.31440  0.29460  0.21700  Biso   1.000  C
  C8       1.0000 0.23370  0.24250  0.18500  Biso   1.000  C
  H5       1.0000 0.18940  0.23190  0.11090  Biso   1.000  H
  C9       1.0000 0.28060  0.21870  0.35960  Biso   1.000  C
  H6       1.0000 0.26830  0.19280  0.41000  Biso   1.000  H
  C10      1.0000 0.36630  0.26910  0.39660  Biso   1.000  C
  C11      1.0000 0.38430  0.30820  0.32360  Biso   1.000  C
  H7       1.0000 0.44220  0.34270  0.34630  Biso   1.000  H
  C12      1.0000 0.43590  0.27890  0.51750  Biso   1.000  C
  Br3      1.0000 0.92502  0.39335  0.31346  Biso   1.000  Br
  Br4      1.0000 0.83001  0.84782  0.11135  Biso   1.000  Br
  Co2      1.0000 0.59221  0.62065  0.20785  Biso   1.000  Co
  N3       1.0000 0.67630  0.54450  0.16380  Biso   1.000  N
  N4       1.0000 0.71570  0.70580  0.25600  Biso   1.000  N
  O5       1.0000 0.67030  0.42230  0.86480  Biso   1.000  O
  O6       1.0000 0.52410  0.46350  0.86100  Biso   1.000  O
  O7       1.0000 0.01070  0.82660  0.55120  Biso   1.000  O
  O8       1.0000 0.90830  0.74000  0.57260  Biso   1.000  O
  H8       1.0000 0.54660  0.72350  0.31110  Biso   1.000  H
  C13      1.0000 0.81150  0.44940  0.20560  Biso   1.000  C
  C14      1.0000 0.76290  0.50540  0.23590  Biso   1.000  C
  H9       1.0000 0.79180  0.51630  0.30980  Biso   1.000  H
  C15      1.0000 0.63460  0.52600  0.05920  Biso   1.000  C
  H10      1.0000 0.57160  0.55110  0.00800  Biso   1.000  H
  C16      1.0000 0.67990  0.47190  0.02360  Biso   1.000  C
  C17      1.0000 0.77160  0.43210  0.09830  Biso   1.000  C
  H11      1.0000 0.80470  0.39510  0.07620  Biso   1.000  H
  C18      1.0000 0.61970  0.45140  0.90440  Biso   1.000  C
  C19      1.0000 0.81440  0.79460  0.21700  Biso   1.000  C
  C20      1.0000 0.73370  0.74250  0.18500  Biso   1.000  C
  H12      1.0000 0.68940  0.73190  0.11090  Biso   1.000  H
  C21      1.0000 0.78060  0.71870  0.35960  Biso   1.000  C
  H13      1.0000 0.76830  0.69280  0.41000  Biso   1.000  H
  C22      1.0000 0.86630  0.76910  0.39660  Biso   1.000  C
  C23      1.0000 0.88430  0.80820  0.32360  Biso   1.000  C
  H14      1.0000 0.94220  0.84270  0.34630  Biso   1.000  H
  C24      1.0000 0.93590  0.77890  0.51750  Biso   1.000  C
  Br5      1.0000 0.57498  0.89335  0.18654  Biso   1.000  Br
  Br6      1.0000 0.66999  0.34782  0.38865  Biso   1.000  Br
  Co3      1.0000 0.90779  0.12065  0.29215  Biso   1.000  Co
  N5       1.0000 0.82370  0.04450  0.33620  Biso   1.000  N
  N6       1.0000 0.78430  0.20580  0.24400  Biso   1.000  N
  O9       1.0000 0.82970  0.92230  0.63520  Biso   1.000  O
  O10      1.0000 0.97590  0.96350  0.63900  Biso   1.000  O
  O11      1.0000 0.48930  0.32660  0.94880  Biso   1.000  O
  O12      1.0000 0.59170  0.24000  0.92740  Biso   1.000  O
  H15      1.0000 0.95340  0.22350  0.18890  Biso   1.000  H
  C25      1.0000 0.68850  0.94940  0.29440  Biso   1.000  C
  C26      1.0000 0.73710  0.00540  0.26410  Biso   1.000  C
  H16      1.0000 0.70820  0.01630  0.19020  Biso   1.000  H
  C27      1.0000 0.86540  0.02600  0.44080  Biso   1.000  C
  H17      1.0000 0.92840  0.05110  0.49200  Biso   1.000  H
  C28      1.0000 0.82010  0.97190  0.47640  Biso   1.000  C
  C29      1.0000 0.72840  0.93210  0.40170  Biso   1.000  C
  H18      1.0000 0.69530  0.89510  0.42380  Biso   1.000  H
  C30      1.0000 0.88030  0.95140  0.59560  Biso   1.000  C
  C31      1.0000 0.68560  0.29460  0.28300  Biso   1.000  C
  C32      1.0000 0.76630  0.24250  0.31500  Biso   1.000  C
  H19      1.0000 0.81060  0.23190  0.38910  Biso   1.000  H
  C33      1.0000 0.71940  0.21870  0.14040  Biso   1.000  C
  H20      1.0000 0.73170  0.19280  0.09000  Biso   1.000  H
  C34      1.0000 0.63370  0.26910  0.10340  Biso   1.000  C
  C35      1.0000 0.61570  0.30820  0.17640  Biso   1.000  C
  H21      1.0000 0.55780  0.34270  0.15370  Biso   1.000  H
  C36      1.0000 0.56410  0.27890  0.98250  Biso   1.000  C
  Br7      1.0000 0.07498  0.39335  0.18654  Biso   1.000  Br
  Br8      1.0000 0.16999  0.84782  0.38865  Biso   1.000  Br
  Co4      1.0000 0.40779  0.62065  0.29215  Biso   1.000  Co
  N7       1.0000 0.32370  0.54450  0.33620  Biso   1.000  N
  N8       1.0000 0.28430  0.70580  0.24400  Biso   1.000  N
  O13      1.0000 0.32970  0.42230  0.63520  Biso   1.000  O
  O14      1.0000 0.47590  0.46350  0.63900  Biso   1.000  O
  O15      1.0000 0.98930  0.82660  0.94880  Biso   1.000  O
  O16      1.0000 0.09170  0.74000  0.92740  Biso   1.000  O
  H22      1.0000 0.45340  0.72350  0.18890  Biso   1.000  H
  C37      1.0000 0.18850  0.44940  0.29440  Biso   1.000  C
  C38      1.0000 0.23710  0.50540  0.26410  Biso   1.000  C
  H23      1.0000 0.20820  0.51630  0.19020  Biso   1.000  H
  C39      1.0000 0.36540  0.52600  0.44080  Biso   1.000  C
  H24      1.0000 0.42840  0.55110  0.49200  Biso   1.000  H
  C40      1.0000 0.32010  0.47190  0.47640  Biso   1.000  C
  C41      1.0000 0.22840  0.43210  0.40170  Biso   1.000  C
  H25      1.0000 0.19530  0.39510  0.42380  Biso   1.000  H
  C42      1.0000 0.38030  0.45140  0.59560  Biso   1.000  C
  C43      1.0000 0.18560  0.79460  0.28300  Biso   1.000  C
  C44      1.0000 0.26630  0.74250  0.31500  Biso   1.000  C
  H26      1.0000 0.31060  0.73190  0.38910  Biso   1.000  H
  C45      1.0000 0.21940  0.71870  0.14040  Biso   1.000  C
  H27      1.0000 0.23170  0.69280  0.09000  Biso   1.000  H
  C46      1.0000 0.13370  0.76910  0.10340  Biso   1.000  C
  C47      1.0000 0.11570  0.80820  0.17640  Biso   1.000  C
  H28      1.0000 0.05780  0.84270  0.15370  Biso   1.000  H
  C48      1.0000 0.06410  0.77890  0.98250  Biso   1.000  C
  Br9      1.0000 0.57498  0.10665  0.68654  Biso   1.000  Br
  Br10     1.0000 0.66999  0.65218  0.88865  Biso   1.000  Br
  Co5      1.0000 0.90779  0.87935  0.79215  Biso   1.000  Co
  N9       1.0000 0.82370  0.95550  0.83620  Biso   1.000  N
  N10      1.0000 0.78430  0.79420  0.74400  Biso   1.000  N
  O17      1.0000 0.82970  0.07770  0.13520  Biso   1.000  O
  O18      1.0000 0.97590  0.03650  0.13900  Biso   1.000  O
  O19      1.0000 0.48930  0.67340  0.44880  Biso   1.000  O
  O20      1.0000 0.59170  0.76000  0.42740  Biso   1.000  O
  H29      1.0000 0.95340  0.77650  0.68890  Biso   1.000  H
  C49      1.0000 0.68850  0.05060  0.79440  Biso   1.000  C
  C50      1.0000 0.73710  0.99460  0.76410  Biso   1.000  C
  H30      1.0000 0.70820  0.98370  0.69020  Biso   1.000  H
  C51      1.0000 0.86540  0.97400  0.94080  Biso   1.000  C
  H31      1.0000 0.92840  0.94890  0.99200  Biso   1.000  H
  C52      1.0000 0.82010  0.02810  0.97640  Biso   1.000  C
  C53      1.0000 0.72840  0.06790  0.90170  Biso   1.000  C
  H32      1.0000 0.69530  0.10490  0.92380  Biso   1.000  H
  C54      1.0000 0.88030  0.04860  0.09560  Biso   1.000  C
  C55      1.0000 0.68560  0.70540  0.78300  Biso   1.000  C
  C56      1.0000 0.76630  0.75750  0.81500  Biso   1.000  C
  H33      1.0000 0.81060  0.76810  0.88910  Biso   1.000  H
  C57      1.0000 0.71940  0.78130  0.64040  Biso   1.000  C
  H34      1.0000 0.73170  0.80720  0.59000  Biso   1.000  H
  C58      1.0000 0.63370  0.73090  0.60340  Biso   1.000  C
  C59      1.0000 0.61570  0.69180  0.67640  Biso   1.000  C
  H35      1.0000 0.55780  0.65730  0.65370  Biso   1.000  H
  C60      1.0000 0.56410  0.72110  0.48250  Biso   1.000  C
  Br11     1.0000 0.07498  0.60665  0.68654  Biso   1.000  Br
  Br12     1.0000 0.16999  0.15218  0.88865  Biso   1.000  Br
  Co6      1.0000 0.40779  0.37935  0.79215  Biso   1.000  Co
  N11      1.0000 0.32370  0.45550  0.83620  Biso   1.000  N
  N12      1.0000 0.28430  0.29420  0.74400  Biso   1.000  N
  O21      1.0000 0.32970  0.57770  0.13520  Biso   1.000  O
  O22      1.0000 0.47590  0.53650  0.13900  Biso   1.000  O
  O23      1.0000 0.98930  0.17340  0.44880  Biso   1.000  O
  O24      1.0000 0.09170  0.26000  0.42740  Biso   1.000  O
  H36      1.0000 0.45340  0.27650  0.68890  Biso   1.000  H
  C61      1.0000 0.18850  0.55060  0.79440  Biso   1.000  C
  C62      1.0000 0.23710  0.49460  0.76410  Biso   1.000  C
  H37      1.0000 0.20820  0.48370  0.69020  Biso   1.000  H
  C63      1.0000 0.36540  0.47400  0.94080  Biso   1.000  C
  H38      1.0000 0.42840  0.44890  0.99200  Biso   1.000  H
  C64      1.0000 0.32010  0.52810  0.97640  Biso   1.000  C
  C65      1.0000 0.22840  0.56790  0.90170  Biso   1.000  C
  H39      1.0000 0.19530  0.60490  0.92380  Biso   1.000  H
  C66      1.0000 0.38030  0.54860  0.09560  Biso   1.000  C
  C67      1.0000 0.18560  0.20540  0.78300  Biso   1.000  C
  C68      1.0000 0.26630  0.25750  0.81500  Biso   1.000  C
  H40      1.0000 0.31060  0.26810  0.88910  Biso   1.000  H
  C69      1.0000 0.21940  0.28130  0.64040  Biso   1.000  C
  H41      1.0000 0.23170  0.30720  0.59000  Biso   1.000  H
  C70      1.0000 0.13370  0.23090  0.60340  Biso   1.000  C
  C71      1.0000 0.11570  0.19180  0.67640  Biso   1.000  C
  H42      1.0000 0.05780  0.15730  0.65370  Biso   1.000  H
  C72      1.0000 0.06410  0.22110  0.48250  Biso   1.000  C
  Br13     1.0000 0.42502  0.10665  0.81346  Biso   1.000  Br
  Br14     1.0000 0.33001  0.65218  0.61135  Biso   1.000  Br
  Co7      1.0000 0.09221  0.87935  0.70785  Biso   1.000  Co
  N13      1.0000 0.17630  0.95550  0.66380  Biso   1.000  N
  N14      1.0000 0.21570  0.79420  0.75600  Biso   1.000  N
  O25      1.0000 0.17030  0.07770  0.36480  Biso   1.000  O
  O26      1.0000 0.02410  0.03650  0.36100  Biso   1.000  O
  O27      1.0000 0.51070  0.67340  0.05120  Biso   1.000  O
  O28      1.0000 0.40830  0.76000  0.07260  Biso   1.000  O
  H43      1.0000 0.04660  0.77650  0.81110  Biso   1.000  H
  C73      1.0000 0.31150  0.05060  0.70560  Biso   1.000  C
  C74      1.0000 0.26290  0.99460  0.73590  Biso   1.000  C
  H44      1.0000 0.29180  0.98370  0.80980  Biso   1.000  H
  C75      1.0000 0.13460  0.97400  0.55920  Biso   1.000  C
  H45      1.0000 0.07160  0.94890  0.50800  Biso   1.000  H
  C76      1.0000 0.17990  0.02810  0.52360  Biso   1.000  C
  C77      1.0000 0.27160  0.06790  0.59830  Biso   1.000  C
  H46      1.0000 0.30470  0.10490  0.57620  Biso   1.000  H
  C78      1.0000 0.11970  0.04860  0.40440  Biso   1.000  C
  C79      1.0000 0.31440  0.70540  0.71700  Biso   1.000  C
  C80      1.0000 0.23370  0.75750  0.68500  Biso   1.000  C
  H47      1.0000 0.18940  0.76810  0.61090  Biso   1.000  H
  C81      1.0000 0.28060  0.78130  0.85960  Biso   1.000  C
  H48      1.0000 0.26830  0.80720  0.91000  Biso   1.000  H
  C82      1.0000 0.36630  0.73090  0.89660  Biso   1.000  C
  C83      1.0000 0.38430  0.69180  0.82360  Biso   1.000  C
  H49      1.0000 0.44220  0.65730  0.84630  Biso   1.000  H
  C84      1.0000 0.43590  0.72110  0.01750  Biso   1.000  C
  Br15     1.0000 0.92502  0.60665  0.81346  Biso   1.000  Br
  Br16     1.0000 0.83001  0.15218  0.61135  Biso   1.000  Br
  Co8      1.0000 0.59221  0.37935  0.70785  Biso   1.000  Co
  N15      1.0000 0.67630  0.45550  0.66380  Biso   1.000  N
  N16      1.0000 0.71570  0.29420  0.75600  Biso   1.000  N
  O29      1.0000 0.67030  0.57770  0.36480  Biso   1.000  O
  O30      1.0000 0.52410  0.53650  0.36100  Biso   1.000  O
  O31      1.0000 0.01070  0.17340  0.05120  Biso   1.000  O
  O32      1.0000 0.90830  0.26000  0.07260  Biso   1.000  O
  H50      1.0000 0.54660  0.27650  0.81110  Biso   1.000  H
  C85      1.0000 0.81150  0.55060  0.70560  Biso   1.000  C
  C86      1.0000 0.76290  0.49460  0.73590  Biso   1.000  C
  H51      1.0000 0.79180  0.48370  0.80980  Biso   1.000  H
  C87      1.0000 0.63460  0.47400  0.55920  Biso   1.000  C
  H52      1.0000 0.57160  0.44890  0.50800  Biso   1.000  H
  C88      1.0000 0.67990  0.52810  0.52360  Biso   1.000  C
  C89      1.0000 0.77160  0.56790  0.59830  Biso   1.000  C
  H53      1.0000 0.80470  0.60490  0.57620  Biso   1.000  H
  C90      1.0000 0.61970  0.54860  0.40440  Biso   1.000  C
  C91      1.0000 0.81440  0.20540  0.71700  Biso   1.000  C
  C92      1.0000 0.73370  0.25750  0.68500  Biso   1.000  C
  H54      1.0000 0.68940  0.26810  0.61090  Biso   1.000  H
  C93      1.0000 0.78060  0.28130  0.85960  Biso   1.000  C
  H55      1.0000 0.76830  0.30720  0.91000  Biso   1.000  H
  C94      1.0000 0.86630  0.23090  0.89660  Biso   1.000  C
  C95      1.0000 0.88430  0.19180  0.82360  Biso   1.000  C
  H56      1.0000 0.94220  0.15730  0.84630  Biso   1.000  H
  C96      1.0000 0.93590  0.22110  0.01750  Biso   1.000  C
  O33      1.0000 0.00000  0.18920  0.25000  Biso   1.000  O
  O34      1.0000 0.50000  0.68920  0.25000  Biso   1.000  O
  O35      1.0000 0.00000  0.81080  0.75000  Biso   1.000  O
  O36      1.0000 0.50000  0.31080  0.75000  Biso   1.000  O
