data_ZEFVEN_clean
_audit_creation_date              2014-07-02
_audit_creation_method            'Materials Studio'
_symmetry_space_group_name_H-M    'P1'
_symmetry_Int_Tables_number       1
_symmetry_cell_setting            triclinic
loop_
_symmetry_equiv_pos_as_xyz
  x,y,z
_cell_length_a                    7.5939
_cell_length_b                    10.4460
_cell_length_c                    30.5130
_cell_angle_alpha                 99.0000
_cell_angle_beta                  90.0000
_cell_angle_gamma                 90.0000
loop_
_atom_site_label
_atom_site_type_symbol
_atom_site_fract_x
_atom_site_fract_y
_atom_site_fract_z
_atom_site_U_iso_or_equiv
_atom_site_adp_type
_atom_site_occupancy
Sm1    Sm    0.36944   0.55075   0.76805   0.01267  Uiso   1.00
Sm2    Sm    0.86944   0.44925   0.73195   0.01267  Uiso   1.00
Sm3    Sm    0.63056   0.44925   0.23195   0.01267  Uiso   1.00
Sm4    Sm    0.13056   0.55075   0.26805   0.01267  Uiso   1.00
Co1    Co    0.55068   0.28611   0.86990   0.01267  Uiso   1.00
Co2    Co    0.05068   0.71389   0.63010   0.01267  Uiso   1.00
Co3    Co    0.44932   0.71389   0.13010   0.01267  Uiso   1.00
Co4    Co    0.94932   0.28611   0.36990   0.01267  Uiso   1.00
Co5    Co    0.50000   0.00000   0.00000   0.01267  Uiso   1.00
Co6    Co    0.00000   0.00000   0.50000   0.01267  Uiso   1.00
H1     H     0.55080   0.75540   0.91770   0.01267  Uiso   1.00
H2     H     0.15070   0.79800   0.87720   0.01267  Uiso   1.00
H3     H     0.87880   0.12480   0.98570   0.01267  Uiso   1.00
H4     H     0.18160   0.92180   0.78240   0.01267  Uiso   1.00
H5     H     0.57030   0.97320   0.81420   0.01267  Uiso   1.00
H6     H     0.96870   0.31020   0.87550   0.01267  Uiso   1.00
H7     H     0.10820   0.03110   0.93780   0.01267  Uiso   1.00
H8     H     0.18520   0.16610   0.83920   0.01267  Uiso   1.00
H9     H     0.05080   0.24460   0.58230   0.01267  Uiso   1.00
H10    H     0.65070   0.20200   0.62280   0.01267  Uiso   1.00
H11    H     0.37880   0.87520   0.51430   0.01267  Uiso   1.00
H12    H     0.68160   0.07820   0.71760   0.01267  Uiso   1.00
H13    H     0.07030   0.02680   0.68580   0.01267  Uiso   1.00
H14    H     0.46870   0.68980   0.62450   0.01267  Uiso   1.00
H15    H     0.60820   0.96890   0.56220   0.01267  Uiso   1.00
H16    H     0.68520   0.83390   0.66080   0.01267  Uiso   1.00
H17    H     0.44920   0.24460   0.08230   0.01267  Uiso   1.00
H18    H     0.84930   0.20200   0.12280   0.01267  Uiso   1.00
H19    H     0.12120   0.87520   0.01430   0.01267  Uiso   1.00
H20    H     0.81840   0.07820   0.21760   0.01267  Uiso   1.00
H21    H     0.42970   0.02680   0.18580   0.01267  Uiso   1.00
H22    H     0.03130   0.68980   0.12450   0.01267  Uiso   1.00
H23    H     0.89180   0.96890   0.06220   0.01267  Uiso   1.00
H24    H     0.81480   0.83390   0.16080   0.01267  Uiso   1.00
H25    H     0.94920   0.75540   0.41770   0.01267  Uiso   1.00
H26    H     0.34930   0.79800   0.37720   0.01267  Uiso   1.00
H27    H     0.62120   0.12480   0.48570   0.01267  Uiso   1.00
H28    H     0.31840   0.92180   0.28240   0.01267  Uiso   1.00
H29    H     0.92970   0.97320   0.31420   0.01267  Uiso   1.00
H30    H     0.53130   0.31020   0.37550   0.01267  Uiso   1.00
H31    H     0.39180   0.03110   0.43780   0.01267  Uiso   1.00
H32    H     0.31480   0.16610   0.33920   0.01267  Uiso   1.00
C1     C     0.43060   0.10530   0.92301   0.01267  Uiso   1.00
C2     C     0.52910   0.21030   0.95506   0.01267  Uiso   1.00
C3     C     0.64650   0.55430   0.86005   0.01267  Uiso   1.00
C4     C     0.75170   0.67280   0.87801   0.01267  Uiso   1.00
C5     C     0.67060   0.76350   0.90960   0.01267  Uiso   1.00
C6     C     0.77430   0.86720   0.92894   0.01267  Uiso   1.00
C7     C     0.94790   0.88090   0.91582   0.01267  Uiso   1.00
C8     C     0.03090   0.78900   0.88517   0.01267  Uiso   1.00
C9     C     0.93150   0.68380   0.86664   0.01267  Uiso   1.00
C10    C     0.01050   0.58520   0.83186   0.01267  Uiso   1.00
C11    C     0.87180   0.04520   0.96584   0.01267  Uiso   1.00
C12    C     0.99970   0.73640   0.73277   0.01267  Uiso   1.00
C13    C     0.93760   0.84100   0.76953   0.01267  Uiso   1.00
C14    C     0.05900   0.93250   0.78811   0.01267  Uiso   1.00
C15    C     0.99280   0.04090   0.81553   0.01267  Uiso   1.00
C16    C     0.81190   0.05950   0.82441   0.01267  Uiso   1.00
C17    C     0.69210   0.96400   0.80739   0.01267  Uiso   1.00
C18    C     0.75550   0.85470   0.78003   0.01267  Uiso   1.00
C19    C     0.62690   0.74960   0.76507   0.01267  Uiso   1.00
C20    C     0.94570   0.22820   0.85816   0.01267  Uiso   1.00
C21    C     0.93060   0.89470   0.57699   0.01267  Uiso   1.00
C22    C     0.02910   0.78970   0.54494   0.01267  Uiso   1.00
C23    C     0.14650   0.44570   0.63995   0.01267  Uiso   1.00
C24    C     0.25170   0.32720   0.62199   0.01267  Uiso   1.00
C25    C     0.17060   0.23650   0.59040   0.01267  Uiso   1.00
C26    C     0.27430   0.13280   0.57106   0.01267  Uiso   1.00
C27    C     0.44790   0.11910   0.58418   0.01267  Uiso   1.00
C28    C     0.53090   0.21100   0.61483   0.01267  Uiso   1.00
C29    C     0.43150   0.31620   0.63336   0.01267  Uiso   1.00
C30    C     0.51050   0.41480   0.66814   0.01267  Uiso   1.00
C31    C     0.37180   0.95480   0.53416   0.01267  Uiso   1.00
C32    C     0.49970   0.26360   0.76723   0.01267  Uiso   1.00
C33    C     0.43760   0.15900   0.73047   0.01267  Uiso   1.00
C34    C     0.55900   0.06750   0.71189   0.01267  Uiso   1.00
C35    C     0.49280   0.95910   0.68447   0.01267  Uiso   1.00
C36    C     0.31190   0.94050   0.67559   0.01267  Uiso   1.00
C37    C     0.19210   0.03600   0.69261   0.01267  Uiso   1.00
C38    C     0.25550   0.14530   0.71997   0.01267  Uiso   1.00
C39    C     0.12690   0.25040   0.73493   0.01267  Uiso   1.00
C40    C     0.44570   0.77180   0.64184   0.01267  Uiso   1.00
C41    C     0.56940   0.89470   0.07699   0.01267  Uiso   1.00
C42    C     0.47090   0.78970   0.04494   0.01267  Uiso   1.00
C43    C     0.35350   0.44570   0.13995   0.01267  Uiso   1.00
C44    C     0.24830   0.32720   0.12199   0.01267  Uiso   1.00
C45    C     0.32940   0.23650   0.09040   0.01267  Uiso   1.00
C46    C     0.22570   0.13280   0.07106   0.01267  Uiso   1.00
C47    C     0.05210   0.11910   0.08418   0.01267  Uiso   1.00
C48    C     0.96910   0.21100   0.11483   0.01267  Uiso   1.00
C49    C     0.06850   0.31620   0.13336   0.01267  Uiso   1.00
C50    C     0.98950   0.41480   0.16814   0.01267  Uiso   1.00
C51    C     0.12820   0.95480   0.03416   0.01267  Uiso   1.00
C52    C     0.00030   0.26360   0.26723   0.01267  Uiso   1.00
C53    C     0.06240   0.15900   0.23047   0.01267  Uiso   1.00
C54    C     0.94100   0.06750   0.21189   0.01267  Uiso   1.00
C55    C     0.00720   0.95910   0.18447   0.01267  Uiso   1.00
C56    C     0.18810   0.94050   0.17559   0.01267  Uiso   1.00
C57    C     0.30790   0.03600   0.19261   0.01267  Uiso   1.00
C58    C     0.24450   0.14530   0.21997   0.01267  Uiso   1.00
C59    C     0.37310   0.25040   0.23493   0.01267  Uiso   1.00
C60    C     0.05430   0.77180   0.14184   0.01267  Uiso   1.00
C61    C     0.06940   0.10530   0.42301   0.01267  Uiso   1.00
C62    C     0.97090   0.21030   0.45506   0.01267  Uiso   1.00
C63    C     0.85350   0.55430   0.36005   0.01267  Uiso   1.00
C64    C     0.74830   0.67280   0.37801   0.01267  Uiso   1.00
C65    C     0.82940   0.76350   0.40960   0.01267  Uiso   1.00
C66    C     0.72570   0.86720   0.42894   0.01267  Uiso   1.00
C67    C     0.55210   0.88090   0.41582   0.01267  Uiso   1.00
C68    C     0.46910   0.78900   0.38517   0.01267  Uiso   1.00
C69    C     0.56850   0.68380   0.36664   0.01267  Uiso   1.00
C70    C     0.48950   0.58520   0.33186   0.01267  Uiso   1.00
C71    C     0.62820   0.04520   0.46584   0.01267  Uiso   1.00
C72    C     0.50030   0.73640   0.23277   0.01267  Uiso   1.00
C73    C     0.56240   0.84100   0.26953   0.01267  Uiso   1.00
C74    C     0.44100   0.93250   0.28811   0.01267  Uiso   1.00
C75    C     0.50720   0.04090   0.31553   0.01267  Uiso   1.00
C76    C     0.68810   0.05950   0.32441   0.01267  Uiso   1.00
C77    C     0.80790   0.96400   0.30739   0.01267  Uiso   1.00
C78    C     0.74450   0.85470   0.28003   0.01267  Uiso   1.00
C79    C     0.87310   0.74960   0.26507   0.01267  Uiso   1.00
C80    C     0.55430   0.22820   0.35816   0.01267  Uiso   1.00
N1     N     0.73160   0.97130   0.96121   0.01267  Uiso   1.00
N2     N     0.00370   0.99590   0.93953   0.01267  Uiso   1.00
N3     N     0.78760   0.17900   0.85115   0.01267  Uiso   1.00
N4     N     0.07130   0.15010   0.83812   0.01267  Uiso   1.00
N5     N     0.23160   0.02870   0.53879   0.01267  Uiso   1.00
N6     N     0.50370   0.00410   0.56047   0.01267  Uiso   1.00
N7     N     0.28760   0.82100   0.64885   0.01267  Uiso   1.00
N8     N     0.57130   0.84990   0.66188   0.01267  Uiso   1.00
N9     N     0.26840   0.02870   0.03879   0.01267  Uiso   1.00
N10    N     0.99630   0.00410   0.06047   0.01267  Uiso   1.00
N11    N     0.21240   0.82100   0.14885   0.01267  Uiso   1.00
N12    N     0.92870   0.84990   0.16188   0.01267  Uiso   1.00
N13    N     0.76840   0.97130   0.46121   0.01267  Uiso   1.00
N14    N     0.49630   0.99590   0.43953   0.01267  Uiso   1.00
N15    N     0.71240   0.17900   0.35115   0.01267  Uiso   1.00
N16    N     0.42870   0.15010   0.33812   0.01267  Uiso   1.00
O1     O     0.37000   0.00940   0.93908   0.01267  Uiso   1.00
O2     O     0.53610   0.19650   0.99540   0.01267  Uiso   1.00
O3     O     0.41650   0.12180   0.88378   0.01267  Uiso   1.00
O4     O     0.59320   0.30040   0.93867   0.01267  Uiso   1.00
O5     O     0.68270   0.45460   0.87640   0.01267  Uiso   1.00
O6     O     0.52400   0.56540   0.83370   0.01267  Uiso   1.00
O7     O     0.17570   0.58210   0.82868   0.01267  Uiso   1.00
O8     O     0.90890   0.50890   0.80781   0.01267  Uiso   1.00
O9     O     0.95810   0.75290   0.69489   0.01267  Uiso   1.00
O10    O     0.08760   0.64060   0.74198   0.01267  Uiso   1.00
O11    O     0.68330   0.63560   0.75036   0.01267  Uiso   1.00
O12    O     0.46420   0.77020   0.76936   0.01267  Uiso   1.00
O13    O     0.87000   0.99060   0.56092   0.01267  Uiso   1.00
O14    O     0.03610   0.80350   0.50460   0.01267  Uiso   1.00
O15    O     0.91650   0.87820   0.61622   0.01267  Uiso   1.00
O16    O     0.09320   0.69960   0.56133   0.01267  Uiso   1.00
O17    O     0.18270   0.54540   0.62360   0.01267  Uiso   1.00
O18    O     0.02400   0.43460   0.66630   0.01267  Uiso   1.00
O19    O     0.67570   0.41790   0.67132   0.01267  Uiso   1.00
O20    O     0.40890   0.49110   0.69219   0.01267  Uiso   1.00
O21    O     0.45810   0.24710   0.80511   0.01267  Uiso   1.00
O22    O     0.58760   0.35940   0.75802   0.01267  Uiso   1.00
O23    O     0.18330   0.36440   0.74964   0.01267  Uiso   1.00
O24    O     0.96420   0.22980   0.73064   0.01267  Uiso   1.00
O25    O     0.63000   0.99060   0.06092   0.01267  Uiso   1.00
O26    O     0.46390   0.80350   0.00460   0.01267  Uiso   1.00
O27    O     0.58350   0.87820   0.11622   0.01267  Uiso   1.00
O28    O     0.40680   0.69960   0.06133   0.01267  Uiso   1.00
O29    O     0.31730   0.54540   0.12360   0.01267  Uiso   1.00
O30    O     0.47600   0.43460   0.16630   0.01267  Uiso   1.00
O31    O     0.82430   0.41790   0.17132   0.01267  Uiso   1.00
O32    O     0.09110   0.49110   0.19219   0.01267  Uiso   1.00
O33    O     0.04190   0.24710   0.30511   0.01267  Uiso   1.00
O34    O     0.91240   0.35940   0.25802   0.01267  Uiso   1.00
O35    O     0.31670   0.36440   0.24964   0.01267  Uiso   1.00
O36    O     0.53580   0.22980   0.23064   0.01267  Uiso   1.00
O37    O     0.13000   0.00940   0.43908   0.01267  Uiso   1.00
O38    O     0.96390   0.19650   0.49540   0.01267  Uiso   1.00
O39    O     0.08350   0.12180   0.38378   0.01267  Uiso   1.00
O40    O     0.90680   0.30040   0.43867   0.01267  Uiso   1.00
O41    O     0.81730   0.45460   0.37640   0.01267  Uiso   1.00
O42    O     0.97600   0.56540   0.33370   0.01267  Uiso   1.00
O43    O     0.32430   0.58210   0.32868   0.01267  Uiso   1.00
O44    O     0.59110   0.50890   0.30781   0.01267  Uiso   1.00
O45    O     0.54190   0.75290   0.19489   0.01267  Uiso   1.00
O46    O     0.41240   0.64060   0.24198   0.01267  Uiso   1.00
O47    O     0.81670   0.63560   0.25036   0.01267  Uiso   1.00
O48    O     0.03580   0.77020   0.26936   0.01267  Uiso   1.00
