data_ZEFVIR_clean
_audit_creation_date              2014-07-02
_audit_creation_method            'Materials Studio'
_symmetry_space_group_name_H-M    'P1'
_symmetry_Int_Tables_number       1
_symmetry_cell_setting            triclinic
loop_
_symmetry_equiv_pos_as_xyz
  x,y,z
_cell_length_a                    7.6575
_cell_length_b                    10.4770
_cell_length_c                    30.4560
_cell_angle_alpha                 99.0600
_cell_angle_beta                  90.0000
_cell_angle_gamma                 90.0000
loop_
_atom_site_label
_atom_site_type_symbol
_atom_site_fract_x
_atom_site_fract_y
_atom_site_fract_z
_atom_site_U_iso_or_equiv
_atom_site_adp_type
_atom_site_occupancy
Pr1    Pr    0.37153   0.55207   0.76821   0.01267  Uiso   1.00
Pr2    Pr    0.87153   0.44793   0.73179   0.01267  Uiso   1.00
Pr3    Pr    0.62847   0.44793   0.23179   0.01267  Uiso   1.00
Pr4    Pr    0.12847   0.55207   0.26821   0.01267  Uiso   1.00
Co1    Co    0.44581   0.71354   0.13005   0.01267  Uiso   1.00
Co2    Co    0.94581   0.28646   0.36995   0.01267  Uiso   1.00
Co3    Co    0.55419   0.28646   0.86995   0.01267  Uiso   1.00
Co4    Co    0.05419   0.71354   0.63005   0.01267  Uiso   1.00
Co5    Co    0.50000   0.00000   0.00000   0.01267  Uiso   1.00
Co6    Co    0.00000   0.00000   0.50000   0.01267  Uiso   1.00
H1     H     0.55620   0.75640   0.91830   0.01267  Uiso   1.00
H2     H     0.15020   0.79830   0.87800   0.01267  Uiso   1.00
H3     H     0.87770   0.12740   0.98560   0.01267  Uiso   1.00
H4     H     0.81850   0.07710   0.21690   0.01267  Uiso   1.00
H5     H     0.42490   0.02300   0.18610   0.01267  Uiso   1.00
H6     H     0.02860   0.68880   0.12430   0.01267  Uiso   1.00
H7     H     0.10590   0.03560   0.93800   0.01267  Uiso   1.00
H8     H     0.81290   0.83380   0.16030   0.01267  Uiso   1.00
H9     H     0.05620   0.24360   0.58170   0.01267  Uiso   1.00
H10    H     0.65020   0.20170   0.62200   0.01267  Uiso   1.00
H11    H     0.37770   0.87260   0.51440   0.01267  Uiso   1.00
H12    H     0.31850   0.92290   0.28310   0.01267  Uiso   1.00
H13    H     0.92490   0.97700   0.31390   0.01267  Uiso   1.00
H14    H     0.52860   0.31120   0.37570   0.01267  Uiso   1.00
H15    H     0.60590   0.96440   0.56200   0.01267  Uiso   1.00
H16    H     0.31290   0.16620   0.33970   0.01267  Uiso   1.00
H17    H     0.44380   0.24360   0.08170   0.01267  Uiso   1.00
H18    H     0.84980   0.20170   0.12200   0.01267  Uiso   1.00
H19    H     0.12230   0.87260   0.01440   0.01267  Uiso   1.00
H20    H     0.18150   0.92290   0.78310   0.01267  Uiso   1.00
H21    H     0.57510   0.97700   0.81390   0.01267  Uiso   1.00
H22    H     0.97140   0.31120   0.87570   0.01267  Uiso   1.00
H23    H     0.89410   0.96440   0.06200   0.01267  Uiso   1.00
H24    H     0.18710   0.16620   0.83970   0.01267  Uiso   1.00
H25    H     0.94380   0.75640   0.41830   0.01267  Uiso   1.00
H26    H     0.34980   0.79830   0.37800   0.01267  Uiso   1.00
H27    H     0.62230   0.12740   0.48560   0.01267  Uiso   1.00
H28    H     0.68150   0.07710   0.71690   0.01267  Uiso   1.00
H29    H     0.07510   0.02300   0.68610   0.01267  Uiso   1.00
H30    H     0.47140   0.68880   0.62430   0.01267  Uiso   1.00
H31    H     0.39410   0.03560   0.43800   0.01267  Uiso   1.00
H32    H     0.68710   0.83380   0.66030   0.01267  Uiso   1.00
C1     C     0.47030   0.79020   0.04455   0.01267  Uiso   1.00
C2     C     0.56770   0.89490   0.07708   0.01267  Uiso   1.00
C3     C     0.65160   0.55530   0.86153   0.01267  Uiso   1.00
C4     C     0.75500   0.67320   0.87945   0.01267  Uiso   1.00
C5     C     0.67530   0.76460   0.91047   0.01267  Uiso   1.00
C6     C     0.77500   0.86920   0.92995   0.01267  Uiso   1.00
C7     C     0.94920   0.88200   0.91660   0.01267  Uiso   1.00
C8     C     0.03150   0.78960   0.88606   0.01267  Uiso   1.00
C9     C     0.93270   0.68410   0.86779   0.01267  Uiso   1.00
C10    C     0.01370   0.58410   0.83363   0.01267  Uiso   1.00
C11    C     0.87130   0.04760   0.96595   0.01267  Uiso   1.00
C12    C     0.99880   0.26160   0.26694   0.01267  Uiso   1.00
C13    C     0.06040   0.15670   0.23044   0.01267  Uiso   1.00
C14    C     0.94010   0.06610   0.21142   0.01267  Uiso   1.00
C15    C     0.00530   0.95800   0.18393   0.01267  Uiso   1.00
C16    C     0.18450   0.93880   0.17533   0.01267  Uiso   1.00
C17    C     0.30390   0.03310   0.19267   0.01267  Uiso   1.00
C18    C     0.24190   0.14230   0.21984   0.01267  Uiso   1.00
C19    C     0.36890   0.24730   0.23495   0.01267  Uiso   1.00
C20    C     0.05170   0.77070   0.14162   0.01267  Uiso   1.00
C21    C     0.97030   0.20980   0.45545   0.01267  Uiso   1.00
C22    C     0.06770   0.10510   0.42292   0.01267  Uiso   1.00
C23    C     0.15160   0.44470   0.63847   0.01267  Uiso   1.00
C24    C     0.25500   0.32680   0.62055   0.01267  Uiso   1.00
C25    C     0.17530   0.23540   0.58953   0.01267  Uiso   1.00
C26    C     0.27500   0.13080   0.57005   0.01267  Uiso   1.00
C27    C     0.44920   0.11800   0.58340   0.01267  Uiso   1.00
C28    C     0.53150   0.21040   0.61394   0.01267  Uiso   1.00
C29    C     0.43270   0.31590   0.63221   0.01267  Uiso   1.00
C30    C     0.51370   0.41590   0.66637   0.01267  Uiso   1.00
C31    C     0.37130   0.95240   0.53405   0.01267  Uiso   1.00
C32    C     0.49880   0.73840   0.23306   0.01267  Uiso   1.00
C33    C     0.56040   0.84330   0.26956   0.01267  Uiso   1.00
C34    C     0.44010   0.93390   0.28858   0.01267  Uiso   1.00
C35    C     0.50530   0.04200   0.31607   0.01267  Uiso   1.00
C36    C     0.68450   0.06120   0.32467   0.01267  Uiso   1.00
C37    C     0.80390   0.96690   0.30733   0.01267  Uiso   1.00
C38    C     0.74190   0.85770   0.28016   0.01267  Uiso   1.00
C39    C     0.86890   0.75270   0.26505   0.01267  Uiso   1.00
C40    C     0.55170   0.22930   0.35838   0.01267  Uiso   1.00
C41    C     0.52970   0.20980   0.95545   0.01267  Uiso   1.00
C42    C     0.43230   0.10510   0.92292   0.01267  Uiso   1.00
C43    C     0.34840   0.44470   0.13847   0.01267  Uiso   1.00
C44    C     0.24500   0.32680   0.12055   0.01267  Uiso   1.00
C45    C     0.32470   0.23540   0.08953   0.01267  Uiso   1.00
C46    C     0.22500   0.13080   0.07005   0.01267  Uiso   1.00
C47    C     0.05080   0.11800   0.08340   0.01267  Uiso   1.00
C48    C     0.96850   0.21040   0.11394   0.01267  Uiso   1.00
C49    C     0.06730   0.31590   0.13221   0.01267  Uiso   1.00
C50    C     0.98630   0.41590   0.16637   0.01267  Uiso   1.00
C51    C     0.12870   0.95240   0.03405   0.01267  Uiso   1.00
C52    C     0.00120   0.73840   0.73306   0.01267  Uiso   1.00
C53    C     0.93960   0.84330   0.76956   0.01267  Uiso   1.00
C54    C     0.05990   0.93390   0.78858   0.01267  Uiso   1.00
C55    C     0.99470   0.04200   0.81607   0.01267  Uiso   1.00
C56    C     0.81550   0.06120   0.82467   0.01267  Uiso   1.00
C57    C     0.69610   0.96690   0.80733   0.01267  Uiso   1.00
C58    C     0.75810   0.85770   0.78016   0.01267  Uiso   1.00
C59    C     0.63110   0.75270   0.76505   0.01267  Uiso   1.00
C60    C     0.94830   0.22930   0.85838   0.01267  Uiso   1.00
C61    C     0.02970   0.79020   0.54455   0.01267  Uiso   1.00
C62    C     0.93230   0.89490   0.57708   0.01267  Uiso   1.00
C63    C     0.84840   0.55530   0.36153   0.01267  Uiso   1.00
C64    C     0.74500   0.67320   0.37945   0.01267  Uiso   1.00
C65    C     0.82470   0.76460   0.41047   0.01267  Uiso   1.00
C66    C     0.72500   0.86920   0.42995   0.01267  Uiso   1.00
C67    C     0.55080   0.88200   0.41660   0.01267  Uiso   1.00
C68    C     0.46850   0.78960   0.38606   0.01267  Uiso   1.00
C69    C     0.56730   0.68410   0.36779   0.01267  Uiso   1.00
C70    C     0.48630   0.58410   0.33363   0.01267  Uiso   1.00
C71    C     0.62870   0.04760   0.46595   0.01267  Uiso   1.00
C72    C     0.50120   0.26160   0.76694   0.01267  Uiso   1.00
C73    C     0.43960   0.15670   0.73044   0.01267  Uiso   1.00
C74    C     0.55990   0.06610   0.71142   0.01267  Uiso   1.00
C75    C     0.49470   0.95800   0.68393   0.01267  Uiso   1.00
C76    C     0.31550   0.93880   0.67533   0.01267  Uiso   1.00
C77    C     0.19610   0.03310   0.69267   0.01267  Uiso   1.00
C78    C     0.25810   0.14230   0.71984   0.01267  Uiso   1.00
C79    C     0.13110   0.24730   0.73495   0.01267  Uiso   1.00
C80    C     0.44830   0.77070   0.64162   0.01267  Uiso   1.00
N1     N     0.73170   0.97390   0.96170   0.01267  Uiso   1.00
N2     N     0.00310   0.99930   0.93995   0.01267  Uiso   1.00
N3     N     0.21030   0.81900   0.14863   0.01267  Uiso   1.00
N4     N     0.92590   0.84930   0.16149   0.01267  Uiso   1.00
N5     N     0.23170   0.02610   0.53830   0.01267  Uiso   1.00
N6     N     0.50310   0.00070   0.56005   0.01267  Uiso   1.00
N7     N     0.71030   0.18100   0.35137   0.01267  Uiso   1.00
N8     N     0.42590   0.15070   0.33851   0.01267  Uiso   1.00
N9     N     0.26830   0.02610   0.03830   0.01267  Uiso   1.00
N10    N     0.99690   0.00070   0.06005   0.01267  Uiso   1.00
N11    N     0.78970   0.18100   0.85137   0.01267  Uiso   1.00
N12    N     0.07410   0.15070   0.83851   0.01267  Uiso   1.00
N13    N     0.76830   0.97390   0.46170   0.01267  Uiso   1.00
N14    N     0.49690   0.99930   0.43995   0.01267  Uiso   1.00
N15    N     0.28970   0.81900   0.64863   0.01267  Uiso   1.00
N16    N     0.57410   0.84930   0.66149   0.01267  Uiso   1.00
O1     O     0.62980   0.98960   0.06099   0.01267  Uiso   1.00
O2     O     0.46440   0.80340   0.00415   0.01267  Uiso   1.00
O3     O     0.58030   0.87750   0.11642   0.01267  Uiso   1.00
O4     O     0.40520   0.69960   0.06108   0.01267  Uiso   1.00
O5     O     0.68650   0.45510   0.87744   0.01267  Uiso   1.00
O6     O     0.52900   0.56630   0.83492   0.01267  Uiso   1.00
O7     O     0.91430   0.50850   0.80919   0.01267  Uiso   1.00
O8     O     0.17800   0.58240   0.83088   0.01267  Uiso   1.00
O9     O     0.03960   0.24700   0.30515   0.01267  Uiso   1.00
O10    O     0.91070   0.35680   0.25702   0.01267  Uiso   1.00
O11    O     0.31440   0.36170   0.24943   0.01267  Uiso   1.00
O12    O     0.53060   0.22560   0.23103   0.01267  Uiso   1.00
O13    O     0.12980   0.01040   0.43901   0.01267  Uiso   1.00
O14    O     0.96440   0.19660   0.49585   0.01267  Uiso   1.00
O15    O     0.08030   0.12250   0.38358   0.01267  Uiso   1.00
O16    O     0.90520   0.30040   0.43892   0.01267  Uiso   1.00
O17    O     0.18650   0.54490   0.62256   0.01267  Uiso   1.00
O18    O     0.02900   0.43370   0.66508   0.01267  Uiso   1.00
O19    O     0.41430   0.49150   0.69081   0.01267  Uiso   1.00
O20    O     0.67800   0.41760   0.66912   0.01267  Uiso   1.00
O21    O     0.53960   0.75300   0.19485   0.01267  Uiso   1.00
O22    O     0.41070   0.64320   0.24298   0.01267  Uiso   1.00
O23    O     0.81440   0.63830   0.25057   0.01267  Uiso   1.00
O24    O     0.03060   0.77440   0.26897   0.01267  Uiso   1.00
O25    O     0.37020   0.01040   0.93901   0.01267  Uiso   1.00
O26    O     0.53560   0.19660   0.99585   0.01267  Uiso   1.00
O27    O     0.41970   0.12250   0.88358   0.01267  Uiso   1.00
O28    O     0.59480   0.30040   0.93892   0.01267  Uiso   1.00
O29    O     0.31350   0.54490   0.12256   0.01267  Uiso   1.00
O30    O     0.47100   0.43370   0.16508   0.01267  Uiso   1.00
O31    O     0.08570   0.49150   0.19081   0.01267  Uiso   1.00
O32    O     0.82200   0.41760   0.16912   0.01267  Uiso   1.00
O33    O     0.96040   0.75300   0.69485   0.01267  Uiso   1.00
O34    O     0.08930   0.64320   0.74298   0.01267  Uiso   1.00
O35    O     0.68560   0.63830   0.75057   0.01267  Uiso   1.00
O36    O     0.46940   0.77440   0.76897   0.01267  Uiso   1.00
O37    O     0.87020   0.98960   0.56099   0.01267  Uiso   1.00
O38    O     0.03560   0.80340   0.50415   0.01267  Uiso   1.00
O39    O     0.91970   0.87750   0.61642   0.01267  Uiso   1.00
O40    O     0.09480   0.69960   0.56108   0.01267  Uiso   1.00
O41    O     0.81350   0.45510   0.37744   0.01267  Uiso   1.00
O42    O     0.97100   0.56630   0.33492   0.01267  Uiso   1.00
O43    O     0.58570   0.50850   0.30919   0.01267  Uiso   1.00
O44    O     0.32200   0.58240   0.33088   0.01267  Uiso   1.00
O45    O     0.46040   0.24700   0.80515   0.01267  Uiso   1.00
O46    O     0.58930   0.35680   0.75702   0.01267  Uiso   1.00
O47    O     0.18560   0.36170   0.74943   0.01267  Uiso   1.00
O48    O     0.96940   0.22560   0.73103   0.01267  Uiso   1.00
