data_ZEGSUB_clean
_audit_creation_date              2014-07-02
_audit_creation_method            'Materials Studio'
_symmetry_space_group_name_H-M    'P1'
_symmetry_Int_Tables_number       1
_symmetry_cell_setting            triclinic
loop_
_symmetry_equiv_pos_as_xyz
  x,y,z
_cell_length_a                    15.8546
_cell_length_b                    22.0611
_cell_length_c                    22.0611
_cell_angle_alpha                 82.5812
_cell_angle_beta                  68.9407
_cell_angle_gamma                 68.9407
loop_
_atom_site_label
_atom_site_type_symbol
_atom_site_fract_x
_atom_site_fract_y
_atom_site_fract_z
_atom_site_U_iso_or_equiv
_atom_site_adp_type
_atom_site_occupancy
Ca1    Ca    0.85256   0.07214   0.07214   0.01267  Uiso   1.00
Ca2    Ca    0.09342   0.03628   0.03628   0.01267  Uiso   1.00
Ca3    Ca    0.49684   0.42786   0.42786   0.01267  Uiso   1.00
Ca4    Ca    0.66598   0.46372   0.46372   0.01267  Uiso   1.00
Ca5    Ca    0.42470   0.92786   0.57214   0.01267  Uiso   1.00
Ca6    Ca    0.62970   0.96372   0.53628   0.01267  Uiso   1.00
Ca7    Ca    0.42470   0.57214   0.92786   0.01267  Uiso   1.00
Ca8    Ca    0.62970   0.53628   0.96372   0.01267  Uiso   1.00
Ca9    Ca    0.50316   0.57214   0.57214   0.01267  Uiso   1.00
Ca10   Ca    0.33402   0.53628   0.53628   0.01267  Uiso   1.00
Ca11   Ca    0.14744   0.92786   0.92786   0.01267  Uiso   1.00
Ca12   Ca    0.90658   0.96372   0.96372   0.01267  Uiso   1.00
Ca13   Ca    0.57530   0.07214   0.42786   0.01267  Uiso   1.00
Ca14   Ca    0.37030   0.03628   0.46372   0.01267  Uiso   1.00
Ca15   Ca    0.57530   0.42786   0.07214   0.01267  Uiso   1.00
Ca16   Ca    0.37030   0.46372   0.03628   0.01267  Uiso   1.00
Ca17   Ca    0.68630   0.12740   0.25000   0.01267  Uiso   1.00
Ca18   Ca    0.56370   0.37260   0.25000   0.01267  Uiso   1.00
Ca19   Ca    0.43630   0.75000   0.62740   0.01267  Uiso   1.00
Ca20   Ca    0.31370   0.75000   0.87260   0.01267  Uiso   1.00
Ca21   Ca    0.31370   0.87260   0.75000   0.01267  Uiso   1.00
Ca22   Ca    0.43630   0.62740   0.75000   0.01267  Uiso   1.00
Ca23   Ca    0.56370   0.25000   0.37260   0.01267  Uiso   1.00
Ca24   Ca    0.68630   0.25000   0.12740   0.01267  Uiso   1.00
H1     H     0.80200   0.98590   0.29870   0.01267  Uiso   1.00
H2     H     0.83056   0.03852   0.32056   0.01267  Uiso   1.00
H3     H     0.98252   0.93385   0.40511   0.01267  Uiso   1.00
H4     H     0.94127   0.00693   0.38573   0.01267  Uiso   1.00
H5     H     0.10158   0.96000   0.31600   0.01267  Uiso   1.00
H6     H     0.99850   0.04213   0.26927   0.01267  Uiso   1.00
H7     H     0.07530   0.99122   0.21578   0.01267  Uiso   1.00
H8     H     0.03002   0.90508   0.18088   0.01267  Uiso   1.00
H9     H     0.92497   0.90323   0.21303   0.01267  Uiso   1.00
H10    H     0.86800   0.86780   0.32940   0.01267  Uiso   1.00
H11    H     0.93720   0.84796   0.37024   0.01267  Uiso   1.00
H12    H     0.14035   0.87415   0.24635   0.01267  Uiso   1.00
H13    H     0.10510   0.85201   0.31899   0.01267  Uiso   1.00
H14    H     0.02845   0.82195   0.25995   0.01267  Uiso   1.00
H15    H     0.58660   0.51410   0.20130   0.01267  Uiso   1.00
H16    H     0.68964   0.46148   0.17944   0.01267  Uiso   1.00
H17    H     0.82148   0.56615   0.09489   0.01267  Uiso   1.00
H18    H     0.83393   0.49307   0.11427   0.01267  Uiso   1.00
H19    H     0.87758   0.54000   0.18400   0.01267  Uiso   1.00
H20    H     0.80990   0.45787   0.23073   0.01267  Uiso   1.00
H21    H     0.78230   0.50878   0.28422   0.01267  Uiso   1.00
H22    H     0.61598   0.59492   0.31912   0.01267  Uiso   1.00
H23    H     0.54123   0.59677   0.28697   0.01267  Uiso   1.00
H24    H     0.56520   0.63220   0.17060   0.01267  Uiso   1.00
H25    H     0.65540   0.65204   0.12976   0.01267  Uiso   1.00
H26    H     0.76085   0.62585   0.25365   0.01267  Uiso   1.00
H27    H     0.77610   0.64799   0.18101   0.01267  Uiso   1.00
H28    H     0.61035   0.67805   0.24005   0.01267  Uiso   1.00
H29    H     0.60070   0.70130   0.48590   0.01267  Uiso   1.00
H30    H     0.65112   0.67944   0.53852   0.01267  Uiso   1.00
H31    H     0.88763   0.59489   0.43385   0.01267  Uiso   1.00
H32    H     0.82700   0.61427   0.50693   0.01267  Uiso   1.00
H33    H     0.91758   0.68400   0.46000   0.01267  Uiso   1.00
H34    H     0.76777   0.73073   0.54213   0.01267  Uiso   1.00
H35    H     0.79108   0.78422   0.49122   0.01267  Uiso   1.00
H36    H     0.71090   0.81912   0.40508   0.01267  Uiso   1.00
H37    H     0.63800   0.78697   0.40323   0.01267  Uiso   1.00
H38    H     0.69740   0.67060   0.36780   0.01267  Uiso   1.00
H39    H     0.80744   0.62976   0.34796   0.01267  Uiso   1.00
H40    H     0.88670   0.75365   0.37415   0.01267  Uiso   1.00
H41    H     0.92409   0.68101   0.35201   0.01267  Uiso   1.00
H42    H     0.78840   0.74005   0.32195   0.01267  Uiso   1.00
H43    H     0.28790   0.79870   0.01410   0.01267  Uiso   1.00
H44    H     0.36908   0.82056   0.96148   0.01267  Uiso   1.00
H45    H     0.41637   0.90511   0.06615   0.01267  Uiso   1.00
H46    H     0.44820   0.88573   0.99307   0.01267  Uiso   1.00
H47    H     0.56158   0.81600   0.04000   0.01267  Uiso   1.00
H48    H     0.54063   0.76927   0.95787   0.01267  Uiso   1.00
H49    H     0.56652   0.71578   0.00878   0.01267  Uiso   1.00
H50    H     0.43510   0.68088   0.09492   0.01267  Uiso   1.00
H51    H     0.32820   0.71303   0.09677   0.01267  Uiso   1.00
H52    H     0.23580   0.82940   0.13220   0.01267  Uiso   1.00
H53    H     0.28516   0.87024   0.15204   0.01267  Uiso   1.00
H54    H     0.51450   0.74635   0.12585   0.01267  Uiso   1.00
H55    H     0.45711   0.81899   0.14799   0.01267  Uiso   1.00
H56    H     0.35040   0.75995   0.17805   0.01267  Uiso   1.00
H57    H     0.41340   0.79870   0.48590   0.01267  Uiso   1.00
H58    H     0.31036   0.82056   0.53852   0.01267  Uiso   1.00
H59    H     0.17852   0.90511   0.43385   0.01267  Uiso   1.00
H60    H     0.16607   0.88573   0.50693   0.01267  Uiso   1.00
H61    H     0.12242   0.81600   0.46000   0.01267  Uiso   1.00
H62    H     0.19010   0.76927   0.54213   0.01267  Uiso   1.00
H63    H     0.21770   0.71578   0.49122   0.01267  Uiso   1.00
H64    H     0.38402   0.68088   0.40508   0.01267  Uiso   1.00
H65    H     0.45877   0.71303   0.40323   0.01267  Uiso   1.00
H66    H     0.43480   0.82940   0.36780   0.01267  Uiso   1.00
H67    H     0.34460   0.87024   0.34796   0.01267  Uiso   1.00
H68    H     0.23915   0.74635   0.37415   0.01267  Uiso   1.00
H69    H     0.22390   0.81899   0.35201   0.01267  Uiso   1.00
H70    H     0.38965   0.75995   0.32195   0.01267  Uiso   1.00
H71    H     0.19800   0.70130   0.01410   0.01267  Uiso   1.00
H72    H     0.16944   0.67944   0.96148   0.01267  Uiso   1.00
H73    H     0.01748   0.59489   0.06615   0.01267  Uiso   1.00
H74    H     0.05873   0.61427   0.99307   0.01267  Uiso   1.00
H75    H     0.89842   0.68400   0.04000   0.01267  Uiso   1.00
H76    H     0.00150   0.73073   0.95787   0.01267  Uiso   1.00
H77    H     0.92470   0.78422   0.00878   0.01267  Uiso   1.00
H78    H     0.96998   0.81912   0.09492   0.01267  Uiso   1.00
H79    H     0.07503   0.78697   0.09677   0.01267  Uiso   1.00
H80    H     0.13200   0.67060   0.13220   0.01267  Uiso   1.00
H81    H     0.06280   0.62976   0.15204   0.01267  Uiso   1.00
H82    H     0.85965   0.75365   0.12585   0.01267  Uiso   1.00
H83    H     0.89490   0.68101   0.14799   0.01267  Uiso   1.00
H84    H     0.97155   0.74005   0.17805   0.01267  Uiso   1.00
H85    H     0.71210   0.98590   0.20130   0.01267  Uiso   1.00
H86    H     0.63092   0.03852   0.17944   0.01267  Uiso   1.00
H87    H     0.58363   0.93385   0.09489   0.01267  Uiso   1.00
H88    H     0.55180   0.00693   0.11427   0.01267  Uiso   1.00
H89    H     0.43842   0.96000   0.18400   0.01267  Uiso   1.00
H90    H     0.45937   0.04213   0.23073   0.01267  Uiso   1.00
H91    H     0.43348   0.99122   0.28422   0.01267  Uiso   1.00
H92    H     0.56490   0.90508   0.31912   0.01267  Uiso   1.00
H93    H     0.67180   0.90323   0.28697   0.01267  Uiso   1.00
H94    H     0.76420   0.86780   0.17060   0.01267  Uiso   1.00
H95    H     0.71484   0.84796   0.12976   0.01267  Uiso   1.00
H96    H     0.48550   0.87415   0.25365   0.01267  Uiso   1.00
H97    H     0.54289   0.85201   0.18101   0.01267  Uiso   1.00
H98    H     0.64960   0.82195   0.24005   0.01267  Uiso   1.00
H99    H     0.39930   0.51410   0.29870   0.01267  Uiso   1.00
H100   H     0.34888   0.46148   0.32056   0.01267  Uiso   1.00
H101   H     0.11237   0.56615   0.40511   0.01267  Uiso   1.00
H102   H     0.17300   0.49307   0.38573   0.01267  Uiso   1.00
H103   H     0.08242   0.54000   0.31600   0.01267  Uiso   1.00
H104   H     0.23223   0.45787   0.26927   0.01267  Uiso   1.00
H105   H     0.20892   0.50878   0.21578   0.01267  Uiso   1.00
H106   H     0.28910   0.59492   0.18088   0.01267  Uiso   1.00
H107   H     0.36200   0.59677   0.21303   0.01267  Uiso   1.00
H108   H     0.30260   0.63220   0.32940   0.01267  Uiso   1.00
H109   H     0.19256   0.65204   0.37024   0.01267  Uiso   1.00
H110   H     0.11330   0.62585   0.24635   0.01267  Uiso   1.00
H111   H     0.07591   0.64799   0.31899   0.01267  Uiso   1.00
H112   H     0.21160   0.67805   0.25995   0.01267  Uiso   1.00
H113   H     0.19800   0.01410   0.70130   0.01267  Uiso   1.00
H114   H     0.16944   0.96148   0.67944   0.01267  Uiso   1.00
H115   H     0.01748   0.06615   0.59489   0.01267  Uiso   1.00
H116   H     0.05873   0.99307   0.61427   0.01267  Uiso   1.00
H117   H     0.89842   0.04000   0.68400   0.01267  Uiso   1.00
H118   H     0.00150   0.95787   0.73073   0.01267  Uiso   1.00
H119   H     0.92470   0.00878   0.78422   0.01267  Uiso   1.00
H120   H     0.96998   0.09492   0.81912   0.01267  Uiso   1.00
H121   H     0.07503   0.09677   0.78697   0.01267  Uiso   1.00
H122   H     0.13200   0.13220   0.67060   0.01267  Uiso   1.00
H123   H     0.06280   0.15204   0.62976   0.01267  Uiso   1.00
H124   H     0.85965   0.12585   0.75365   0.01267  Uiso   1.00
H125   H     0.89490   0.14799   0.68101   0.01267  Uiso   1.00
H126   H     0.97155   0.17805   0.74005   0.01267  Uiso   1.00
H127   H     0.41340   0.48590   0.79870   0.01267  Uiso   1.00
H128   H     0.31036   0.53852   0.82056   0.01267  Uiso   1.00
H129   H     0.17852   0.43385   0.90511   0.01267  Uiso   1.00
H130   H     0.16607   0.50693   0.88573   0.01267  Uiso   1.00
H131   H     0.12242   0.46000   0.81600   0.01267  Uiso   1.00
H132   H     0.19010   0.54213   0.76927   0.01267  Uiso   1.00
H133   H     0.21770   0.49122   0.71578   0.01267  Uiso   1.00
H134   H     0.38402   0.40508   0.68088   0.01267  Uiso   1.00
H135   H     0.45877   0.40323   0.71303   0.01267  Uiso   1.00
H136   H     0.43480   0.36780   0.82940   0.01267  Uiso   1.00
H137   H     0.34460   0.34796   0.87024   0.01267  Uiso   1.00
H138   H     0.23915   0.37415   0.74635   0.01267  Uiso   1.00
H139   H     0.22390   0.35201   0.81899   0.01267  Uiso   1.00
H140   H     0.38965   0.32195   0.75995   0.01267  Uiso   1.00
H141   H     0.39930   0.29870   0.51410   0.01267  Uiso   1.00
H142   H     0.34888   0.32056   0.46148   0.01267  Uiso   1.00
H143   H     0.11237   0.40511   0.56615   0.01267  Uiso   1.00
H144   H     0.17300   0.38573   0.49307   0.01267  Uiso   1.00
H145   H     0.08242   0.31600   0.54000   0.01267  Uiso   1.00
H146   H     0.23223   0.26927   0.45787   0.01267  Uiso   1.00
H147   H     0.20892   0.21578   0.50878   0.01267  Uiso   1.00
H148   H     0.28910   0.18088   0.59492   0.01267  Uiso   1.00
H149   H     0.36200   0.21303   0.59677   0.01267  Uiso   1.00
H150   H     0.30260   0.32940   0.63220   0.01267  Uiso   1.00
H151   H     0.19256   0.37024   0.65204   0.01267  Uiso   1.00
H152   H     0.11330   0.24635   0.62585   0.01267  Uiso   1.00
H153   H     0.07591   0.31899   0.64799   0.01267  Uiso   1.00
H154   H     0.21160   0.25995   0.67805   0.01267  Uiso   1.00
H155   H     0.71210   0.20130   0.98590   0.01267  Uiso   1.00
H156   H     0.63092   0.17944   0.03852   0.01267  Uiso   1.00
H157   H     0.58363   0.09489   0.93385   0.01267  Uiso   1.00
H158   H     0.55180   0.11427   0.00693   0.01267  Uiso   1.00
H159   H     0.43842   0.18400   0.96000   0.01267  Uiso   1.00
H160   H     0.45937   0.23073   0.04213   0.01267  Uiso   1.00
H161   H     0.43348   0.28422   0.99122   0.01267  Uiso   1.00
H162   H     0.56490   0.31912   0.90508   0.01267  Uiso   1.00
H163   H     0.67180   0.28697   0.90323   0.01267  Uiso   1.00
H164   H     0.76420   0.17060   0.86780   0.01267  Uiso   1.00
H165   H     0.71484   0.12976   0.84796   0.01267  Uiso   1.00
H166   H     0.48550   0.25365   0.87415   0.01267  Uiso   1.00
H167   H     0.54289   0.18101   0.85201   0.01267  Uiso   1.00
H168   H     0.64960   0.24005   0.82195   0.01267  Uiso   1.00
H169   H     0.58660   0.20130   0.51410   0.01267  Uiso   1.00
H170   H     0.68964   0.17944   0.46148   0.01267  Uiso   1.00
H171   H     0.82148   0.09489   0.56615   0.01267  Uiso   1.00
H172   H     0.83393   0.11427   0.49307   0.01267  Uiso   1.00
H173   H     0.87758   0.18400   0.54000   0.01267  Uiso   1.00
H174   H     0.80990   0.23073   0.45787   0.01267  Uiso   1.00
H175   H     0.78230   0.28422   0.50878   0.01267  Uiso   1.00
H176   H     0.61598   0.31912   0.59492   0.01267  Uiso   1.00
H177   H     0.54123   0.28697   0.59677   0.01267  Uiso   1.00
H178   H     0.56520   0.17060   0.63220   0.01267  Uiso   1.00
H179   H     0.65540   0.12976   0.65204   0.01267  Uiso   1.00
H180   H     0.76085   0.25365   0.62585   0.01267  Uiso   1.00
H181   H     0.77610   0.18101   0.64799   0.01267  Uiso   1.00
H182   H     0.61035   0.24005   0.67805   0.01267  Uiso   1.00
H183   H     0.80200   0.29870   0.98590   0.01267  Uiso   1.00
H184   H     0.83056   0.32056   0.03852   0.01267  Uiso   1.00
H185   H     0.98252   0.40511   0.93385   0.01267  Uiso   1.00
H186   H     0.94127   0.38573   0.00693   0.01267  Uiso   1.00
H187   H     0.10158   0.31600   0.96000   0.01267  Uiso   1.00
H188   H     0.99850   0.26927   0.04213   0.01267  Uiso   1.00
H189   H     0.07530   0.21578   0.99122   0.01267  Uiso   1.00
H190   H     0.03002   0.18088   0.90508   0.01267  Uiso   1.00
H191   H     0.92497   0.21303   0.90323   0.01267  Uiso   1.00
H192   H     0.86800   0.32940   0.86780   0.01267  Uiso   1.00
H193   H     0.93720   0.37024   0.84796   0.01267  Uiso   1.00
H194   H     0.14035   0.24635   0.87415   0.01267  Uiso   1.00
H195   H     0.10510   0.31899   0.85201   0.01267  Uiso   1.00
H196   H     0.02845   0.25995   0.82195   0.01267  Uiso   1.00
H197   H     0.28790   0.01410   0.79870   0.01267  Uiso   1.00
H198   H     0.36908   0.96148   0.82056   0.01267  Uiso   1.00
H199   H     0.41637   0.06615   0.90511   0.01267  Uiso   1.00
H200   H     0.44820   0.99307   0.88573   0.01267  Uiso   1.00
H201   H     0.56158   0.04000   0.81600   0.01267  Uiso   1.00
H202   H     0.54063   0.95787   0.76927   0.01267  Uiso   1.00
H203   H     0.56652   0.00878   0.71578   0.01267  Uiso   1.00
H204   H     0.43510   0.09492   0.68088   0.01267  Uiso   1.00
H205   H     0.32820   0.09677   0.71303   0.01267  Uiso   1.00
H206   H     0.23580   0.13220   0.82940   0.01267  Uiso   1.00
H207   H     0.28516   0.15204   0.87024   0.01267  Uiso   1.00
H208   H     0.51450   0.12585   0.74635   0.01267  Uiso   1.00
H209   H     0.45711   0.14799   0.81899   0.01267  Uiso   1.00
H210   H     0.35040   0.17805   0.75995   0.01267  Uiso   1.00
H211   H     0.60070   0.48590   0.70130   0.01267  Uiso   1.00
H212   H     0.65112   0.53852   0.67944   0.01267  Uiso   1.00
H213   H     0.88763   0.43385   0.59489   0.01267  Uiso   1.00
H214   H     0.82700   0.50693   0.61427   0.01267  Uiso   1.00
H215   H     0.91758   0.46000   0.68400   0.01267  Uiso   1.00
H216   H     0.76777   0.54213   0.73073   0.01267  Uiso   1.00
H217   H     0.79108   0.49122   0.78422   0.01267  Uiso   1.00
H218   H     0.71090   0.40508   0.81912   0.01267  Uiso   1.00
H219   H     0.63800   0.40323   0.78697   0.01267  Uiso   1.00
H220   H     0.69740   0.36780   0.67060   0.01267  Uiso   1.00
H221   H     0.80744   0.34796   0.62976   0.01267  Uiso   1.00
H222   H     0.88670   0.37415   0.75365   0.01267  Uiso   1.00
H223   H     0.92409   0.35201   0.68101   0.01267  Uiso   1.00
H224   H     0.78840   0.32195   0.74005   0.01267  Uiso   1.00
C1     C     0.93964   0.98380   0.24292   0.01267  Uiso   1.00
C2     C     0.85369   0.99389   0.30633   0.01267  Uiso   1.00
C3     C     0.88201   0.94812   0.35946   0.01267  Uiso   1.00
C4     C     0.96362   0.96234   0.37142   0.01267  Uiso   1.00
C5     C     0.04983   0.95134   0.30824   0.01267  Uiso   1.00
C6     C     0.02052   0.99750   0.25546   0.01267  Uiso   1.00
C7     C     0.97555   0.91231   0.22099   0.01267  Uiso   1.00
C8     C     0.91866   0.87720   0.33688   0.01267  Uiso   1.00
C9     C     0.08527   0.88124   0.28602   0.01267  Uiso   1.00
C10    C     0.00507   0.86712   0.27414   0.01267  Uiso   1.00
C11    C     0.90910   0.02664   0.18996   0.01267  Uiso   1.00
C12    C     0.79620   0.95868   0.42132   0.01267  Uiso   1.00
C13    C     0.66636   0.51620   0.25708   0.01267  Uiso   1.00
C14    C     0.65391   0.50611   0.19367   0.01267  Uiso   1.00
C15    C     0.68959   0.55188   0.14054   0.01267  Uiso   1.00
C16    C     0.79738   0.53766   0.12858   0.01267  Uiso   1.00
C17    C     0.80941   0.54866   0.19176   0.01267  Uiso   1.00
C18    C     0.77348   0.50250   0.24454   0.01267  Uiso   1.00
C19    C     0.60885   0.58769   0.27901   0.01267  Uiso   1.00
C20    C     0.63274   0.62280   0.16312   0.01267  Uiso   1.00
C21    C     0.75253   0.61876   0.21398   0.01267  Uiso   1.00
C22    C     0.64633   0.63288   0.22586   0.01267  Uiso   1.00
C23    C     0.62570   0.47336   0.31004   0.01267  Uiso   1.00
C24    C     0.67620   0.54132   0.07868   0.01267  Uiso   1.00
C25    C     0.68256   0.75708   0.48380   0.01267  Uiso   1.00
C26    C     0.66002   0.69367   0.49389   0.01267  Uiso   1.00
C27    C     0.74147   0.64054   0.44812   0.01267  Uiso   1.00
C28    C     0.83504   0.62858   0.46234   0.01267  Uiso   1.00
C29    C     0.85807   0.69176   0.45134   0.01267  Uiso   1.00
C30    C     0.77598   0.74454   0.49750   0.01267  Uiso   1.00
C31    C     0.69654   0.77901   0.41231   0.01267  Uiso   1.00
C32    C     0.75554   0.66312   0.37720   0.01267  Uiso   1.00
C33    C     0.87129   0.71398   0.38124   0.01267  Uiso   1.00
C34    C     0.77921   0.72586   0.36712   0.01267  Uiso   1.00
C35    C     0.59906   0.81004   0.52664   0.01267  Uiso   1.00
C36    C     0.71752   0.57868   0.45868   0.01267  Uiso   1.00
C37    C     0.42344   0.74292   0.01620   0.01267  Uiso   1.00
C38    C     0.34758   0.80633   0.00611   0.01267  Uiso   1.00
C39    C     0.33013   0.85946   0.05188   0.01267  Uiso   1.00
C40    C     0.42596   0.87142   0.03766   0.01267  Uiso   1.00
C41    C     0.50117   0.80824   0.04866   0.01267  Uiso   1.00
C42    C     0.51802   0.75546   0.00250   0.01267  Uiso   1.00
C43    C     0.38786   0.72099   0.08769   0.01267  Uiso   1.00
C44    C     0.29586   0.83688   0.12280   0.01267  Uiso   1.00
C45    C     0.46651   0.78602   0.11876   0.01267  Uiso   1.00
C46    C     0.37219   0.77414   0.13288   0.01267  Uiso   1.00
C47    C     0.43574   0.68996   0.97336   0.01267  Uiso   1.00
C48    C     0.25488   0.92132   0.04132   0.01267  Uiso   1.00
C49    C     0.33364   0.74292   0.48380   0.01267  Uiso   1.00
C50    C     0.34609   0.80633   0.49389   0.01267  Uiso   1.00
C51    C     0.31041   0.85946   0.44812   0.01267  Uiso   1.00
C52    C     0.20262   0.87142   0.46234   0.01267  Uiso   1.00
C53    C     0.19059   0.80824   0.45134   0.01267  Uiso   1.00
C54    C     0.22652   0.75546   0.49750   0.01267  Uiso   1.00
C55    C     0.39115   0.72099   0.41231   0.01267  Uiso   1.00
C56    C     0.36726   0.83688   0.37720   0.01267  Uiso   1.00
C57    C     0.24747   0.78602   0.38124   0.01267  Uiso   1.00
C58    C     0.35367   0.77414   0.36712   0.01267  Uiso   1.00
C59    C     0.37430   0.68996   0.52664   0.01267  Uiso   1.00
C60    C     0.32380   0.92132   0.45868   0.01267  Uiso   1.00
C61    C     0.06036   0.75708   0.01620   0.01267  Uiso   1.00
C62    C     0.14631   0.69367   0.00611   0.01267  Uiso   1.00
C63    C     0.11799   0.64054   0.05188   0.01267  Uiso   1.00
C64    C     0.03638   0.62858   0.03766   0.01267  Uiso   1.00
C65    C     0.95017   0.69176   0.04866   0.01267  Uiso   1.00
C66    C     0.97948   0.74454   0.00250   0.01267  Uiso   1.00
C67    C     0.02445   0.77901   0.08769   0.01267  Uiso   1.00
C68    C     0.08134   0.66312   0.12280   0.01267  Uiso   1.00
C69    C     0.91473   0.71398   0.11876   0.01267  Uiso   1.00
C70    C     0.99493   0.72586   0.13288   0.01267  Uiso   1.00
C71    C     0.09090   0.81004   0.97336   0.01267  Uiso   1.00
C72    C     0.20380   0.57868   0.04132   0.01267  Uiso   1.00
C73    C     0.57656   0.98380   0.25708   0.01267  Uiso   1.00
C74    C     0.65242   0.99389   0.19367   0.01267  Uiso   1.00
C75    C     0.66987   0.94812   0.14054   0.01267  Uiso   1.00
C76    C     0.57404   0.96234   0.12858   0.01267  Uiso   1.00
C77    C     0.49883   0.95134   0.19176   0.01267  Uiso   1.00
C78    C     0.48198   0.99750   0.24454   0.01267  Uiso   1.00
C79    C     0.61214   0.91231   0.27901   0.01267  Uiso   1.00
C80    C     0.70414   0.87720   0.16312   0.01267  Uiso   1.00
C81    C     0.53349   0.88124   0.21398   0.01267  Uiso   1.00
C82    C     0.62781   0.86712   0.22586   0.01267  Uiso   1.00
C83    C     0.56426   0.02664   0.31004   0.01267  Uiso   1.00
C84    C     0.74512   0.95868   0.07868   0.01267  Uiso   1.00
C85    C     0.31744   0.51620   0.24292   0.01267  Uiso   1.00
C86    C     0.33998   0.50611   0.30633   0.01267  Uiso   1.00
C87    C     0.25853   0.55188   0.35946   0.01267  Uiso   1.00
C88    C     0.16496   0.53766   0.37142   0.01267  Uiso   1.00
C89    C     0.14193   0.54866   0.30824   0.01267  Uiso   1.00
C90    C     0.22402   0.50250   0.25546   0.01267  Uiso   1.00
C91    C     0.30346   0.58769   0.22099   0.01267  Uiso   1.00
C92    C     0.24446   0.62280   0.33688   0.01267  Uiso   1.00
C93    C     0.12871   0.61876   0.28602   0.01267  Uiso   1.00
C94    C     0.22079   0.63288   0.27414   0.01267  Uiso   1.00
C95    C     0.40094   0.47336   0.18996   0.01267  Uiso   1.00
C96    C     0.28248   0.54132   0.42132   0.01267  Uiso   1.00
C97    C     0.06036   0.01620   0.75708   0.01267  Uiso   1.00
C98    C     0.14631   0.00611   0.69367   0.01267  Uiso   1.00
C99    C     0.11799   0.05188   0.64054   0.01267  Uiso   1.00
C100   C     0.03638   0.03766   0.62858   0.01267  Uiso   1.00
C101   C     0.95017   0.04866   0.69176   0.01267  Uiso   1.00
C102   C     0.97948   0.00250   0.74454   0.01267  Uiso   1.00
C103   C     0.02445   0.08769   0.77901   0.01267  Uiso   1.00
C104   C     0.08134   0.12280   0.66312   0.01267  Uiso   1.00
C105   C     0.91473   0.11876   0.71398   0.01267  Uiso   1.00
C106   C     0.99493   0.13288   0.72586   0.01267  Uiso   1.00
C107   C     0.09090   0.97336   0.81004   0.01267  Uiso   1.00
C108   C     0.20380   0.04132   0.57868   0.01267  Uiso   1.00
C109   C     0.33364   0.48380   0.74292   0.01267  Uiso   1.00
C110   C     0.34609   0.49389   0.80633   0.01267  Uiso   1.00
C111   C     0.31041   0.44812   0.85946   0.01267  Uiso   1.00
C112   C     0.20262   0.46234   0.87142   0.01267  Uiso   1.00
C113   C     0.19059   0.45134   0.80824   0.01267  Uiso   1.00
C114   C     0.22652   0.49750   0.75546   0.01267  Uiso   1.00
C115   C     0.39115   0.41231   0.72099   0.01267  Uiso   1.00
C116   C     0.36726   0.37720   0.83688   0.01267  Uiso   1.00
C117   C     0.24747   0.38124   0.78602   0.01267  Uiso   1.00
C118   C     0.35367   0.36712   0.77414   0.01267  Uiso   1.00
C119   C     0.37430   0.52664   0.68996   0.01267  Uiso   1.00
C120   C     0.32380   0.45868   0.92132   0.01267  Uiso   1.00
C121   C     0.31744   0.24292   0.51620   0.01267  Uiso   1.00
C122   C     0.33998   0.30633   0.50611   0.01267  Uiso   1.00
C123   C     0.25853   0.35946   0.55188   0.01267  Uiso   1.00
C124   C     0.16496   0.37142   0.53766   0.01267  Uiso   1.00
C125   C     0.14193   0.30824   0.54866   0.01267  Uiso   1.00
C126   C     0.22402   0.25546   0.50250   0.01267  Uiso   1.00
C127   C     0.30346   0.22099   0.58769   0.01267  Uiso   1.00
C128   C     0.24446   0.33688   0.62280   0.01267  Uiso   1.00
C129   C     0.12871   0.28602   0.61876   0.01267  Uiso   1.00
C130   C     0.22079   0.27414   0.63288   0.01267  Uiso   1.00
C131   C     0.40094   0.18996   0.47336   0.01267  Uiso   1.00
C132   C     0.28248   0.42132   0.54132   0.01267  Uiso   1.00
C133   C     0.57656   0.25708   0.98380   0.01267  Uiso   1.00
C134   C     0.65242   0.19367   0.99389   0.01267  Uiso   1.00
C135   C     0.66987   0.14054   0.94812   0.01267  Uiso   1.00
C136   C     0.57404   0.12858   0.96234   0.01267  Uiso   1.00
C137   C     0.49883   0.19176   0.95134   0.01267  Uiso   1.00
C138   C     0.48198   0.24454   0.99750   0.01267  Uiso   1.00
C139   C     0.61214   0.27901   0.91231   0.01267  Uiso   1.00
C140   C     0.70414   0.16312   0.87720   0.01267  Uiso   1.00
C141   C     0.53349   0.21398   0.88124   0.01267  Uiso   1.00
C142   C     0.62781   0.22586   0.86712   0.01267  Uiso   1.00
C143   C     0.56426   0.31004   0.02664   0.01267  Uiso   1.00
C144   C     0.74512   0.07868   0.95868   0.01267  Uiso   1.00
C145   C     0.66636   0.25708   0.51620   0.01267  Uiso   1.00
C146   C     0.65391   0.19367   0.50611   0.01267  Uiso   1.00
C147   C     0.68959   0.14054   0.55188   0.01267  Uiso   1.00
C148   C     0.79738   0.12858   0.53766   0.01267  Uiso   1.00
C149   C     0.80941   0.19176   0.54866   0.01267  Uiso   1.00
C150   C     0.77348   0.24454   0.50250   0.01267  Uiso   1.00
C151   C     0.60885   0.27901   0.58769   0.01267  Uiso   1.00
C152   C     0.63274   0.16312   0.62280   0.01267  Uiso   1.00
C153   C     0.75253   0.21398   0.61876   0.01267  Uiso   1.00
C154   C     0.64633   0.22586   0.63288   0.01267  Uiso   1.00
C155   C     0.62570   0.31004   0.47336   0.01267  Uiso   1.00
C156   C     0.67620   0.07868   0.54132   0.01267  Uiso   1.00
C157   C     0.93964   0.24292   0.98380   0.01267  Uiso   1.00
C158   C     0.85369   0.30633   0.99389   0.01267  Uiso   1.00
C159   C     0.88201   0.35946   0.94812   0.01267  Uiso   1.00
C160   C     0.96362   0.37142   0.96234   0.01267  Uiso   1.00
C161   C     0.04983   0.30824   0.95134   0.01267  Uiso   1.00
C162   C     0.02052   0.25546   0.99750   0.01267  Uiso   1.00
C163   C     0.97555   0.22099   0.91231   0.01267  Uiso   1.00
C164   C     0.91866   0.33688   0.87720   0.01267  Uiso   1.00
C165   C     0.08527   0.28602   0.88124   0.01267  Uiso   1.00
C166   C     0.00507   0.27414   0.86712   0.01267  Uiso   1.00
C167   C     0.90910   0.18996   0.02664   0.01267  Uiso   1.00
C168   C     0.79620   0.42132   0.95868   0.01267  Uiso   1.00
C169   C     0.42344   0.01620   0.74292   0.01267  Uiso   1.00
C170   C     0.34758   0.00611   0.80633   0.01267  Uiso   1.00
C171   C     0.33013   0.05188   0.85946   0.01267  Uiso   1.00
C172   C     0.42596   0.03766   0.87142   0.01267  Uiso   1.00
C173   C     0.50117   0.04866   0.80824   0.01267  Uiso   1.00
C174   C     0.51802   0.00250   0.75546   0.01267  Uiso   1.00
C175   C     0.38786   0.08769   0.72099   0.01267  Uiso   1.00
C176   C     0.29586   0.12280   0.83688   0.01267  Uiso   1.00
C177   C     0.46651   0.11876   0.78602   0.01267  Uiso   1.00
C178   C     0.37219   0.13288   0.77414   0.01267  Uiso   1.00
C179   C     0.43574   0.97336   0.68996   0.01267  Uiso   1.00
C180   C     0.25488   0.04132   0.92132   0.01267  Uiso   1.00
C181   C     0.68256   0.48380   0.75708   0.01267  Uiso   1.00
C182   C     0.66002   0.49389   0.69367   0.01267  Uiso   1.00
C183   C     0.74147   0.44812   0.64054   0.01267  Uiso   1.00
C184   C     0.83504   0.46234   0.62858   0.01267  Uiso   1.00
C185   C     0.85807   0.45134   0.69176   0.01267  Uiso   1.00
C186   C     0.77598   0.49750   0.74454   0.01267  Uiso   1.00
C187   C     0.69654   0.41231   0.77901   0.01267  Uiso   1.00
C188   C     0.75554   0.37720   0.66312   0.01267  Uiso   1.00
C189   C     0.87129   0.38124   0.71398   0.01267  Uiso   1.00
C190   C     0.77921   0.36712   0.72586   0.01267  Uiso   1.00
C191   C     0.59906   0.52664   0.81004   0.01267  Uiso   1.00
C192   C     0.71752   0.45868   0.57868   0.01267  Uiso   1.00
C193   C     0.50923   0.25000   0.25000   0.01267  Uiso   1.00
C194   C     0.25923   0.75000   0.75000   0.01267  Uiso   1.00
C195   C     0.49077   0.75000   0.75000   0.01267  Uiso   1.00
C196   C     0.74077   0.25000   0.25000   0.01267  Uiso   1.00
O1     O     0.97740   0.02730   0.13170   0.01267  Uiso   1.00
O2     O     0.83060   0.06930   0.18950   0.01267  Uiso   1.00
O3     O     0.71580   0.97990   0.41390   0.01267  Uiso   1.00
O4     O     0.80600   0.92950   0.47650   0.01267  Uiso   1.00
O5     O     0.63640   0.47270   0.36830   0.01267  Uiso   1.00
O6     O     0.58940   0.43070   0.31050   0.01267  Uiso   1.00
O7     O     0.60960   0.52010   0.08610   0.01267  Uiso   1.00
O8     O     0.71200   0.57050   0.02350   0.01267  Uiso   1.00
O9     O     0.60910   0.86830   0.52730   0.01267  Uiso   1.00
O10    O     0.52010   0.81050   0.56930   0.01267  Uiso   1.00
O11    O     0.62970   0.58610   0.47990   0.01267  Uiso   1.00
O12    O     0.78250   0.52350   0.42950   0.01267  Uiso   1.00
O13    O     0.50470   0.63170   0.97270   0.01267  Uiso   1.00
O14    O     0.39990   0.68950   0.93070   0.01267  Uiso   1.00
O15    O     0.19570   0.91390   0.02010   0.01267  Uiso   1.00
O16    O     0.23550   0.97650   0.07050   0.01267  Uiso   1.00
O17    O     0.36360   0.63170   0.52730   0.01267  Uiso   1.00
O18    O     0.41060   0.68950   0.56930   0.01267  Uiso   1.00
O19    O     0.39040   0.91390   0.47990   0.01267  Uiso   1.00
O20    O     0.28800   0.97650   0.42950   0.01267  Uiso   1.00
O21    O     0.02260   0.86830   0.97270   0.01267  Uiso   1.00
O22    O     0.16940   0.81050   0.93070   0.01267  Uiso   1.00
O23    O     0.28420   0.58610   0.02010   0.01267  Uiso   1.00
O24    O     0.19400   0.52350   0.07050   0.01267  Uiso   1.00
O25    O     0.49530   0.02730   0.36830   0.01267  Uiso   1.00
O26    O     0.60010   0.06930   0.31050   0.01267  Uiso   1.00
O27    O     0.80430   0.97990   0.08610   0.01267  Uiso   1.00
O28    O     0.76450   0.92950   0.02350   0.01267  Uiso   1.00
O29    O     0.39090   0.47270   0.13170   0.01267  Uiso   1.00
O30    O     0.47990   0.43070   0.18950   0.01267  Uiso   1.00
O31    O     0.37030   0.52010   0.41390   0.01267  Uiso   1.00
O32    O     0.21750   0.57050   0.47650   0.01267  Uiso   1.00
O33    O     0.02260   0.97270   0.86830   0.01267  Uiso   1.00
O34    O     0.16940   0.93070   0.81050   0.01267  Uiso   1.00
O35    O     0.28420   0.02010   0.58610   0.01267  Uiso   1.00
O36    O     0.19400   0.07050   0.52350   0.01267  Uiso   1.00
O37    O     0.36360   0.52730   0.63170   0.01267  Uiso   1.00
O38    O     0.41060   0.56930   0.68950   0.01267  Uiso   1.00
O39    O     0.39040   0.47990   0.91390   0.01267  Uiso   1.00
O40    O     0.28800   0.42950   0.97650   0.01267  Uiso   1.00
O41    O     0.39090   0.13170   0.47270   0.01267  Uiso   1.00
O42    O     0.47990   0.18950   0.43070   0.01267  Uiso   1.00
O43    O     0.37030   0.41390   0.52010   0.01267  Uiso   1.00
O44    O     0.21750   0.47650   0.57050   0.01267  Uiso   1.00
O45    O     0.49530   0.36830   0.02730   0.01267  Uiso   1.00
O46    O     0.60010   0.31050   0.06930   0.01267  Uiso   1.00
O47    O     0.80430   0.08610   0.97990   0.01267  Uiso   1.00
O48    O     0.76450   0.02350   0.92950   0.01267  Uiso   1.00
O49    O     0.63640   0.36830   0.47270   0.01267  Uiso   1.00
O50    O     0.58940   0.31050   0.43070   0.01267  Uiso   1.00
O51    O     0.60960   0.08610   0.52010   0.01267  Uiso   1.00
O52    O     0.71200   0.02350   0.57050   0.01267  Uiso   1.00
O53    O     0.97740   0.13170   0.02730   0.01267  Uiso   1.00
O54    O     0.83060   0.18950   0.06930   0.01267  Uiso   1.00
O55    O     0.71580   0.41390   0.97990   0.01267  Uiso   1.00
O56    O     0.80600   0.47650   0.92950   0.01267  Uiso   1.00
O57    O     0.50470   0.97270   0.63170   0.01267  Uiso   1.00
O58    O     0.39990   0.93070   0.68950   0.01267  Uiso   1.00
O59    O     0.19570   0.02010   0.91390   0.01267  Uiso   1.00
O60    O     0.23550   0.07050   0.97650   0.01267  Uiso   1.00
O61    O     0.60910   0.52730   0.86830   0.01267  Uiso   1.00
O62    O     0.52010   0.56930   0.81050   0.01267  Uiso   1.00
O63    O     0.62970   0.47990   0.58610   0.01267  Uiso   1.00
O64    O     0.78250   0.42950   0.52350   0.01267  Uiso   1.00
O65    O     0.69720   0.14000   0.14000   0.01267  Uiso   1.00
O66    O     0.47720   0.36000   0.36000   0.01267  Uiso   1.00
O67    O     0.33720   0.86000   0.64000   0.01267  Uiso   1.00
O68    O     0.33720   0.64000   0.86000   0.01267  Uiso   1.00
O69    O     0.52280   0.64000   0.64000   0.01267  Uiso   1.00
O70    O     0.30280   0.86000   0.86000   0.01267  Uiso   1.00
O71    O     0.66280   0.14000   0.36000   0.01267  Uiso   1.00
O72    O     0.66280   0.36000   0.14000   0.01267  Uiso   1.00
O73    O     0.43354   0.25000   0.25000   0.01267  Uiso   1.00
O74    O     0.18354   0.75000   0.75000   0.01267  Uiso   1.00
O75    O     0.56646   0.75000   0.75000   0.01267  Uiso   1.00
O76    O     0.81646   0.25000   0.25000   0.01267  Uiso   1.00
O77    O     0.54707   0.21431   0.28569   0.01267  Uiso   1.00
O78    O     0.54707   0.28569   0.21431   0.01267  Uiso   1.00
O79    O     0.33276   0.71431   0.71431   0.01267  Uiso   1.00
O80    O     0.26138   0.78569   0.78569   0.01267  Uiso   1.00
O81    O     0.45293   0.78569   0.71431   0.01267  Uiso   1.00
O82    O     0.45293   0.71431   0.78569   0.01267  Uiso   1.00
O83    O     0.73862   0.21431   0.21431   0.01267  Uiso   1.00
O84    O     0.66724   0.28569   0.28569   0.01267  Uiso   1.00
