data_image0
_cell_length_a       12.093
_cell_length_b       14.897
_cell_length_c       11.849
_cell_angle_alpha    90
_cell_angle_beta     97.821
_cell_angle_gamma    90

_symmetry_space_group_name_H-M    "P 1"
_symmetry_int_tables_number       1

loop_
  _symmetry_equiv_pos_as_xyz
  'x, y, z'

loop_
  _atom_site_label
  _atom_site_occupancy
  _atom_site_fract_x
  _atom_site_fract_y
  _atom_site_fract_z
  _atom_site_thermal_displace_type
  _atom_site_B_iso_or_equiv
  _atom_site_type_symbol
  Zn1      1.0000 0.90416  0.23676  0.08895  Biso   1.000  Zn
  Zn2      1.0000 0.79552  0.11355  0.54378  Biso   1.000  Zn
  P1       1.0000 0.83020  0.23830  0.34462  Biso   1.000  P
  P2       1.0000 0.74770  0.41102  0.03719  Biso   1.000  P
  O1       1.0000 0.83950  0.34540  0.01960  Biso   1.000  O
  O2       1.0000 0.84790  0.20223  0.22680  Biso   1.000  O
  O3       1.0000 0.94070  0.25110  0.42210  Biso   1.000  O
  O4       1.0000 0.86610  0.13360  0.98730  Biso   1.000  O
  O5       1.0000 0.75700  0.16948  0.39770  Biso   1.000  O
  O6       1.0000 0.76470  0.32822  0.32980  Biso   1.000  O
  O7       1.0000 0.76160  0.49210  0.96300  Biso   1.000  O
  O8       1.0000 0.76070  0.44540  0.16410  Biso   1.000  O
  H1       1.0000 0.76200  0.40500  0.21300  Biso   1.000  H
  Zn3      1.0000 0.40416  0.73676  0.08895  Biso   1.000  Zn
  Zn4      1.0000 0.29552  0.61355  0.54378  Biso   1.000  Zn
  P3       1.0000 0.33020  0.73830  0.34462  Biso   1.000  P
  P4       1.0000 0.24770  0.91102  0.03719  Biso   1.000  P
  O9       1.0000 0.33950  0.84540  0.01960  Biso   1.000  O
  O10      1.0000 0.34790  0.70223  0.22680  Biso   1.000  O
  O11      1.0000 0.44070  0.75110  0.42210  Biso   1.000  O
  O12      1.0000 0.36610  0.63360  0.98730  Biso   1.000  O
  O13      1.0000 0.25700  0.66948  0.39770  Biso   1.000  O
  O14      1.0000 0.26470  0.82822  0.32980  Biso   1.000  O
  O15      1.0000 0.26160  0.99210  0.96300  Biso   1.000  O
  O16      1.0000 0.26070  0.94540  0.16410  Biso   1.000  O
  H2       1.0000 0.26200  0.90500  0.21300  Biso   1.000  H
  Zn5      1.0000 0.09584  0.23676  0.41105  Biso   1.000  Zn
  Zn6      1.0000 0.20448  0.11355  0.95622  Biso   1.000  Zn
  P5       1.0000 0.16980  0.23830  0.15538  Biso   1.000  P
  P6       1.0000 0.25230  0.41102  0.46281  Biso   1.000  P
  O17      1.0000 0.16050  0.34540  0.48040  Biso   1.000  O
  O18      1.0000 0.15210  0.20223  0.27320  Biso   1.000  O
  O19      1.0000 0.05930  0.25110  0.07790  Biso   1.000  O
  O20      1.0000 0.13390  0.13360  0.51270  Biso   1.000  O
  O21      1.0000 0.24300  0.16948  0.10230  Biso   1.000  O
  O22      1.0000 0.23530  0.32822  0.17020  Biso   1.000  O
  O23      1.0000 0.23840  0.49210  0.53700  Biso   1.000  O
  O24      1.0000 0.23930  0.44540  0.33590  Biso   1.000  O
  H3       1.0000 0.23800  0.40500  0.28700  Biso   1.000  H
  Zn7      1.0000 0.59584  0.73676  0.41105  Biso   1.000  Zn
  Zn8      1.0000 0.70448  0.61355  0.95622  Biso   1.000  Zn
  P7       1.0000 0.66980  0.73830  0.15538  Biso   1.000  P
  P8       1.0000 0.75230  0.91102  0.46281  Biso   1.000  P
  O25      1.0000 0.66050  0.84540  0.48040  Biso   1.000  O
  O26      1.0000 0.65210  0.70223  0.27320  Biso   1.000  O
  O27      1.0000 0.55930  0.75110  0.07790  Biso   1.000  O
  O28      1.0000 0.63390  0.63360  0.51270  Biso   1.000  O
  O29      1.0000 0.74300  0.66948  0.10230  Biso   1.000  O
  O30      1.0000 0.73530  0.82822  0.17020  Biso   1.000  O
  O31      1.0000 0.73840  0.99210  0.53700  Biso   1.000  O
  O32      1.0000 0.73930  0.94540  0.33590  Biso   1.000  O
  H4       1.0000 0.73800  0.90500  0.28700  Biso   1.000  H
  Zn9      1.0000 0.09584  0.76324  0.91105  Biso   1.000  Zn
  Zn10     1.0000 0.20448  0.88645  0.45622  Biso   1.000  Zn
  P9       1.0000 0.16980  0.76170  0.65538  Biso   1.000  P
  P10      1.0000 0.25230  0.58898  0.96281  Biso   1.000  P
  O33      1.0000 0.16050  0.65460  0.98040  Biso   1.000  O
  O34      1.0000 0.15210  0.79777  0.77320  Biso   1.000  O
  O35      1.0000 0.05930  0.74890  0.57790  Biso   1.000  O
  O36      1.0000 0.13390  0.86640  0.01270  Biso   1.000  O
  O37      1.0000 0.24300  0.83052  0.60230  Biso   1.000  O
  O38      1.0000 0.23530  0.67178  0.67020  Biso   1.000  O
  O39      1.0000 0.23840  0.50790  0.03700  Biso   1.000  O
  O40      1.0000 0.23930  0.55460  0.83590  Biso   1.000  O
  H5       1.0000 0.23800  0.59500  0.78700  Biso   1.000  H
  Zn11     1.0000 0.59584  0.26324  0.91105  Biso   1.000  Zn
  Zn12     1.0000 0.70448  0.38645  0.45622  Biso   1.000  Zn
  P11      1.0000 0.66980  0.26170  0.65538  Biso   1.000  P
  P12      1.0000 0.75230  0.08898  0.96281  Biso   1.000  P
  O41      1.0000 0.66050  0.15460  0.98040  Biso   1.000  O
  O42      1.0000 0.65210  0.29777  0.77320  Biso   1.000  O
  O43      1.0000 0.55930  0.24890  0.57790  Biso   1.000  O
  O44      1.0000 0.63390  0.36640  0.01270  Biso   1.000  O
  O45      1.0000 0.74300  0.33052  0.60230  Biso   1.000  O
  O46      1.0000 0.73530  0.17178  0.67020  Biso   1.000  O
  O47      1.0000 0.73840  0.00790  0.03700  Biso   1.000  O
  O48      1.0000 0.73930  0.05460  0.83590  Biso   1.000  O
  H6       1.0000 0.73800  0.09500  0.78700  Biso   1.000  H
  Zn13     1.0000 0.90416  0.76324  0.58895  Biso   1.000  Zn
  Zn14     1.0000 0.79552  0.88645  0.04378  Biso   1.000  Zn
  P13      1.0000 0.83020  0.76170  0.84462  Biso   1.000  P
  P14      1.0000 0.74770  0.58898  0.53719  Biso   1.000  P
  O49      1.0000 0.83950  0.65460  0.51960  Biso   1.000  O
  O50      1.0000 0.84790  0.79777  0.72680  Biso   1.000  O
  O51      1.0000 0.94070  0.74890  0.92210  Biso   1.000  O
  O52      1.0000 0.86610  0.86640  0.48730  Biso   1.000  O
  O53      1.0000 0.75700  0.83052  0.89770  Biso   1.000  O
  O54      1.0000 0.76470  0.67178  0.82980  Biso   1.000  O
  O55      1.0000 0.76160  0.50790  0.46300  Biso   1.000  O
  O56      1.0000 0.76070  0.55460  0.66410  Biso   1.000  O
  H7       1.0000 0.76200  0.59500  0.71300  Biso   1.000  H
  Zn15     1.0000 0.40416  0.26324  0.58895  Biso   1.000  Zn
  Zn16     1.0000 0.29552  0.38645  0.04378  Biso   1.000  Zn
  P15      1.0000 0.33020  0.26170  0.84462  Biso   1.000  P
  P16      1.0000 0.24770  0.08898  0.53719  Biso   1.000  P
  O57      1.0000 0.33950  0.15460  0.51960  Biso   1.000  O
  O58      1.0000 0.34790  0.29777  0.72680  Biso   1.000  O
  O59      1.0000 0.44070  0.24890  0.92210  Biso   1.000  O
  O60      1.0000 0.36610  0.36640  0.48730  Biso   1.000  O
  O61      1.0000 0.25700  0.33052  0.89770  Biso   1.000  O
  O62      1.0000 0.26470  0.17178  0.82980  Biso   1.000  O
  O63      1.0000 0.26160  0.00790  0.46300  Biso   1.000  O
  O64      1.0000 0.26070  0.05460  0.66410  Biso   1.000  O
  H8       1.0000 0.26200  0.09500  0.71300  Biso   1.000  H
