data_image0
_cell_length_a       12.0755
_cell_length_b       14.8887
_cell_length_c       11.8358
_cell_angle_alpha    90
_cell_angle_beta     97.719
_cell_angle_gamma    90

_symmetry_space_group_name_H-M    "P 1"
_symmetry_int_tables_number       1

loop_
  _symmetry_equiv_pos_as_xyz
  'x, y, z'

loop_
  _atom_site_label
  _atom_site_occupancy
  _atom_site_fract_x
  _atom_site_fract_y
  _atom_site_fract_z
  _atom_site_thermal_displace_type
  _atom_site_B_iso_or_equiv
  _atom_site_type_symbol
  Zn1      1.0000 0.79550  0.38642  0.04387  Biso   1.000  Zn
  Zn2      1.0000 0.40407  0.23681  0.08893  Biso   1.000  Zn
  P1       1.0000 0.66986  0.23830  0.15549  Biso   1.000  P
  P2       1.0000 0.24787  0.41121  0.03706  Biso   1.000  P
  O1       1.0000 0.73450  0.32820  0.17050  Biso   1.000  O
  O2       1.0000 0.26200  0.49190  0.96280  Biso   1.000  O
  O3       1.0000 0.74290  0.16950  0.10240  Biso   1.000  O
  O4       1.0000 0.56070  0.25140  0.07810  Biso   1.000  O
  O5       1.0000 0.65180  0.20200  0.27290  Biso   1.000  O
  O6       1.0000 0.33990  0.34550  0.01950  Biso   1.000  O
  O7       1.0000 0.13420  0.36650  0.01280  Biso   1.000  O
  O8       1.0000 0.26110  0.44570  0.16360  Biso   1.000  O
  H1       1.0000 0.25380  0.40340  0.20650  Biso   1.000  H
  Zn3      1.0000 0.29550  0.88642  0.04387  Biso   1.000  Zn
  Zn4      1.0000 0.90407  0.73681  0.08893  Biso   1.000  Zn
  P3       1.0000 0.16986  0.73830  0.15549  Biso   1.000  P
  P4       1.0000 0.74787  0.91121  0.03706  Biso   1.000  P
  O9       1.0000 0.23450  0.82820  0.17050  Biso   1.000  O
  O10      1.0000 0.76200  0.99190  0.96280  Biso   1.000  O
  O11      1.0000 0.24290  0.66950  0.10240  Biso   1.000  O
  O12      1.0000 0.06070  0.75140  0.07810  Biso   1.000  O
  O13      1.0000 0.15180  0.70200  0.27290  Biso   1.000  O
  O14      1.0000 0.83990  0.84550  0.01950  Biso   1.000  O
  O15      1.0000 0.63420  0.86650  0.01280  Biso   1.000  O
  O16      1.0000 0.76110  0.94570  0.16360  Biso   1.000  O
  H2       1.0000 0.75380  0.90340  0.20650  Biso   1.000  H
  Zn5      1.0000 0.20450  0.38642  0.45613  Biso   1.000  Zn
  Zn6      1.0000 0.59593  0.23681  0.41107  Biso   1.000  Zn
  P5       1.0000 0.33014  0.23830  0.34451  Biso   1.000  P
  P6       1.0000 0.75213  0.41121  0.46294  Biso   1.000  P
  O17      1.0000 0.26550  0.32820  0.32950  Biso   1.000  O
  O18      1.0000 0.73800  0.49190  0.53720  Biso   1.000  O
  O19      1.0000 0.25710  0.16950  0.39760  Biso   1.000  O
  O20      1.0000 0.43930  0.25140  0.42190  Biso   1.000  O
  O21      1.0000 0.34820  0.20200  0.22710  Biso   1.000  O
  O22      1.0000 0.66010  0.34550  0.48050  Biso   1.000  O
  O23      1.0000 0.86580  0.36650  0.48720  Biso   1.000  O
  O24      1.0000 0.73890  0.44570  0.33640  Biso   1.000  O
  H3       1.0000 0.74620  0.40340  0.29350  Biso   1.000  H
  Zn7      1.0000 0.70450  0.88642  0.45613  Biso   1.000  Zn
  Zn8      1.0000 0.09593  0.73681  0.41107  Biso   1.000  Zn
  P7       1.0000 0.83014  0.73830  0.34451  Biso   1.000  P
  P8       1.0000 0.25213  0.91121  0.46294  Biso   1.000  P
  O25      1.0000 0.76550  0.82820  0.32950  Biso   1.000  O
  O26      1.0000 0.23800  0.99190  0.53720  Biso   1.000  O
  O27      1.0000 0.75710  0.66950  0.39760  Biso   1.000  O
  O28      1.0000 0.93930  0.75140  0.42190  Biso   1.000  O
  O29      1.0000 0.84820  0.70200  0.22710  Biso   1.000  O
  O30      1.0000 0.16010  0.84550  0.48050  Biso   1.000  O
  O31      1.0000 0.36580  0.86650  0.48720  Biso   1.000  O
  O32      1.0000 0.23890  0.94570  0.33640  Biso   1.000  O
  H4       1.0000 0.24620  0.90340  0.29350  Biso   1.000  H
  Zn9      1.0000 0.20450  0.61358  0.95613  Biso   1.000  Zn
  Zn10     1.0000 0.59593  0.76319  0.91107  Biso   1.000  Zn
  P9       1.0000 0.33014  0.76170  0.84451  Biso   1.000  P
  P10      1.0000 0.75213  0.58879  0.96294  Biso   1.000  P
  O33      1.0000 0.26550  0.67180  0.82950  Biso   1.000  O
  O34      1.0000 0.73800  0.50810  0.03720  Biso   1.000  O
  O35      1.0000 0.25710  0.83050  0.89760  Biso   1.000  O
  O36      1.0000 0.43930  0.74860  0.92190  Biso   1.000  O
  O37      1.0000 0.34820  0.79800  0.72710  Biso   1.000  O
  O38      1.0000 0.66010  0.65450  0.98050  Biso   1.000  O
  O39      1.0000 0.86580  0.63350  0.98720  Biso   1.000  O
  O40      1.0000 0.73890  0.55430  0.83640  Biso   1.000  O
  H5       1.0000 0.74620  0.59660  0.79350  Biso   1.000  H
  Zn11     1.0000 0.70450  0.11358  0.95613  Biso   1.000  Zn
  Zn12     1.0000 0.09593  0.26319  0.91107  Biso   1.000  Zn
  P11      1.0000 0.83014  0.26170  0.84451  Biso   1.000  P
  P12      1.0000 0.25213  0.08879  0.96294  Biso   1.000  P
  O41      1.0000 0.76550  0.17180  0.82950  Biso   1.000  O
  O42      1.0000 0.23800  0.00810  0.03720  Biso   1.000  O
  O43      1.0000 0.75710  0.33050  0.89760  Biso   1.000  O
  O44      1.0000 0.93930  0.24860  0.92190  Biso   1.000  O
  O45      1.0000 0.84820  0.29800  0.72710  Biso   1.000  O
  O46      1.0000 0.16010  0.15450  0.98050  Biso   1.000  O
  O47      1.0000 0.36580  0.13350  0.98720  Biso   1.000  O
  O48      1.0000 0.23890  0.05430  0.83640  Biso   1.000  O
  H6       1.0000 0.24620  0.09660  0.79350  Biso   1.000  H
  Zn13     1.0000 0.79550  0.61358  0.54387  Biso   1.000  Zn
  Zn14     1.0000 0.40407  0.76319  0.58893  Biso   1.000  Zn
  P13      1.0000 0.66986  0.76170  0.65549  Biso   1.000  P
  P14      1.0000 0.24787  0.58879  0.53706  Biso   1.000  P
  O49      1.0000 0.73450  0.67180  0.67050  Biso   1.000  O
  O50      1.0000 0.26200  0.50810  0.46280  Biso   1.000  O
  O51      1.0000 0.74290  0.83050  0.60240  Biso   1.000  O
  O52      1.0000 0.56070  0.74860  0.57810  Biso   1.000  O
  O53      1.0000 0.65180  0.79800  0.77290  Biso   1.000  O
  O54      1.0000 0.33990  0.65450  0.51950  Biso   1.000  O
  O55      1.0000 0.13420  0.63350  0.51280  Biso   1.000  O
  O56      1.0000 0.26110  0.55430  0.66360  Biso   1.000  O
  H7       1.0000 0.25380  0.59660  0.70650  Biso   1.000  H
  Zn15     1.0000 0.29550  0.11358  0.54387  Biso   1.000  Zn
  Zn16     1.0000 0.90407  0.26319  0.58893  Biso   1.000  Zn
  P15      1.0000 0.16986  0.26170  0.65549  Biso   1.000  P
  P16      1.0000 0.74787  0.08879  0.53706  Biso   1.000  P
  O57      1.0000 0.23450  0.17180  0.67050  Biso   1.000  O
  O58      1.0000 0.76200  0.00810  0.46280  Biso   1.000  O
  O59      1.0000 0.24290  0.33050  0.60240  Biso   1.000  O
  O60      1.0000 0.06070  0.24860  0.57810  Biso   1.000  O
  O61      1.0000 0.15180  0.29800  0.77290  Biso   1.000  O
  O62      1.0000 0.83990  0.15450  0.51950  Biso   1.000  O
  O63      1.0000 0.63420  0.13350  0.51280  Biso   1.000  O
  O64      1.0000 0.76110  0.05430  0.66360  Biso   1.000  O
  H8       1.0000 0.75380  0.09660  0.70650  Biso   1.000  H
