data_image0
_cell_length_a       12.083
_cell_length_b       14.893
_cell_length_c       11.784
_cell_angle_alpha    90
_cell_angle_beta     98.16
_cell_angle_gamma    90

_symmetry_space_group_name_H-M    "P 1"
_symmetry_int_tables_number       1

loop_
  _symmetry_equiv_pos_as_xyz
  'x, y, z'

loop_
  _atom_site_label
  _atom_site_occupancy
  _atom_site_fract_x
  _atom_site_fract_y
  _atom_site_fract_z
  _atom_site_thermal_displace_type
  _atom_site_B_iso_or_equiv
  _atom_site_type_symbol
  Zn1      1.0000 0.40399  0.73576  0.08798  Biso   1.000  Zn
  Zn2      1.0000 0.29531  0.61343  0.54504  Biso   1.000  Zn
  P1       1.0000 0.33025  0.73789  0.34463  Biso   1.000  P
  P2       1.0000 0.24860  0.91163  0.03598  Biso   1.000  P
  O1       1.0000 0.26403  0.99241  0.96169  Biso   1.000  O
  O2       1.0000 0.44014  0.75183  0.42348  Biso   1.000  O
  O3       1.0000 0.33810  0.84333  0.01580  Biso   1.000  O
  O4       1.0000 0.13247  0.86882  0.01236  Biso   1.000  O
  O5       1.0000 0.25706  0.66877  0.39727  Biso   1.000  O
  O6       1.0000 0.26477  0.82760  0.32788  Biso   1.000  O
  O7       1.0000 0.26579  0.94480  0.16424  Biso   1.000  O
  O8       1.0000 0.34927  0.70107  0.22692  Biso   1.000  O
  Zn3      1.0000 0.90399  0.23576  0.08798  Biso   1.000  Zn
  Zn4      1.0000 0.79531  0.11343  0.54504  Biso   1.000  Zn
  P3       1.0000 0.83025  0.23789  0.34463  Biso   1.000  P
  P4       1.0000 0.74860  0.41163  0.03598  Biso   1.000  P
  O9       1.0000 0.76403  0.49241  0.96169  Biso   1.000  O
  O10      1.0000 0.94014  0.25183  0.42348  Biso   1.000  O
  O11      1.0000 0.83810  0.34333  0.01580  Biso   1.000  O
  O12      1.0000 0.63247  0.36882  0.01236  Biso   1.000  O
  O13      1.0000 0.75706  0.16877  0.39727  Biso   1.000  O
  O14      1.0000 0.76477  0.32760  0.32788  Biso   1.000  O
  O15      1.0000 0.76579  0.44480  0.16424  Biso   1.000  O
  O16      1.0000 0.84927  0.20107  0.22692  Biso   1.000  O
  Zn5      1.0000 0.59601  0.73576  0.41202  Biso   1.000  Zn
  Zn6      1.0000 0.70469  0.61343  0.95496  Biso   1.000  Zn
  P5       1.0000 0.66975  0.73789  0.15537  Biso   1.000  P
  P6       1.0000 0.75140  0.91163  0.46402  Biso   1.000  P
  O17      1.0000 0.73597  0.99241  0.53831  Biso   1.000  O
  O18      1.0000 0.55986  0.75183  0.07652  Biso   1.000  O
  O19      1.0000 0.66190  0.84333  0.48420  Biso   1.000  O
  O20      1.0000 0.86753  0.86882  0.48764  Biso   1.000  O
  O21      1.0000 0.74294  0.66877  0.10273  Biso   1.000  O
  O22      1.0000 0.73523  0.82760  0.17212  Biso   1.000  O
  O23      1.0000 0.73421  0.94480  0.33576  Biso   1.000  O
  O24      1.0000 0.65073  0.70107  0.27308  Biso   1.000  O
  Zn7      1.0000 0.09601  0.23576  0.41202  Biso   1.000  Zn
  Zn8      1.0000 0.20469  0.11343  0.95496  Biso   1.000  Zn
  P7       1.0000 0.16975  0.23789  0.15537  Biso   1.000  P
  P8       1.0000 0.25140  0.41163  0.46402  Biso   1.000  P
  O25      1.0000 0.23597  0.49241  0.53831  Biso   1.000  O
  O26      1.0000 0.05986  0.25183  0.07652  Biso   1.000  O
  O27      1.0000 0.16190  0.34333  0.48420  Biso   1.000  O
  O28      1.0000 0.36753  0.36882  0.48764  Biso   1.000  O
  O29      1.0000 0.24294  0.16877  0.10273  Biso   1.000  O
  O30      1.0000 0.23523  0.32760  0.17212  Biso   1.000  O
  O31      1.0000 0.23421  0.44480  0.33576  Biso   1.000  O
  O32      1.0000 0.15073  0.20107  0.27308  Biso   1.000  O
  Zn9      1.0000 0.59601  0.26424  0.91202  Biso   1.000  Zn
  Zn10     1.0000 0.70469  0.38657  0.45496  Biso   1.000  Zn
  P9       1.0000 0.66975  0.26211  0.65537  Biso   1.000  P
  P10      1.0000 0.75140  0.08837  0.96402  Biso   1.000  P
  O33      1.0000 0.73597  0.00759  0.03831  Biso   1.000  O
  O34      1.0000 0.55986  0.24817  0.57652  Biso   1.000  O
  O35      1.0000 0.66190  0.15667  0.98420  Biso   1.000  O
  O36      1.0000 0.86753  0.13118  0.98764  Biso   1.000  O
  O37      1.0000 0.74294  0.33123  0.60273  Biso   1.000  O
  O38      1.0000 0.73523  0.17240  0.67212  Biso   1.000  O
  O39      1.0000 0.73421  0.05520  0.83576  Biso   1.000  O
  O40      1.0000 0.65073  0.29893  0.77308  Biso   1.000  O
  Zn11     1.0000 0.09601  0.76424  0.91202  Biso   1.000  Zn
  Zn12     1.0000 0.20469  0.88657  0.45496  Biso   1.000  Zn
  P11      1.0000 0.16975  0.76211  0.65537  Biso   1.000  P
  P12      1.0000 0.25140  0.58837  0.96402  Biso   1.000  P
  O41      1.0000 0.23597  0.50759  0.03831  Biso   1.000  O
  O42      1.0000 0.05986  0.74817  0.57652  Biso   1.000  O
  O43      1.0000 0.16190  0.65667  0.98420  Biso   1.000  O
  O44      1.0000 0.36753  0.63118  0.98764  Biso   1.000  O
  O45      1.0000 0.24294  0.83123  0.60273  Biso   1.000  O
  O46      1.0000 0.23523  0.67240  0.67212  Biso   1.000  O
  O47      1.0000 0.23421  0.55520  0.83576  Biso   1.000  O
  O48      1.0000 0.15073  0.79893  0.77308  Biso   1.000  O
  Zn13     1.0000 0.40399  0.26424  0.58798  Biso   1.000  Zn
  Zn14     1.0000 0.29531  0.38657  0.04504  Biso   1.000  Zn
  P13      1.0000 0.33025  0.26211  0.84463  Biso   1.000  P
  P14      1.0000 0.24860  0.08837  0.53598  Biso   1.000  P
  O49      1.0000 0.26403  0.00759  0.46169  Biso   1.000  O
  O50      1.0000 0.44014  0.24817  0.92348  Biso   1.000  O
  O51      1.0000 0.33810  0.15667  0.51580  Biso   1.000  O
  O52      1.0000 0.13247  0.13118  0.51236  Biso   1.000  O
  O53      1.0000 0.25706  0.33123  0.89727  Biso   1.000  O
  O54      1.0000 0.26477  0.17240  0.82788  Biso   1.000  O
  O55      1.0000 0.26579  0.05520  0.66424  Biso   1.000  O
  O56      1.0000 0.34927  0.29893  0.72692  Biso   1.000  O
  Zn15     1.0000 0.90399  0.76424  0.58798  Biso   1.000  Zn
  Zn16     1.0000 0.79531  0.88657  0.04504  Biso   1.000  Zn
  P15      1.0000 0.83025  0.76211  0.84463  Biso   1.000  P
  P16      1.0000 0.74860  0.58837  0.53598  Biso   1.000  P
  O57      1.0000 0.76403  0.50759  0.46169  Biso   1.000  O
  O58      1.0000 0.94014  0.74817  0.92348  Biso   1.000  O
  O59      1.0000 0.83810  0.65667  0.51580  Biso   1.000  O
  O60      1.0000 0.63247  0.63118  0.51236  Biso   1.000  O
  O61      1.0000 0.75706  0.83123  0.89727  Biso   1.000  O
  O62      1.0000 0.76477  0.67240  0.82788  Biso   1.000  O
  O63      1.0000 0.76579  0.55520  0.66424  Biso   1.000  O
  O64      1.0000 0.84927  0.79893  0.72692  Biso   1.000  O
