data_ZEKROY_clean
_audit_creation_date              2014-07-02
_audit_creation_method            'Materials Studio'
_symmetry_space_group_name_H-M    'P1'
_symmetry_Int_Tables_number       1
_symmetry_cell_setting            triclinic
loop_
_symmetry_equiv_pos_as_xyz
  x,y,z
_cell_length_a                    9.6348
_cell_length_b                    20.8220
_cell_length_c                    20.8220
_cell_angle_alpha                 90.0000
_cell_angle_beta                  90.0000
_cell_angle_gamma                 90.0000
loop_
_atom_site_label
_atom_site_type_symbol
_atom_site_fract_x
_atom_site_fract_y
_atom_site_fract_z
_atom_site_U_iso_or_equiv
_atom_site_adp_type
_atom_site_occupancy
K1     K     0.13870   0.83663   0.01563   0.01267  Uiso   1.00
K2     K     0.13870   0.66337   0.48437   0.01267  Uiso   1.00
K3     K     0.63870   0.98437   0.33663   0.01267  Uiso   1.00
K4     K     0.63870   0.51563   0.16337   0.01267  Uiso   1.00
K5     K     0.86130   0.16337   0.98437   0.01267  Uiso   1.00
K6     K     0.86130   0.33663   0.51563   0.01267  Uiso   1.00
K7     K     0.36130   0.01563   0.66337   0.01267  Uiso   1.00
K8     K     0.36130   0.48437   0.83663   0.01267  Uiso   1.00
H1     H     0.77900   0.87010   0.82430   0.01267  Uiso   1.00
H2     H     0.62000   0.95340   0.84470   0.01267  Uiso   1.00
H3     H     0.62600   0.76010   0.95550   0.01267  Uiso   1.00
H4     H     0.46200   0.83840   0.98290   0.01267  Uiso   1.00
H5     H     0.11900   0.36670   0.89110   0.01267  Uiso   1.00
H6     H     0.09700   0.26530   0.93760   0.01267  Uiso   1.00
H7     H     0.43200   0.31290   0.78550   0.01267  Uiso   1.00
H8     H     0.42800   0.20540   0.82880   0.01267  Uiso   1.00
H9     H     0.88400   0.91020   0.23450   0.01267  Uiso   1.00
H10    H     0.03200   0.92410   0.14390   0.01267  Uiso   1.00
H11    H     0.74600   0.08120   0.21260   0.01267  Uiso   1.00
H12    H     0.89600   0.10870   0.12890   0.01267  Uiso   1.00
H13    H     0.77900   0.62990   0.67570   0.01267  Uiso   1.00
H14    H     0.62000   0.54660   0.65530   0.01267  Uiso   1.00
H15    H     0.62600   0.73990   0.54450   0.01267  Uiso   1.00
H16    H     0.46200   0.66160   0.51710   0.01267  Uiso   1.00
H17    H     0.11900   0.13330   0.60890   0.01267  Uiso   1.00
H18    H     0.09700   0.23470   0.56240   0.01267  Uiso   1.00
H19    H     0.43200   0.18710   0.71450   0.01267  Uiso   1.00
H20    H     0.42800   0.29460   0.67120   0.01267  Uiso   1.00
H21    H     0.88400   0.58980   0.26550   0.01267  Uiso   1.00
H22    H     0.03200   0.57590   0.35610   0.01267  Uiso   1.00
H23    H     0.74600   0.41880   0.28740   0.01267  Uiso   1.00
H24    H     0.89600   0.39130   0.37110   0.01267  Uiso   1.00
H25    H     0.27900   0.17570   0.37010   0.01267  Uiso   1.00
H26    H     0.12000   0.15530   0.45340   0.01267  Uiso   1.00
H27    H     0.12600   0.04450   0.26010   0.01267  Uiso   1.00
H28    H     0.96200   0.01710   0.33840   0.01267  Uiso   1.00
H29    H     0.61900   0.10890   0.86670   0.01267  Uiso   1.00
H30    H     0.59700   0.06240   0.76530   0.01267  Uiso   1.00
H31    H     0.93200   0.21450   0.81290   0.01267  Uiso   1.00
H32    H     0.92800   0.17120   0.70540   0.01267  Uiso   1.00
H33    H     0.38400   0.76550   0.41020   0.01267  Uiso   1.00
H34    H     0.53200   0.85610   0.42410   0.01267  Uiso   1.00
H35    H     0.24600   0.78740   0.58120   0.01267  Uiso   1.00
H36    H     0.39600   0.87110   0.60870   0.01267  Uiso   1.00
H37    H     0.27900   0.32430   0.12990   0.01267  Uiso   1.00
H38    H     0.12000   0.34470   0.04660   0.01267  Uiso   1.00
H39    H     0.12600   0.45550   0.23990   0.01267  Uiso   1.00
H40    H     0.96200   0.48290   0.16160   0.01267  Uiso   1.00
H41    H     0.61900   0.39110   0.63330   0.01267  Uiso   1.00
H42    H     0.59700   0.43760   0.73470   0.01267  Uiso   1.00
H43    H     0.93200   0.28550   0.68710   0.01267  Uiso   1.00
H44    H     0.92800   0.32880   0.79460   0.01267  Uiso   1.00
H45    H     0.38400   0.73450   0.08980   0.01267  Uiso   1.00
H46    H     0.53200   0.64390   0.07590   0.01267  Uiso   1.00
H47    H     0.24600   0.71260   0.91880   0.01267  Uiso   1.00
H48    H     0.39600   0.62890   0.89130   0.01267  Uiso   1.00
H49    H     0.22100   0.12990   0.17570   0.01267  Uiso   1.00
H50    H     0.38000   0.04660   0.15530   0.01267  Uiso   1.00
H51    H     0.37400   0.23990   0.04450   0.01267  Uiso   1.00
H52    H     0.53800   0.16160   0.01710   0.01267  Uiso   1.00
H53    H     0.88100   0.63330   0.10890   0.01267  Uiso   1.00
H54    H     0.90300   0.73470   0.06240   0.01267  Uiso   1.00
H55    H     0.56800   0.68710   0.21450   0.01267  Uiso   1.00
H56    H     0.57200   0.79460   0.17120   0.01267  Uiso   1.00
H57    H     0.11600   0.08980   0.76550   0.01267  Uiso   1.00
H58    H     0.96800   0.07590   0.85610   0.01267  Uiso   1.00
H59    H     0.25400   0.91880   0.78740   0.01267  Uiso   1.00
H60    H     0.10400   0.89130   0.87110   0.01267  Uiso   1.00
H61    H     0.22100   0.37010   0.32430   0.01267  Uiso   1.00
H62    H     0.38000   0.45340   0.34470   0.01267  Uiso   1.00
H63    H     0.37400   0.26010   0.45550   0.01267  Uiso   1.00
H64    H     0.53800   0.33840   0.48290   0.01267  Uiso   1.00
H65    H     0.88100   0.86670   0.39110   0.01267  Uiso   1.00
H66    H     0.90300   0.76530   0.43760   0.01267  Uiso   1.00
H67    H     0.56800   0.81290   0.28550   0.01267  Uiso   1.00
H68    H     0.57200   0.70540   0.32880   0.01267  Uiso   1.00
H69    H     0.11600   0.41020   0.73450   0.01267  Uiso   1.00
H70    H     0.96800   0.42410   0.64390   0.01267  Uiso   1.00
H71    H     0.25400   0.58120   0.71260   0.01267  Uiso   1.00
H72    H     0.10400   0.60870   0.62890   0.01267  Uiso   1.00
H73    H     0.72100   0.82430   0.62990   0.01267  Uiso   1.00
H74    H     0.88000   0.84470   0.54660   0.01267  Uiso   1.00
H75    H     0.87400   0.95550   0.73990   0.01267  Uiso   1.00
H76    H     0.03800   0.98290   0.66160   0.01267  Uiso   1.00
H77    H     0.38100   0.89110   0.13330   0.01267  Uiso   1.00
H78    H     0.40300   0.93760   0.23470   0.01267  Uiso   1.00
H79    H     0.06800   0.78550   0.18710   0.01267  Uiso   1.00
H80    H     0.07200   0.82880   0.29460   0.01267  Uiso   1.00
H81    H     0.61600   0.23450   0.58980   0.01267  Uiso   1.00
H82    H     0.46800   0.14390   0.57590   0.01267  Uiso   1.00
H83    H     0.75400   0.21260   0.41880   0.01267  Uiso   1.00
H84    H     0.60400   0.12890   0.39130   0.01267  Uiso   1.00
H85    H     0.72100   0.67570   0.87010   0.01267  Uiso   1.00
H86    H     0.88000   0.65530   0.95340   0.01267  Uiso   1.00
H87    H     0.87400   0.54450   0.76010   0.01267  Uiso   1.00
H88    H     0.03800   0.51710   0.83840   0.01267  Uiso   1.00
H89    H     0.38100   0.60890   0.36670   0.01267  Uiso   1.00
H90    H     0.40300   0.56240   0.26530   0.01267  Uiso   1.00
H91    H     0.06800   0.71450   0.31290   0.01267  Uiso   1.00
H92    H     0.07200   0.67120   0.20540   0.01267  Uiso   1.00
H93    H     0.61600   0.26550   0.91020   0.01267  Uiso   1.00
H94    H     0.46800   0.35610   0.92410   0.01267  Uiso   1.00
H95    H     0.75400   0.28740   0.08120   0.01267  Uiso   1.00
H96    H     0.60400   0.37110   0.10870   0.01267  Uiso   1.00
C1     C     0.52149   0.90439   0.91657   0.01267  Uiso   1.00
C2     C     0.71318   0.86679   0.85396   0.01267  Uiso   1.00
C3     C     0.61683   0.91439   0.86731   0.01267  Uiso   1.00
C4     C     0.62696   0.80137   0.93209   0.01267  Uiso   1.00
C5     C     0.52622   0.84590   0.94904   0.01267  Uiso   1.00
C6     C     0.42189   0.95556   0.93611   0.01267  Uiso   1.00
C7     C     0.25843   0.22441   0.88695   0.01267  Uiso   1.00
C8     C     0.18074   0.33366   0.87768   0.01267  Uiso   1.00
C9     C     0.16752   0.27312   0.90537   0.01267  Uiso   1.00
C10    C     0.36360   0.30116   0.81658   0.01267  Uiso   1.00
C11    C     0.35858   0.23932   0.84141   0.01267  Uiso   1.00
C12    C     0.25286   0.15903   0.91668   0.01267  Uiso   1.00
C13    C     0.98235   0.01472   0.12431   0.01267  Uiso   1.00
C14    C     0.88459   0.94902   0.20711   0.01267  Uiso   1.00
C15    C     0.97656   0.95628   0.15630   0.01267  Uiso   1.00
C16    C     0.80748   0.05173   0.19681   0.01267  Uiso   1.00
C17    C     0.89558   0.06380   0.14572   0.01267  Uiso   1.00
C18    C     0.07736   0.02477   0.06884   0.01267  Uiso   1.00
C19    C     0.24897   0.98635   0.00430   0.01267  Uiso   1.00
C20    C     0.25210   0.04650   0.97408   0.01267  Uiso   1.00
C21    C     0.34559   0.05845   0.92401   0.01267  Uiso   1.00
C22    C     0.15745   0.09396   0.99257   0.01267  Uiso   1.00
C23    C     0.52149   0.59561   0.58343   0.01267  Uiso   1.00
C24    C     0.71318   0.63321   0.64604   0.01267  Uiso   1.00
C25    C     0.61683   0.58561   0.63269   0.01267  Uiso   1.00
C26    C     0.62696   0.69863   0.56791   0.01267  Uiso   1.00
C27    C     0.52622   0.65410   0.55096   0.01267  Uiso   1.00
C28    C     0.42189   0.54444   0.56389   0.01267  Uiso   1.00
C29    C     0.25843   0.27559   0.61305   0.01267  Uiso   1.00
C30    C     0.18074   0.16634   0.62232   0.01267  Uiso   1.00
C31    C     0.16752   0.22688   0.59463   0.01267  Uiso   1.00
C32    C     0.36360   0.19884   0.68342   0.01267  Uiso   1.00
C33    C     0.35858   0.26068   0.65859   0.01267  Uiso   1.00
C34    C     0.25286   0.34097   0.58332   0.01267  Uiso   1.00
C35    C     0.98235   0.48528   0.37569   0.01267  Uiso   1.00
C36    C     0.88459   0.55098   0.29289   0.01267  Uiso   1.00
C37    C     0.97656   0.54372   0.34370   0.01267  Uiso   1.00
C38    C     0.80748   0.44827   0.30319   0.01267  Uiso   1.00
C39    C     0.89558   0.43620   0.35428   0.01267  Uiso   1.00
C40    C     0.07736   0.47523   0.43116   0.01267  Uiso   1.00
C41    C     0.24897   0.51365   0.49570   0.01267  Uiso   1.00
C42    C     0.25210   0.45350   0.52592   0.01267  Uiso   1.00
C43    C     0.34559   0.44155   0.57599   0.01267  Uiso   1.00
C44    C     0.15745   0.40604   0.50743   0.01267  Uiso   1.00
C45    C     0.02149   0.08343   0.40439   0.01267  Uiso   1.00
C46    C     0.21318   0.14604   0.36679   0.01267  Uiso   1.00
C47    C     0.11683   0.13269   0.41439   0.01267  Uiso   1.00
C48    C     0.12696   0.06791   0.30137   0.01267  Uiso   1.00
C49    C     0.02622   0.05096   0.34590   0.01267  Uiso   1.00
C50    C     0.92189   0.06389   0.45556   0.01267  Uiso   1.00
C51    C     0.75843   0.11305   0.72441   0.01267  Uiso   1.00
C52    C     0.68074   0.12232   0.83366   0.01267  Uiso   1.00
C53    C     0.66752   0.09463   0.77312   0.01267  Uiso   1.00
C54    C     0.86360   0.18342   0.80116   0.01267  Uiso   1.00
C55    C     0.85858   0.15859   0.73932   0.01267  Uiso   1.00
C56    C     0.75286   0.08332   0.65903   0.01267  Uiso   1.00
C57    C     0.48235   0.87569   0.51472   0.01267  Uiso   1.00
C58    C     0.38459   0.79289   0.44902   0.01267  Uiso   1.00
C59    C     0.47656   0.84370   0.45628   0.01267  Uiso   1.00
C60    C     0.30748   0.80319   0.55173   0.01267  Uiso   1.00
C61    C     0.39558   0.85428   0.56380   0.01267  Uiso   1.00
C62    C     0.57736   0.93116   0.52477   0.01267  Uiso   1.00
C63    C     0.74897   0.99570   0.48635   0.01267  Uiso   1.00
C64    C     0.75210   0.02592   0.54650   0.01267  Uiso   1.00
C65    C     0.84559   0.07599   0.55845   0.01267  Uiso   1.00
C66    C     0.65745   0.00743   0.59396   0.01267  Uiso   1.00
C67    C     0.02149   0.41657   0.09561   0.01267  Uiso   1.00
C68    C     0.21318   0.35396   0.13321   0.01267  Uiso   1.00
C69    C     0.11683   0.36731   0.08561   0.01267  Uiso   1.00
C70    C     0.12696   0.43209   0.19863   0.01267  Uiso   1.00
C71    C     0.02622   0.44904   0.15410   0.01267  Uiso   1.00
C72    C     0.92189   0.43611   0.04444   0.01267  Uiso   1.00
C73    C     0.75843   0.38695   0.77559   0.01267  Uiso   1.00
C74    C     0.68074   0.37768   0.66634   0.01267  Uiso   1.00
C75    C     0.66752   0.40537   0.72688   0.01267  Uiso   1.00
C76    C     0.86360   0.31658   0.69884   0.01267  Uiso   1.00
C77    C     0.85858   0.34141   0.76068   0.01267  Uiso   1.00
C78    C     0.75286   0.41668   0.84097   0.01267  Uiso   1.00
C79    C     0.48235   0.62431   0.98528   0.01267  Uiso   1.00
C80    C     0.38459   0.70711   0.05098   0.01267  Uiso   1.00
C81    C     0.47656   0.65630   0.04372   0.01267  Uiso   1.00
C82    C     0.30748   0.69681   0.94827   0.01267  Uiso   1.00
C83    C     0.39558   0.64572   0.93620   0.01267  Uiso   1.00
C84    C     0.57736   0.56884   0.97523   0.01267  Uiso   1.00
C85    C     0.74897   0.50430   0.01365   0.01267  Uiso   1.00
C86    C     0.75210   0.47408   0.95350   0.01267  Uiso   1.00
C87    C     0.84559   0.42401   0.94155   0.01267  Uiso   1.00
C88    C     0.65745   0.49257   0.90604   0.01267  Uiso   1.00
C89    C     0.47851   0.09561   0.08343   0.01267  Uiso   1.00
C90    C     0.28682   0.13321   0.14604   0.01267  Uiso   1.00
C91    C     0.38317   0.08561   0.13269   0.01267  Uiso   1.00
C92    C     0.37304   0.19863   0.06791   0.01267  Uiso   1.00
C93    C     0.47378   0.15410   0.05096   0.01267  Uiso   1.00
C94    C     0.57811   0.04444   0.06389   0.01267  Uiso   1.00
C95    C     0.74157   0.77559   0.11305   0.01267  Uiso   1.00
C96    C     0.81926   0.66634   0.12232   0.01267  Uiso   1.00
C97    C     0.83248   0.72688   0.09463   0.01267  Uiso   1.00
C98    C     0.63640   0.69884   0.18342   0.01267  Uiso   1.00
C99    C     0.64142   0.76068   0.15859   0.01267  Uiso   1.00
C100   C     0.74714   0.84097   0.08332   0.01267  Uiso   1.00
C101   C     0.01765   0.98528   0.87569   0.01267  Uiso   1.00
C102   C     0.11541   0.05098   0.79289   0.01267  Uiso   1.00
C103   C     0.02344   0.04372   0.84370   0.01267  Uiso   1.00
C104   C     0.19252   0.94827   0.80319   0.01267  Uiso   1.00
C105   C     0.10442   0.93620   0.85428   0.01267  Uiso   1.00
C106   C     0.92264   0.97523   0.93116   0.01267  Uiso   1.00
C107   C     0.75103   0.01365   0.99570   0.01267  Uiso   1.00
C108   C     0.74790   0.95350   0.02592   0.01267  Uiso   1.00
C109   C     0.65441   0.94155   0.07599   0.01267  Uiso   1.00
C110   C     0.84255   0.90604   0.00743   0.01267  Uiso   1.00
C111   C     0.47851   0.40439   0.41657   0.01267  Uiso   1.00
C112   C     0.28682   0.36679   0.35396   0.01267  Uiso   1.00
C113   C     0.38317   0.41439   0.36731   0.01267  Uiso   1.00
C114   C     0.37304   0.30137   0.43209   0.01267  Uiso   1.00
C115   C     0.47378   0.34590   0.44904   0.01267  Uiso   1.00
C116   C     0.57811   0.45556   0.43611   0.01267  Uiso   1.00
C117   C     0.74157   0.72441   0.38695   0.01267  Uiso   1.00
C118   C     0.81926   0.83366   0.37768   0.01267  Uiso   1.00
C119   C     0.83248   0.77312   0.40537   0.01267  Uiso   1.00
C120   C     0.63640   0.80116   0.31658   0.01267  Uiso   1.00
C121   C     0.64142   0.73932   0.34141   0.01267  Uiso   1.00
C122   C     0.74714   0.65903   0.41668   0.01267  Uiso   1.00
C123   C     0.01765   0.51472   0.62431   0.01267  Uiso   1.00
C124   C     0.11541   0.44902   0.70711   0.01267  Uiso   1.00
C125   C     0.02344   0.45628   0.65630   0.01267  Uiso   1.00
C126   C     0.19252   0.55173   0.69681   0.01267  Uiso   1.00
C127   C     0.10442   0.56380   0.64572   0.01267  Uiso   1.00
C128   C     0.92264   0.52477   0.56884   0.01267  Uiso   1.00
C129   C     0.75103   0.48635   0.50430   0.01267  Uiso   1.00
C130   C     0.74790   0.54650   0.47408   0.01267  Uiso   1.00
C131   C     0.65441   0.55845   0.42401   0.01267  Uiso   1.00
C132   C     0.84255   0.59396   0.49257   0.01267  Uiso   1.00
C133   C     0.97851   0.91657   0.59561   0.01267  Uiso   1.00
C134   C     0.78682   0.85396   0.63321   0.01267  Uiso   1.00
C135   C     0.88317   0.86731   0.58561   0.01267  Uiso   1.00
C136   C     0.87304   0.93209   0.69863   0.01267  Uiso   1.00
C137   C     0.97378   0.94904   0.65410   0.01267  Uiso   1.00
C138   C     0.07811   0.93611   0.54444   0.01267  Uiso   1.00
C139   C     0.24157   0.88695   0.27559   0.01267  Uiso   1.00
C140   C     0.31926   0.87768   0.16634   0.01267  Uiso   1.00
C141   C     0.33248   0.90537   0.22688   0.01267  Uiso   1.00
C142   C     0.13640   0.81658   0.19884   0.01267  Uiso   1.00
C143   C     0.14142   0.84141   0.26068   0.01267  Uiso   1.00
C144   C     0.24714   0.91668   0.34097   0.01267  Uiso   1.00
C145   C     0.51765   0.12431   0.48528   0.01267  Uiso   1.00
C146   C     0.61541   0.20711   0.55098   0.01267  Uiso   1.00
C147   C     0.52344   0.15630   0.54372   0.01267  Uiso   1.00
C148   C     0.69252   0.19681   0.44827   0.01267  Uiso   1.00
C149   C     0.60442   0.14572   0.43620   0.01267  Uiso   1.00
C150   C     0.42264   0.06884   0.47523   0.01267  Uiso   1.00
C151   C     0.25103   0.00430   0.51365   0.01267  Uiso   1.00
C152   C     0.24790   0.97408   0.45350   0.01267  Uiso   1.00
C153   C     0.15441   0.92401   0.44155   0.01267  Uiso   1.00
C154   C     0.34255   0.99257   0.40604   0.01267  Uiso   1.00
C155   C     0.97851   0.58343   0.90439   0.01267  Uiso   1.00
C156   C     0.78682   0.64604   0.86679   0.01267  Uiso   1.00
C157   C     0.88317   0.63269   0.91439   0.01267  Uiso   1.00
C158   C     0.87304   0.56791   0.80137   0.01267  Uiso   1.00
C159   C     0.97378   0.55096   0.84590   0.01267  Uiso   1.00
C160   C     0.07811   0.56389   0.95556   0.01267  Uiso   1.00
C161   C     0.24157   0.61305   0.22441   0.01267  Uiso   1.00
C162   C     0.31926   0.62232   0.33366   0.01267  Uiso   1.00
C163   C     0.33248   0.59463   0.27312   0.01267  Uiso   1.00
C164   C     0.13640   0.68342   0.30116   0.01267  Uiso   1.00
C165   C     0.14142   0.65859   0.23932   0.01267  Uiso   1.00
C166   C     0.24714   0.58332   0.15903   0.01267  Uiso   1.00
C167   C     0.51765   0.37569   0.01472   0.01267  Uiso   1.00
C168   C     0.61541   0.29289   0.94902   0.01267  Uiso   1.00
C169   C     0.52344   0.34370   0.95628   0.01267  Uiso   1.00
C170   C     0.69252   0.30319   0.05173   0.01267  Uiso   1.00
C171   C     0.60442   0.35428   0.06380   0.01267  Uiso   1.00
C172   C     0.42264   0.43116   0.02477   0.01267  Uiso   1.00
C173   C     0.25103   0.49570   0.98635   0.01267  Uiso   1.00
C174   C     0.24790   0.52592   0.04650   0.01267  Uiso   1.00
C175   C     0.15441   0.57599   0.05845   0.01267  Uiso   1.00
C176   C     0.34255   0.50743   0.09396   0.01267  Uiso   1.00
N1     N     0.72137   0.81102   0.88601   0.01267  Uiso   1.00
N2     N     0.33413   0.93911   0.98385   0.01267  Uiso   1.00
N3     N     0.43412   0.01157   0.90499   0.01267  Uiso   1.00
N4     N     0.27670   0.34837   0.83355   0.01267  Uiso   1.00
N5     N     0.34813   0.11697   0.89555   0.01267  Uiso   1.00
N6     N     0.15475   0.15119   0.96178   0.01267  Uiso   1.00
N7     N     0.80064   0.99551   0.22786   0.01267  Uiso   1.00
N8     N     0.06786   0.08284   0.04095   0.01267  Uiso   1.00
N9     N     0.15990   0.97537   0.05345   0.01267  Uiso   1.00
N10    N     0.72137   0.68898   0.61399   0.01267  Uiso   1.00
N11    N     0.33413   0.56089   0.51615   0.01267  Uiso   1.00
N12    N     0.43412   0.48843   0.59501   0.01267  Uiso   1.00
N13    N     0.27670   0.15163   0.66645   0.01267  Uiso   1.00
N14    N     0.34813   0.38303   0.60445   0.01267  Uiso   1.00
N15    N     0.15475   0.34881   0.53822   0.01267  Uiso   1.00
N16    N     0.80064   0.50449   0.27214   0.01267  Uiso   1.00
N17    N     0.06786   0.41716   0.45905   0.01267  Uiso   1.00
N18    N     0.15990   0.52463   0.44655   0.01267  Uiso   1.00
N19    N     0.22137   0.11399   0.31102   0.01267  Uiso   1.00
N20    N     0.83413   0.01615   0.43911   0.01267  Uiso   1.00
N21    N     0.93412   0.09501   0.51157   0.01267  Uiso   1.00
N22    N     0.77670   0.16645   0.84837   0.01267  Uiso   1.00
N23    N     0.84813   0.10445   0.61697   0.01267  Uiso   1.00
N24    N     0.65475   0.03822   0.65119   0.01267  Uiso   1.00
N25    N     0.30064   0.77214   0.49551   0.01267  Uiso   1.00
N26    N     0.56786   0.95905   0.58284   0.01267  Uiso   1.00
N27    N     0.65990   0.94655   0.47537   0.01267  Uiso   1.00
N28    N     0.22137   0.38601   0.18898   0.01267  Uiso   1.00
N29    N     0.83413   0.48385   0.06089   0.01267  Uiso   1.00
N30    N     0.93412   0.40499   0.98843   0.01267  Uiso   1.00
N31    N     0.77670   0.33355   0.65163   0.01267  Uiso   1.00
N32    N     0.84813   0.39555   0.88303   0.01267  Uiso   1.00
N33    N     0.65475   0.46178   0.84881   0.01267  Uiso   1.00
N34    N     0.30064   0.72786   0.00449   0.01267  Uiso   1.00
N35    N     0.56786   0.54095   0.91716   0.01267  Uiso   1.00
N36    N     0.65990   0.55345   0.02463   0.01267  Uiso   1.00
N37    N     0.27863   0.18898   0.11399   0.01267  Uiso   1.00
N38    N     0.66587   0.06089   0.01615   0.01267  Uiso   1.00
N39    N     0.56588   0.98843   0.09501   0.01267  Uiso   1.00
N40    N     0.72330   0.65163   0.16645   0.01267  Uiso   1.00
N41    N     0.65187   0.88303   0.10445   0.01267  Uiso   1.00
N42    N     0.84525   0.84881   0.03822   0.01267  Uiso   1.00
N43    N     0.19936   0.00449   0.77214   0.01267  Uiso   1.00
N44    N     0.93214   0.91716   0.95905   0.01267  Uiso   1.00
N45    N     0.84010   0.02463   0.94655   0.01267  Uiso   1.00
N46    N     0.27863   0.31102   0.38601   0.01267  Uiso   1.00
N47    N     0.66587   0.43911   0.48385   0.01267  Uiso   1.00
N48    N     0.56588   0.51157   0.40499   0.01267  Uiso   1.00
N49    N     0.72330   0.84837   0.33355   0.01267  Uiso   1.00
N50    N     0.65187   0.61697   0.39555   0.01267  Uiso   1.00
N51    N     0.84525   0.65119   0.46178   0.01267  Uiso   1.00
N52    N     0.19936   0.49551   0.72786   0.01267  Uiso   1.00
N53    N     0.93214   0.58284   0.54095   0.01267  Uiso   1.00
N54    N     0.84010   0.47537   0.55345   0.01267  Uiso   1.00
N55    N     0.77863   0.88601   0.68898   0.01267  Uiso   1.00
N56    N     0.16587   0.98385   0.56089   0.01267  Uiso   1.00
N57    N     0.06588   0.90499   0.48843   0.01267  Uiso   1.00
N58    N     0.22330   0.83355   0.15163   0.01267  Uiso   1.00
N59    N     0.15187   0.89555   0.38303   0.01267  Uiso   1.00
N60    N     0.34525   0.96178   0.34881   0.01267  Uiso   1.00
N61    N     0.69936   0.22786   0.50449   0.01267  Uiso   1.00
N62    N     0.43214   0.04095   0.41716   0.01267  Uiso   1.00
N63    N     0.34010   0.05345   0.52463   0.01267  Uiso   1.00
N64    N     0.77863   0.61399   0.81102   0.01267  Uiso   1.00
N65    N     0.16587   0.51615   0.93911   0.01267  Uiso   1.00
N66    N     0.06588   0.59501   0.01157   0.01267  Uiso   1.00
N67    N     0.22330   0.66645   0.34837   0.01267  Uiso   1.00
N68    N     0.15187   0.60445   0.11697   0.01267  Uiso   1.00
N69    N     0.34525   0.53822   0.15119   0.01267  Uiso   1.00
N70    N     0.69936   0.27214   0.99551   0.01267  Uiso   1.00
N71    N     0.43214   0.45905   0.08284   0.01267  Uiso   1.00
N72    N     0.34010   0.44655   0.97537   0.01267  Uiso   1.00
