data_ZERNIV_clean
_audit_creation_date              2014-07-02
_audit_creation_method            'Materials Studio'
_symmetry_space_group_name_H-M    'P1'
_symmetry_Int_Tables_number       1
_symmetry_cell_setting            triclinic
loop_
_symmetry_equiv_pos_as_xyz
  x,y,z
_cell_length_a                    12.7880
_cell_length_b                    13.6700
_cell_length_c                    14.2110
_cell_angle_alpha                 66.1690
_cell_angle_beta                  66.9470
_cell_angle_gamma                 77.0190
loop_
_atom_site_label
_atom_site_type_symbol
_atom_site_fract_x
_atom_site_fract_y
_atom_site_fract_z
_atom_site_U_iso_or_equiv
_atom_site_adp_type
_atom_site_occupancy
Tb1    Tb    0.57149   0.11865   0.98857   0.01267  Uiso   1.00
Tb2    Tb    0.56828   0.17978   0.33516   0.01267  Uiso   1.00
Tb3    Tb    0.42851   0.88135   0.01143   0.01267  Uiso   1.00
Tb4    Tb    0.43172   0.82022   0.66484   0.01267  Uiso   1.00
H1     H     0.65300   0.32540   0.89340   0.01267  Uiso   1.00
H2     H     0.58920   0.25650   0.85980   0.01267  Uiso   1.00
H3     H     0.55400   0.30570   0.47720   0.01267  Uiso   1.00
H4     H     0.47960   0.22120   0.47300   0.01267  Uiso   1.00
H5     H     0.32720   0.32740   0.00310   0.01267  Uiso   1.00
H6     H     0.22290   0.63250   0.97220   0.01267  Uiso   1.00
H7     H     0.40550   0.47130   0.15860   0.01267  Uiso   1.00
H8     H     0.11780   0.35460   0.01310   0.01267  Uiso   1.00
H9     H     0.00710   0.35630   0.91930   0.01267  Uiso   1.00
H10    H     0.01590   0.48980   0.75440   0.01267  Uiso   1.00
H11    H     0.13800   0.62320   0.68280   0.01267  Uiso   1.00
H12    H     0.67210   0.91950   0.74470   0.01267  Uiso   1.00
H13    H     0.77720   0.81540   0.64070   0.01267  Uiso   1.00
H14    H     0.95270   0.73660   0.65110   0.01267  Uiso   1.00
H15    H     0.02490   0.76430   0.76280   0.01267  Uiso   1.00
H16    H     0.80510   0.86800   0.02400   0.01267  Uiso   1.00
H17    H     0.07440   0.87110   0.08420   0.01267  Uiso   1.00
H18    H     0.10830   0.87010   0.79280   0.01267  Uiso   1.00
H19    H     0.14680   0.98810   0.55760   0.01267  Uiso   1.00
H20    H     0.95450   0.04400   0.61040   0.01267  Uiso   1.00
H21    H     0.89220   0.18060   0.68000   0.01267  Uiso   1.00
H22    H     0.01930   0.26160   0.69720   0.01267  Uiso   1.00
H23    H     0.20490   0.38030   0.57740   0.01267  Uiso   1.00
H24    H     0.41680   0.34350   0.72710   0.01267  Uiso   1.00
H25    H     0.29920   0.08420   0.75010   0.01267  Uiso   1.00
H26    H     0.34700   0.67460   0.10660   0.01267  Uiso   1.00
H27    H     0.41080   0.74350   0.14020   0.01267  Uiso   1.00
H28    H     0.44600   0.69430   0.52280   0.01267  Uiso   1.00
H29    H     0.52040   0.77880   0.52700   0.01267  Uiso   1.00
H30    H     0.67280   0.67260   0.99690   0.01267  Uiso   1.00
H31    H     0.77710   0.36750   0.02780   0.01267  Uiso   1.00
H32    H     0.59450   0.52870   0.84140   0.01267  Uiso   1.00
H33    H     0.88220   0.64540   0.98690   0.01267  Uiso   1.00
H34    H     0.99290   0.64370   0.08070   0.01267  Uiso   1.00
H35    H     0.98410   0.51020   0.24560   0.01267  Uiso   1.00
H36    H     0.86200   0.37680   0.31720   0.01267  Uiso   1.00
H37    H     0.32790   0.08050   0.25530   0.01267  Uiso   1.00
H38    H     0.22280   0.18460   0.35930   0.01267  Uiso   1.00
H39    H     0.04730   0.26340   0.34890   0.01267  Uiso   1.00
H40    H     0.97510   0.23570   0.23720   0.01267  Uiso   1.00
H41    H     0.19490   0.13200   0.97600   0.01267  Uiso   1.00
H42    H     0.92560   0.12890   0.91580   0.01267  Uiso   1.00
H43    H     0.89170   0.12990   0.20720   0.01267  Uiso   1.00
H44    H     0.85320   0.01190   0.44240   0.01267  Uiso   1.00
H45    H     0.04550   0.95600   0.38960   0.01267  Uiso   1.00
H46    H     0.10780   0.81940   0.32000   0.01267  Uiso   1.00
H47    H     0.98070   0.73840   0.30280   0.01267  Uiso   1.00
H48    H     0.79510   0.61970   0.42260   0.01267  Uiso   1.00
H49    H     0.58320   0.65650   0.27290   0.01267  Uiso   1.00
H50    H     0.70080   0.91580   0.24990   0.01267  Uiso   1.00
C1     C     0.43910   0.28250   0.14250   0.01267  Uiso   1.00
C2     C     0.37440   0.38320   0.09110   0.01267  Uiso   1.00
C3     C     0.32240   0.38740   0.02050   0.01267  Uiso   1.00
C4     C     0.26260   0.48260   0.97550   0.01267  Uiso   1.00
C5     C     0.26210   0.56860   0.00220   0.01267  Uiso   1.00
C6     C     0.36920   0.47430   0.11210   0.01267  Uiso   1.00
C7     C     0.19760   0.48780   0.90540   0.01267  Uiso   1.00
C8     C     0.12280   0.40910   0.94620   0.01267  Uiso   1.00
C9     C     0.05620   0.41010   0.89020   0.01267  Uiso   1.00
C10    C     0.06140   0.48930   0.79210   0.01267  Uiso   1.00
C11    C     0.13480   0.56870   0.74930   0.01267  Uiso   1.00
C12    C     0.20410   0.56820   0.80460   0.01267  Uiso   1.00
C13    C     0.28510   0.65490   0.75050   0.01267  Uiso   1.00
C14    C     0.71040   0.97690   0.87730   0.01267  Uiso   1.00
C15    C     0.78460   0.90410   0.81770   0.01267  Uiso   1.00
C16    C     0.74330   0.88790   0.74880   0.01267  Uiso   1.00
C17    C     0.80600   0.82570   0.68650   0.01267  Uiso   1.00
C18    C     0.91030   0.77940   0.69240   0.01267  Uiso   1.00
C19    C     0.95330   0.79610   0.75990   0.01267  Uiso   1.00
C20    C     0.89310   0.85870   0.82320   0.01267  Uiso   1.00
C21    C     0.94530   0.86870   0.89600   0.01267  Uiso   1.00
C22    C     0.88380   0.86890   0.00060   0.01267  Uiso   1.00
C23    C     0.04160   0.86990   0.03680   0.01267  Uiso   1.00
C24    C     0.11300   0.86780   0.93470   0.01267  Uiso   1.00
C25    C     0.06300   0.86910   0.86270   0.01267  Uiso   1.00
C26    C     0.23930   0.86270   0.90310   0.01267  Uiso   1.00
C27    C     0.32380   0.06620   0.53750   0.01267  Uiso   1.00
C28    C     0.19970   0.09560   0.58980   0.01267  Uiso   1.00
C29    C     0.12170   0.04450   0.58380   0.01267  Uiso   1.00
C30    C     0.00650   0.07710   0.61650   0.01267  Uiso   1.00
C31    C     0.96940   0.15850   0.65810   0.01267  Uiso   1.00
C32    C     0.04570   0.20760   0.66750   0.01267  Uiso   1.00
C33    C     0.16230   0.17750   0.63320   0.01267  Uiso   1.00
C34    C     0.23940   0.22460   0.65680   0.01267  Uiso   1.00
C35    C     0.24740   0.33460   0.62100   0.01267  Uiso   1.00
C36    C     0.37200   0.31360   0.70910   0.01267  Uiso   1.00
C37    C     0.36970   0.20280   0.74960   0.01267  Uiso   1.00
C38    C     0.30230   0.15820   0.72340   0.01267  Uiso   1.00
C39    C     0.43730   0.13230   0.82100   0.01267  Uiso   1.00
C40    C     0.56090   0.71750   0.85750   0.01267  Uiso   1.00
C41    C     0.62560   0.61680   0.90890   0.01267  Uiso   1.00
C42    C     0.67760   0.61260   0.97950   0.01267  Uiso   1.00
C43    C     0.73740   0.51740   0.02450   0.01267  Uiso   1.00
C44    C     0.73790   0.43140   0.99780   0.01267  Uiso   1.00
C45    C     0.63080   0.52570   0.88790   0.01267  Uiso   1.00
C46    C     0.80240   0.51220   0.09460   0.01267  Uiso   1.00
C47    C     0.87720   0.59090   0.05380   0.01267  Uiso   1.00
C48    C     0.94380   0.58990   0.10980   0.01267  Uiso   1.00
C49    C     0.93860   0.51070   0.20790   0.01267  Uiso   1.00
C50    C     0.86520   0.43130   0.25070   0.01267  Uiso   1.00
C51    C     0.79590   0.43180   0.19540   0.01267  Uiso   1.00
C52    C     0.71490   0.34510   0.24950   0.01267  Uiso   1.00
C53    C     0.28960   0.02310   0.12270   0.01267  Uiso   1.00
C54    C     0.21540   0.09590   0.18230   0.01267  Uiso   1.00
C55    C     0.25670   0.11210   0.25120   0.01267  Uiso   1.00
C56    C     0.19400   0.17430   0.31350   0.01267  Uiso   1.00
C57    C     0.08970   0.22060   0.30760   0.01267  Uiso   1.00
C58    C     0.04670   0.20390   0.24010   0.01267  Uiso   1.00
C59    C     0.10690   0.14130   0.17680   0.01267  Uiso   1.00
C60    C     0.05470   0.13130   0.10400   0.01267  Uiso   1.00
C61    C     0.11620   0.13110   0.99940   0.01267  Uiso   1.00
C62    C     0.95840   0.13010   0.96320   0.01267  Uiso   1.00
C63    C     0.88700   0.13220   0.06530   0.01267  Uiso   1.00
C64    C     0.93700   0.13090   0.13730   0.01267  Uiso   1.00
C65    C     0.76070   0.13730   0.09690   0.01267  Uiso   1.00
C66    C     0.67620   0.93380   0.46250   0.01267  Uiso   1.00
C67    C     0.80030   0.90440   0.41020   0.01267  Uiso   1.00
C68    C     0.87830   0.95550   0.41620   0.01267  Uiso   1.00
C69    C     0.99350   0.92290   0.38350   0.01267  Uiso   1.00
C70    C     0.03060   0.84150   0.34190   0.01267  Uiso   1.00
C71    C     0.95430   0.79240   0.33250   0.01267  Uiso   1.00
C72    C     0.83770   0.82250   0.36680   0.01267  Uiso   1.00
C73    C     0.76060   0.77540   0.34320   0.01267  Uiso   1.00
C74    C     0.75260   0.66540   0.37900   0.01267  Uiso   1.00
C75    C     0.62800   0.68640   0.29090   0.01267  Uiso   1.00
C76    C     0.63030   0.79720   0.25040   0.01267  Uiso   1.00
C77    C     0.69770   0.84180   0.27660   0.01267  Uiso   1.00
C78    C     0.56270   0.86770   0.17900   0.01267  Uiso   1.00
N1     N     0.31410   0.56720   0.06850   0.01267  Uiso   1.00
N2     N     0.92840   0.87030   0.07070   0.01267  Uiso   1.00
N3     N     0.31240   0.37870   0.64540   0.01267  Uiso   1.00
N4     N     0.68590   0.43280   0.93150   0.01267  Uiso   1.00
N5     N     0.07160   0.12970   0.92930   0.01267  Uiso   1.00
N6     N     0.68760   0.62130   0.35460   0.01267  Uiso   1.00
O1     O     0.47410   0.21520   0.09670   0.01267  Uiso   1.00
O2     O     0.45140   0.27260   0.22950   0.01267  Uiso   1.00
O3     O     0.25820   0.74590   0.68860   0.01267  Uiso   1.00
O4     O     0.37850   0.63670   0.76550   0.01267  Uiso   1.00
O5     O     0.74330   0.06100   0.86500   0.01267  Uiso   1.00
O6     O     0.60980   0.95270   0.93930   0.01267  Uiso   1.00
O7     O     0.27770   0.85990   0.97230   0.01267  Uiso   1.00
O8     O     0.29940   0.85960   0.81030   0.01267  Uiso   1.00
O9     O     0.38730   0.14080   0.47800   0.01267  Uiso   1.00
O10    O     0.35550   0.96840   0.55080   0.01267  Uiso   1.00
O11    O     0.43240   0.03220   0.85110   0.01267  Uiso   1.00
O12    O     0.49350   0.17540   0.84720   0.01267  Uiso   1.00
O13    O     0.63160   0.29200   0.86550   0.01267  Uiso   1.00
O14    O     0.52450   0.26020   0.47060   0.01267  Uiso   1.00
O15    O     0.52590   0.78480   0.90330   0.01267  Uiso   1.00
O16    O     0.54860   0.72740   0.77050   0.01267  Uiso   1.00
O17    O     0.74180   0.25410   0.31140   0.01267  Uiso   1.00
O18    O     0.62150   0.36330   0.23450   0.01267  Uiso   1.00
O19    O     0.25670   0.93900   0.13500   0.01267  Uiso   1.00
O20    O     0.39020   0.04730   0.06070   0.01267  Uiso   1.00
O21    O     0.72230   0.14010   0.02770   0.01267  Uiso   1.00
O22    O     0.70060   0.14040   0.18970   0.01267  Uiso   1.00
O23    O     0.61270   0.85920   0.52200   0.01267  Uiso   1.00
O24    O     0.64450   0.03160   0.44920   0.01267  Uiso   1.00
O25    O     0.56760   0.96780   0.14890   0.01267  Uiso   1.00
O26    O     0.50650   0.82460   0.15280   0.01267  Uiso   1.00
O27    O     0.36840   0.70800   0.13450   0.01267  Uiso   1.00
O28    O     0.47550   0.73980   0.52940   0.01267  Uiso   1.00
