data_ZERNOB_clean
_audit_creation_date              2014-07-02
_audit_creation_method            'Materials Studio'
_symmetry_space_group_name_H-M    'P1'
_symmetry_Int_Tables_number       1
_symmetry_cell_setting            triclinic
loop_
_symmetry_equiv_pos_as_xyz
  x,y,z
_cell_length_a                    12.7551
_cell_length_b                    13.6170
_cell_length_c                    14.1370
_cell_angle_alpha                 66.2800
_cell_angle_beta                  67.1400
_cell_angle_gamma                 77.1490
loop_
_atom_site_label
_atom_site_type_symbol
_atom_site_fract_x
_atom_site_fract_y
_atom_site_fract_z
_atom_site_U_iso_or_equiv
_atom_site_adp_type
_atom_site_occupancy
Ho1    Ho    0.57112   0.11820   0.98874   0.01267  Uiso   1.00
Ho2    Ho    0.56801   0.17920   0.33486   0.01267  Uiso   1.00
Ho3    Ho    0.42888   0.88180   0.01126   0.01267  Uiso   1.00
Ho4    Ho    0.43199   0.82080   0.66514   0.01267  Uiso   1.00
H1     H     0.65160   0.32400   0.89390   0.01267  Uiso   1.00
H2     H     0.58720   0.25500   0.86100   0.01267  Uiso   1.00
H3     H     0.58840   0.25810   0.42320   0.01267  Uiso   1.00
H4     H     0.47840   0.22070   0.47240   0.01267  Uiso   1.00
H5     H     0.40640   0.47060   0.15890   0.01267  Uiso   1.00
H6     H     0.22210   0.63300   0.97350   0.01267  Uiso   1.00
H7     H     0.32560   0.32690   0.00300   0.01267  Uiso   1.00
H8     H     0.11740   0.35530   0.01270   0.01267  Uiso   1.00
H9     H     0.00630   0.35730   0.91780   0.01267  Uiso   1.00
H10    H     0.01650   0.49000   0.75140   0.01267  Uiso   1.00
H11    H     0.13960   0.62470   0.68000   0.01267  Uiso   1.00
H12    H     0.67150   0.92170   0.74380   0.01267  Uiso   1.00
H13    H     0.77630   0.81450   0.64090   0.01267  Uiso   1.00
H14    H     0.95280   0.73620   0.65080   0.01267  Uiso   1.00
H15    H     0.02430   0.76260   0.76450   0.01267  Uiso   1.00
H16    H     0.80500   0.86940   0.02400   0.01267  Uiso   1.00
H17    H     0.07700   0.87050   0.08440   0.01267  Uiso   1.00
H18    H     0.10790   0.87080   0.79280   0.01267  Uiso   1.00
H19    H     0.14690   0.98680   0.55530   0.01267  Uiso   1.00
H20    H     0.95370   0.04350   0.60920   0.01267  Uiso   1.00
H21    H     0.89190   0.17940   0.67950   0.01267  Uiso   1.00
H22    H     0.01960   0.26200   0.69510   0.01267  Uiso   1.00
H23    H     0.20400   0.38060   0.57660   0.01267  Uiso   1.00
H24    H     0.41600   0.34300   0.72820   0.01267  Uiso   1.00
H25    H     0.29740   0.08410   0.75090   0.01267  Uiso   1.00
H26    H     0.34840   0.67600   0.10610   0.01267  Uiso   1.00
H27    H     0.41280   0.74500   0.13900   0.01267  Uiso   1.00
H28    H     0.41160   0.74190   0.57680   0.01267  Uiso   1.00
H29    H     0.52160   0.77930   0.52760   0.01267  Uiso   1.00
H30    H     0.59360   0.52940   0.84110   0.01267  Uiso   1.00
H31    H     0.77790   0.36700   0.02650   0.01267  Uiso   1.00
H32    H     0.67440   0.67310   0.99700   0.01267  Uiso   1.00
H33    H     0.88260   0.64470   0.98730   0.01267  Uiso   1.00
H34    H     0.99370   0.64270   0.08220   0.01267  Uiso   1.00
H35    H     0.98350   0.51000   0.24860   0.01267  Uiso   1.00
H36    H     0.86040   0.37530   0.32000   0.01267  Uiso   1.00
H37    H     0.32850   0.07830   0.25620   0.01267  Uiso   1.00
H38    H     0.22370   0.18550   0.35910   0.01267  Uiso   1.00
H39    H     0.04720   0.26380   0.34920   0.01267  Uiso   1.00
H40    H     0.97570   0.23740   0.23550   0.01267  Uiso   1.00
H41    H     0.19500   0.13060   0.97600   0.01267  Uiso   1.00
H42    H     0.92300   0.12950   0.91560   0.01267  Uiso   1.00
H43    H     0.89210   0.12920   0.20720   0.01267  Uiso   1.00
H44    H     0.85310   0.01320   0.44470   0.01267  Uiso   1.00
H45    H     0.04630   0.95650   0.39080   0.01267  Uiso   1.00
H46    H     0.10810   0.82060   0.32050   0.01267  Uiso   1.00
H47    H     0.98040   0.73800   0.30490   0.01267  Uiso   1.00
H48    H     0.79600   0.61940   0.42340   0.01267  Uiso   1.00
H49    H     0.58400   0.65700   0.27180   0.01267  Uiso   1.00
H50    H     0.70260   0.91590   0.24910   0.01267  Uiso   1.00
C1     C     0.43900   0.28130   0.14320   0.01267  Uiso   1.00
C2     C     0.37490   0.38240   0.09090   0.01267  Uiso   1.00
C3     C     0.37000   0.47380   0.11200   0.01267  Uiso   1.00
C4     C     0.26220   0.56910   0.00250   0.01267  Uiso   1.00
C5     C     0.26320   0.48230   0.97450   0.01267  Uiso   1.00
C6     C     0.32190   0.38710   0.02000   0.01267  Uiso   1.00
C7     C     0.19810   0.48840   0.90440   0.01267  Uiso   1.00
C8     C     0.12270   0.40980   0.94540   0.01267  Uiso   1.00
C9     C     0.05590   0.41100   0.88850   0.01267  Uiso   1.00
C10    C     0.06150   0.48980   0.78980   0.01267  Uiso   1.00
C11    C     0.13590   0.57030   0.74710   0.01267  Uiso   1.00
C12    C     0.20470   0.57050   0.80330   0.01267  Uiso   1.00
C13    C     0.28450   0.65630   0.74970   0.01267  Uiso   1.00
C14    C     0.70870   0.97840   0.87690   0.01267  Uiso   1.00
C15    C     0.78400   0.90520   0.81790   0.01267  Uiso   1.00
C16    C     0.74250   0.88930   0.74880   0.01267  Uiso   1.00
C17    C     0.80540   0.82540   0.68650   0.01267  Uiso   1.00
C18    C     0.91030   0.77880   0.69250   0.01267  Uiso   1.00
C19    C     0.95310   0.79510   0.76080   0.01267  Uiso   1.00
C20    C     0.89210   0.85920   0.82430   0.01267  Uiso   1.00
C21    C     0.94590   0.86920   0.89590   0.01267  Uiso   1.00
C22    C     0.88390   0.86960   0.00100   0.01267  Uiso   1.00
C23    C     0.04340   0.86950   0.03700   0.01267  Uiso   1.00
C24    C     0.11380   0.86740   0.93490   0.01267  Uiso   1.00
C25    C     0.06290   0.86940   0.86310   0.01267  Uiso   1.00
C26    C     0.24080   0.86260   0.90250   0.01267  Uiso   1.00
C27    C     0.32570   0.06490   0.53580   0.01267  Uiso   1.00
C28    C     0.20060   0.09390   0.58840   0.01267  Uiso   1.00
C29    C     0.12220   0.04320   0.58190   0.01267  Uiso   1.00
C30    C     0.00600   0.07650   0.61540   0.01267  Uiso   1.00
C31    C     0.96930   0.15760   0.65700   0.01267  Uiso   1.00
C32    C     0.04590   0.20730   0.66600   0.01267  Uiso   1.00
C33    C     0.16200   0.17720   0.63220   0.01267  Uiso   1.00
C34    C     0.23950   0.22510   0.65580   0.01267  Uiso   1.00
C35    C     0.24690   0.33510   0.62000   0.01267  Uiso   1.00
C36    C     0.37140   0.31320   0.70940   0.01267  Uiso   1.00
C37    C     0.36930   0.20280   0.74980   0.01267  Uiso   1.00
C38    C     0.30150   0.15820   0.72350   0.01267  Uiso   1.00
C39    C     0.43550   0.13210   0.82330   0.01267  Uiso   1.00
C40    C     0.56100   0.71870   0.85680   0.01267  Uiso   1.00
C41    C     0.62510   0.61760   0.90910   0.01267  Uiso   1.00
C42    C     0.63000   0.52620   0.88800   0.01267  Uiso   1.00
C43    C     0.73780   0.43090   0.99750   0.01267  Uiso   1.00
C44    C     0.73680   0.51770   0.02550   0.01267  Uiso   1.00
C45    C     0.67810   0.61290   0.98000   0.01267  Uiso   1.00
C46    C     0.80190   0.51160   0.09560   0.01267  Uiso   1.00
C47    C     0.87730   0.59020   0.05460   0.01267  Uiso   1.00
C48    C     0.94410   0.58900   0.11150   0.01267  Uiso   1.00
C49    C     0.93850   0.51020   0.21020   0.01267  Uiso   1.00
C50    C     0.86410   0.42970   0.25290   0.01267  Uiso   1.00
C51    C     0.79530   0.42950   0.19670   0.01267  Uiso   1.00
C52    C     0.71550   0.34370   0.25030   0.01267  Uiso   1.00
C53    C     0.29130   0.02160   0.12310   0.01267  Uiso   1.00
C54    C     0.21600   0.09480   0.18210   0.01267  Uiso   1.00
C55    C     0.25750   0.11070   0.25120   0.01267  Uiso   1.00
C56    C     0.19460   0.17460   0.31350   0.01267  Uiso   1.00
C57    C     0.08970   0.22120   0.30750   0.01267  Uiso   1.00
C58    C     0.04690   0.20490   0.23920   0.01267  Uiso   1.00
C59    C     0.10790   0.14080   0.17570   0.01267  Uiso   1.00
C60    C     0.05410   0.13080   0.10410   0.01267  Uiso   1.00
C61    C     0.11610   0.13040   0.99900   0.01267  Uiso   1.00
C62    C     0.95660   0.13050   0.96300   0.01267  Uiso   1.00
C63    C     0.88620   0.13260   0.06510   0.01267  Uiso   1.00
C64    C     0.93710   0.13060   0.13690   0.01267  Uiso   1.00
C65    C     0.75920   0.13740   0.09750   0.01267  Uiso   1.00
C66    C     0.67430   0.93510   0.46420   0.01267  Uiso   1.00
C67    C     0.79940   0.90610   0.41160   0.01267  Uiso   1.00
C68    C     0.87780   0.95680   0.41810   0.01267  Uiso   1.00
C69    C     0.99400   0.92350   0.38460   0.01267  Uiso   1.00
C70    C     0.03070   0.84240   0.34300   0.01267  Uiso   1.00
C71    C     0.95410   0.79270   0.33400   0.01267  Uiso   1.00
C72    C     0.83800   0.82280   0.36780   0.01267  Uiso   1.00
C73    C     0.76050   0.77490   0.34420   0.01267  Uiso   1.00
C74    C     0.75310   0.66490   0.38000   0.01267  Uiso   1.00
C75    C     0.62860   0.68680   0.29060   0.01267  Uiso   1.00
C76    C     0.63070   0.79720   0.25020   0.01267  Uiso   1.00
C77    C     0.69850   0.84180   0.27650   0.01267  Uiso   1.00
C78    C     0.56450   0.86790   0.17670   0.01267  Uiso   1.00
N1     N     0.31550   0.56700   0.06850   0.01267  Uiso   1.00
N2     N     0.92930   0.87020   0.07200   0.01267  Uiso   1.00
N3     N     0.31210   0.37970   0.64430   0.01267  Uiso   1.00
N4     N     0.68450   0.43300   0.93150   0.01267  Uiso   1.00
N5     N     0.07070   0.12980   0.92800   0.01267  Uiso   1.00
N6     N     0.68790   0.62030   0.35570   0.01267  Uiso   1.00
O1     O     0.47430   0.21280   0.09680   0.01267  Uiso   1.00
O2     O     0.45260   0.27070   0.22940   0.01267  Uiso   1.00
O3     O     0.37910   0.63880   0.76530   0.01267  Uiso   1.00
O4     O     0.25860   0.74800   0.68700   0.01267  Uiso   1.00
O5     O     0.60770   0.95470   0.93830   0.01267  Uiso   1.00
O6     O     0.74290   0.06210   0.86610   0.01267  Uiso   1.00
O7     O     0.30070   0.86000   0.80900   0.01267  Uiso   1.00
O8     O     0.28010   0.85860   0.97220   0.01267  Uiso   1.00
O9     O     0.38850   0.14050   0.47590   0.01267  Uiso   1.00
O10    O     0.35720   0.96650   0.55040   0.01267  Uiso   1.00
O11    O     0.42980   0.03140   0.85360   0.01267  Uiso   1.00
O12    O     0.49210   0.17560   0.84920   0.01267  Uiso   1.00
O13    O     0.63020   0.29050   0.86650   0.01267  Uiso   1.00
O14    O     0.52270   0.26020   0.47070   0.01267  Uiso   1.00
O15    O     0.52570   0.78720   0.90320   0.01267  Uiso   1.00
O16    O     0.54740   0.72930   0.77060   0.01267  Uiso   1.00
O17    O     0.62090   0.36120   0.23470   0.01267  Uiso   1.00
O18    O     0.74140   0.25200   0.31300   0.01267  Uiso   1.00
O19    O     0.39230   0.04530   0.06170   0.01267  Uiso   1.00
O20    O     0.25710   0.93790   0.13390   0.01267  Uiso   1.00
O21    O     0.69930   0.14000   0.19100   0.01267  Uiso   1.00
O22    O     0.71990   0.14140   0.02780   0.01267  Uiso   1.00
O23    O     0.61150   0.85950   0.52410   0.01267  Uiso   1.00
O24    O     0.64280   0.03350   0.44960   0.01267  Uiso   1.00
O25    O     0.57020   0.96860   0.14640   0.01267  Uiso   1.00
O26    O     0.50790   0.82440   0.15080   0.01267  Uiso   1.00
O27    O     0.36980   0.70950   0.13350   0.01267  Uiso   1.00
O28    O     0.47730   0.73980   0.52930   0.01267  Uiso   1.00
