data_image0
_cell_length_a       15.1869
_cell_length_b       24.1587
_cell_length_c       15.8511
_cell_angle_alpha    90
_cell_angle_beta     111.141
_cell_angle_gamma    90

_symmetry_space_group_name_H-M    "P 1"
_symmetry_int_tables_number       1

loop_
  _symmetry_equiv_pos_as_xyz
  'x, y, z'

loop_
  _atom_site_label
  _atom_site_occupancy
  _atom_site_fract_x
  _atom_site_fract_y
  _atom_site_fract_z
  _atom_site_thermal_displace_type
  _atom_site_B_iso_or_equiv
  _atom_site_type_symbol
  Zn1      1.0000 0.57358  0.48734  0.36179  Biso   1.000  Zn
  O1       1.0000 0.67140  0.56556  0.35700  Biso   1.000  O
  O2       1.0000 0.52740  0.56422  0.35770  Biso   1.000  O
  O3       1.0000 0.59340  0.82411  0.36510  Biso   1.000  O
  O4       1.0000 0.87000  0.94646  0.21150  Biso   1.000  O
  O5       1.0000 0.95950  0.94544  0.35740  Biso   1.000  O
  N1       1.0000 0.65800  0.46782  0.48880  Biso   1.000  N
  C1       1.0000 0.62400  0.44950  0.55120  Biso   1.000  C
  H1       1.0000 0.55880  0.44050  0.53180  Biso   1.000  H
  C2       1.0000 0.67720  0.44280  0.64090  Biso   1.000  C
  H2       1.0000 0.64960  0.42880  0.68160  Biso   1.000  H
  C3       1.0000 0.77280  0.45670  0.67170  Biso   1.000  C
  C4       1.0000 0.80890  0.47360  0.60730  Biso   1.000  C
  H3       1.0000 0.87420  0.48190  0.62480  Biso   1.000  H
  C5       1.0000 0.75080  0.47860  0.51820  Biso   1.000  C
  H4       1.0000 0.77760  0.49030  0.47540  Biso   1.000  H
  C6       1.0000 0.82730  0.45660  0.76880  Biso   1.000  C
  H5       1.0000 0.80880  0.43160  0.80560  Biso   1.000  H
  C7       1.0000 0.90100  0.48920  0.80890  Biso   1.000  C
  H6       1.0000 0.92270  0.51140  0.77100  Biso   1.000  H
  C8       1.0000 0.95160  0.49380  0.90650  Biso   1.000  C
  C9       1.0000 0.00640  0.54050  0.94090  Biso   1.000  C
  H7       1.0000 0.01130  0.56850  0.90070  Biso   1.000  H
  C10      1.0000 0.94630  0.45350  0.96710  Biso   1.000  C
  H8       1.0000 0.90950  0.42120  0.94480  Biso   1.000  H
  C11      1.0000 0.59950  0.59050  0.35700  Biso   1.000  C
  C12      1.0000 0.59800  0.65190  0.35740  Biso   1.000  C
  C13      1.0000 0.67170  0.68070  0.34700  Biso   1.000  C
  H9       1.0000 0.72250  0.66130  0.33930  Biso   1.000  H
  C14      1.0000 0.67180  0.73810  0.34790  Biso   1.000  C
  H10      1.0000 0.72170  0.75800  0.33910  Biso   1.000  H
  C15      1.0000 0.59930  0.76600  0.36160  Biso   1.000  C
  C16      1.0000 0.52490  0.73750  0.37270  Biso   1.000  C
  H11      1.0000 0.47490  0.75690  0.38200  Biso   1.000  H
  C17      1.0000 0.52470  0.68060  0.36980  Biso   1.000  C
  H12      1.0000 0.47360  0.66070  0.37650  Biso   1.000  H
  C18      1.0000 0.88430  0.93520  0.29250  Biso   1.000  C
  C19      1.0000 0.80640  0.90730  0.31120  Biso   1.000  C
  C20      1.0000 0.72620  0.89160  0.24230  Biso   1.000  C
  H13      1.0000 0.71960  0.89950  0.18170  Biso   1.000  H
  C21      1.0000 0.65430  0.86410  0.25940  Biso   1.000  C
  H14      1.0000 0.59880  0.85310  0.21110  Biso   1.000  H
  C22      1.0000 0.66500  0.85310  0.34740  Biso   1.000  C
  C23      1.0000 0.74200  0.86960  0.41710  Biso   1.000  C
  H15      1.0000 0.74690  0.86270  0.47770  Biso   1.000  H
  C24      1.0000 0.81330  0.89650  0.39950  Biso   1.000  C
  H16      1.0000 0.86810  0.90780  0.44840  Biso   1.000  H
  Zn2      1.0000 0.07358  0.98734  0.36179  Biso   1.000  Zn
  O6       1.0000 0.17140  0.06556  0.35700  Biso   1.000  O
  O7       1.0000 0.02740  0.06422  0.35770  Biso   1.000  O
  O8       1.0000 0.09340  0.32411  0.36510  Biso   1.000  O
  O9       1.0000 0.37000  0.44646  0.21150  Biso   1.000  O
  O10      1.0000 0.45950  0.44544  0.35740  Biso   1.000  O
  N2       1.0000 0.15800  0.96782  0.48880  Biso   1.000  N
  C25      1.0000 0.12400  0.94950  0.55120  Biso   1.000  C
  H17      1.0000 0.05880  0.94050  0.53180  Biso   1.000  H
  C26      1.0000 0.17720  0.94280  0.64090  Biso   1.000  C
  H18      1.0000 0.14960  0.92880  0.68160  Biso   1.000  H
  C27      1.0000 0.27280  0.95670  0.67170  Biso   1.000  C
  C28      1.0000 0.30890  0.97360  0.60730  Biso   1.000  C
  H19      1.0000 0.37420  0.98190  0.62480  Biso   1.000  H
  C29      1.0000 0.25080  0.97860  0.51820  Biso   1.000  C
  H20      1.0000 0.27760  0.99030  0.47540  Biso   1.000  H
  C30      1.0000 0.32730  0.95660  0.76880  Biso   1.000  C
  H21      1.0000 0.30880  0.93160  0.80560  Biso   1.000  H
  C31      1.0000 0.40100  0.98920  0.80890  Biso   1.000  C
  H22      1.0000 0.42270  0.01140  0.77100  Biso   1.000  H
  C32      1.0000 0.45160  0.99380  0.90650  Biso   1.000  C
  C33      1.0000 0.50640  0.04050  0.94090  Biso   1.000  C
  H23      1.0000 0.51130  0.06850  0.90070  Biso   1.000  H
  C34      1.0000 0.44630  0.95350  0.96710  Biso   1.000  C
  H24      1.0000 0.40950  0.92120  0.94480  Biso   1.000  H
  C35      1.0000 0.09950  0.09050  0.35700  Biso   1.000  C
  C36      1.0000 0.09800  0.15190  0.35740  Biso   1.000  C
  C37      1.0000 0.17170  0.18070  0.34700  Biso   1.000  C
  H25      1.0000 0.22250  0.16130  0.33930  Biso   1.000  H
  C38      1.0000 0.17180  0.23810  0.34790  Biso   1.000  C
  H26      1.0000 0.22170  0.25800  0.33910  Biso   1.000  H
  C39      1.0000 0.09930  0.26600  0.36160  Biso   1.000  C
  C40      1.0000 0.02490  0.23750  0.37270  Biso   1.000  C
  H27      1.0000 0.97490  0.25690  0.38200  Biso   1.000  H
  C41      1.0000 0.02470  0.18060  0.36980  Biso   1.000  C
  H28      1.0000 0.97360  0.16070  0.37650  Biso   1.000  H
  C42      1.0000 0.38430  0.43520  0.29250  Biso   1.000  C
  C43      1.0000 0.30640  0.40730  0.31120  Biso   1.000  C
  C44      1.0000 0.22620  0.39160  0.24230  Biso   1.000  C
  H29      1.0000 0.21960  0.39950  0.18170  Biso   1.000  H
  C45      1.0000 0.15430  0.36410  0.25940  Biso   1.000  C
  H30      1.0000 0.09880  0.35310  0.21110  Biso   1.000  H
  C46      1.0000 0.16500  0.35310  0.34740  Biso   1.000  C
  C47      1.0000 0.24200  0.36960  0.41710  Biso   1.000  C
  H31      1.0000 0.24690  0.36270  0.47770  Biso   1.000  H
  C48      1.0000 0.31330  0.39650  0.39950  Biso   1.000  C
  H32      1.0000 0.36810  0.40780  0.44840  Biso   1.000  H
  Zn3      1.0000 0.42642  0.48734  0.13821  Biso   1.000  Zn
  O11      1.0000 0.32860  0.56556  0.14300  Biso   1.000  O
  O12      1.0000 0.47260  0.56422  0.14230  Biso   1.000  O
  O13      1.0000 0.40660  0.82411  0.13490  Biso   1.000  O
  O14      1.0000 0.13000  0.94646  0.28850  Biso   1.000  O
  O15      1.0000 0.04050  0.94544  0.14260  Biso   1.000  O
  N3       1.0000 0.34200  0.46782  0.01120  Biso   1.000  N
  C49      1.0000 0.37600  0.44950  0.94880  Biso   1.000  C
  H33      1.0000 0.44120  0.44050  0.96820  Biso   1.000  H
  C50      1.0000 0.32280  0.44280  0.85910  Biso   1.000  C
  H34      1.0000 0.35040  0.42880  0.81840  Biso   1.000  H
  C51      1.0000 0.22720  0.45670  0.82830  Biso   1.000  C
  C52      1.0000 0.19110  0.47360  0.89270  Biso   1.000  C
  H35      1.0000 0.12580  0.48190  0.87520  Biso   1.000  H
  C53      1.0000 0.24920  0.47860  0.98180  Biso   1.000  C
  H36      1.0000 0.22240  0.49030  0.02460  Biso   1.000  H
  C54      1.0000 0.17270  0.45660  0.73120  Biso   1.000  C
  H37      1.0000 0.19120  0.43160  0.69440  Biso   1.000  H
  C55      1.0000 0.09900  0.48920  0.69110  Biso   1.000  C
  H38      1.0000 0.07730  0.51140  0.72900  Biso   1.000  H
  C56      1.0000 0.04840  0.49380  0.59350  Biso   1.000  C
  C57      1.0000 0.99360  0.54050  0.55910  Biso   1.000  C
  H39      1.0000 0.98870  0.56850  0.59930  Biso   1.000  H
  C58      1.0000 0.05370  0.45350  0.53290  Biso   1.000  C
  H40      1.0000 0.09050  0.42120  0.55520  Biso   1.000  H
  C59      1.0000 0.40050  0.59050  0.14300  Biso   1.000  C
  C60      1.0000 0.40200  0.65190  0.14260  Biso   1.000  C
  C61      1.0000 0.32830  0.68070  0.15300  Biso   1.000  C
  H41      1.0000 0.27750  0.66130  0.16070  Biso   1.000  H
  C62      1.0000 0.32820  0.73810  0.15210  Biso   1.000  C
  H42      1.0000 0.27830  0.75800  0.16090  Biso   1.000  H
  C63      1.0000 0.40070  0.76600  0.13840  Biso   1.000  C
  C64      1.0000 0.47510  0.73750  0.12730  Biso   1.000  C
  H43      1.0000 0.52510  0.75690  0.11800  Biso   1.000  H
  C65      1.0000 0.47530  0.68060  0.13020  Biso   1.000  C
  H44      1.0000 0.52640  0.66070  0.12350  Biso   1.000  H
  C66      1.0000 0.11570  0.93520  0.20750  Biso   1.000  C
  C67      1.0000 0.19360  0.90730  0.18880  Biso   1.000  C
  C68      1.0000 0.27380  0.89160  0.25770  Biso   1.000  C
  H45      1.0000 0.28040  0.89950  0.31830  Biso   1.000  H
  C69      1.0000 0.34570  0.86410  0.24060  Biso   1.000  C
  H46      1.0000 0.40120  0.85310  0.28890  Biso   1.000  H
  C70      1.0000 0.33500  0.85310  0.15260  Biso   1.000  C
  C71      1.0000 0.25800  0.86960  0.08290  Biso   1.000  C
  H47      1.0000 0.25310  0.86270  0.02230  Biso   1.000  H
  C72      1.0000 0.18670  0.89650  0.10050  Biso   1.000  C
  H48      1.0000 0.13190  0.90780  0.05160  Biso   1.000  H
  Zn4      1.0000 0.92642  0.98734  0.13821  Biso   1.000  Zn
  O16      1.0000 0.82860  0.06556  0.14300  Biso   1.000  O
  O17      1.0000 0.97260  0.06422  0.14230  Biso   1.000  O
  O18      1.0000 0.90660  0.32411  0.13490  Biso   1.000  O
  O19      1.0000 0.63000  0.44646  0.28850  Biso   1.000  O
  O20      1.0000 0.54050  0.44544  0.14260  Biso   1.000  O
  N4       1.0000 0.84200  0.96782  0.01120  Biso   1.000  N
  C73      1.0000 0.87600  0.94950  0.94880  Biso   1.000  C
  H49      1.0000 0.94120  0.94050  0.96820  Biso   1.000  H
  C74      1.0000 0.82280  0.94280  0.85910  Biso   1.000  C
  H50      1.0000 0.85040  0.92880  0.81840  Biso   1.000  H
  C75      1.0000 0.72720  0.95670  0.82830  Biso   1.000  C
  C76      1.0000 0.69110  0.97360  0.89270  Biso   1.000  C
  H51      1.0000 0.62580  0.98190  0.87520  Biso   1.000  H
  C77      1.0000 0.74920  0.97860  0.98180  Biso   1.000  C
  H52      1.0000 0.72240  0.99030  0.02460  Biso   1.000  H
  C78      1.0000 0.67270  0.95660  0.73120  Biso   1.000  C
  H53      1.0000 0.69120  0.93160  0.69440  Biso   1.000  H
  C79      1.0000 0.59900  0.98920  0.69110  Biso   1.000  C
  H54      1.0000 0.57730  0.01140  0.72900  Biso   1.000  H
  C80      1.0000 0.54840  0.99380  0.59350  Biso   1.000  C
  C81      1.0000 0.49360  0.04050  0.55910  Biso   1.000  C
  H55      1.0000 0.48870  0.06850  0.59930  Biso   1.000  H
  C82      1.0000 0.55370  0.95350  0.53290  Biso   1.000  C
  H56      1.0000 0.59050  0.92120  0.55520  Biso   1.000  H
  C83      1.0000 0.90050  0.09050  0.14300  Biso   1.000  C
  C84      1.0000 0.90200  0.15190  0.14260  Biso   1.000  C
  C85      1.0000 0.82830  0.18070  0.15300  Biso   1.000  C
  H57      1.0000 0.77750  0.16130  0.16070  Biso   1.000  H
  C86      1.0000 0.82820  0.23810  0.15210  Biso   1.000  C
  H58      1.0000 0.77830  0.25800  0.16090  Biso   1.000  H
  C87      1.0000 0.90070  0.26600  0.13840  Biso   1.000  C
  C88      1.0000 0.97510  0.23750  0.12730  Biso   1.000  C
  H59      1.0000 0.02510  0.25690  0.11800  Biso   1.000  H
  C89      1.0000 0.97530  0.18060  0.13020  Biso   1.000  C
  H60      1.0000 0.02640  0.16070  0.12350  Biso   1.000  H
  C90      1.0000 0.61570  0.43520  0.20750  Biso   1.000  C
  C91      1.0000 0.69360  0.40730  0.18880  Biso   1.000  C
  C92      1.0000 0.77380  0.39160  0.25770  Biso   1.000  C
  H61      1.0000 0.78040  0.39950  0.31830  Biso   1.000  H
  C93      1.0000 0.84570  0.36410  0.24060  Biso   1.000  C
  H62      1.0000 0.90120  0.35310  0.28890  Biso   1.000  H
  C94      1.0000 0.83500  0.35310  0.15260  Biso   1.000  C
  C95      1.0000 0.75800  0.36960  0.08290  Biso   1.000  C
  H63      1.0000 0.75310  0.36270  0.02230  Biso   1.000  H
  C96      1.0000 0.68670  0.39650  0.10050  Biso   1.000  C
  H64      1.0000 0.63190  0.40780  0.05160  Biso   1.000  H
  Zn5      1.0000 0.42642  0.51266  0.63821  Biso   1.000  Zn
  O21      1.0000 0.32860  0.43444  0.64300  Biso   1.000  O
  O22      1.0000 0.47260  0.43578  0.64230  Biso   1.000  O
  O23      1.0000 0.40660  0.17589  0.63490  Biso   1.000  O
  O24      1.0000 0.13000  0.05354  0.78850  Biso   1.000  O
  O25      1.0000 0.04050  0.05456  0.64260  Biso   1.000  O
  N5       1.0000 0.34200  0.53218  0.51120  Biso   1.000  N
  C97      1.0000 0.37600  0.55050  0.44880  Biso   1.000  C
  H65      1.0000 0.44120  0.55950  0.46820  Biso   1.000  H
  C98      1.0000 0.32280  0.55720  0.35910  Biso   1.000  C
  H66      1.0000 0.35040  0.57120  0.31840  Biso   1.000  H
  C99      1.0000 0.22720  0.54330  0.32830  Biso   1.000  C
  C100     1.0000 0.19110  0.52640  0.39270  Biso   1.000  C
  H67      1.0000 0.12580  0.51810  0.37520  Biso   1.000  H
  C101     1.0000 0.24920  0.52140  0.48180  Biso   1.000  C
  H68      1.0000 0.22240  0.50970  0.52460  Biso   1.000  H
  C102     1.0000 0.17270  0.54340  0.23120  Biso   1.000  C
  H69      1.0000 0.19120  0.56840  0.19440  Biso   1.000  H
  C103     1.0000 0.09900  0.51080  0.19110  Biso   1.000  C
  H70      1.0000 0.07730  0.48860  0.22900  Biso   1.000  H
  C104     1.0000 0.04840  0.50620  0.09350  Biso   1.000  C
  C105     1.0000 0.99360  0.45950  0.05910  Biso   1.000  C
  H71      1.0000 0.98870  0.43150  0.09930  Biso   1.000  H
  C106     1.0000 0.05370  0.54650  0.03290  Biso   1.000  C
  H72      1.0000 0.09050  0.57880  0.05520  Biso   1.000  H
  C107     1.0000 0.40050  0.40950  0.64300  Biso   1.000  C
  C108     1.0000 0.40200  0.34810  0.64260  Biso   1.000  C
  C109     1.0000 0.32830  0.31930  0.65300  Biso   1.000  C
  H73      1.0000 0.27750  0.33870  0.66070  Biso   1.000  H
  C110     1.0000 0.32820  0.26190  0.65210  Biso   1.000  C
  H74      1.0000 0.27830  0.24200  0.66090  Biso   1.000  H
  C111     1.0000 0.40070  0.23400  0.63840  Biso   1.000  C
  C112     1.0000 0.47510  0.26250  0.62730  Biso   1.000  C
  H75      1.0000 0.52510  0.24310  0.61800  Biso   1.000  H
  C113     1.0000 0.47530  0.31940  0.63020  Biso   1.000  C
  H76      1.0000 0.52640  0.33930  0.62350  Biso   1.000  H
  C114     1.0000 0.11570  0.06480  0.70750  Biso   1.000  C
  C115     1.0000 0.19360  0.09270  0.68880  Biso   1.000  C
  C116     1.0000 0.27380  0.10840  0.75770  Biso   1.000  C
  H77      1.0000 0.28040  0.10050  0.81830  Biso   1.000  H
  C117     1.0000 0.34570  0.13590  0.74060  Biso   1.000  C
  H78      1.0000 0.40120  0.14690  0.78890  Biso   1.000  H
  C118     1.0000 0.33500  0.14690  0.65260  Biso   1.000  C
  C119     1.0000 0.25800  0.13040  0.58290  Biso   1.000  C
  H79      1.0000 0.25310  0.13730  0.52230  Biso   1.000  H
  C120     1.0000 0.18670  0.10350  0.60050  Biso   1.000  C
  H80      1.0000 0.13190  0.09220  0.55160  Biso   1.000  H
  Zn6      1.0000 0.92642  0.01266  0.63821  Biso   1.000  Zn
  O26      1.0000 0.82860  0.93444  0.64300  Biso   1.000  O
  O27      1.0000 0.97260  0.93578  0.64230  Biso   1.000  O
  O28      1.0000 0.90660  0.67589  0.63490  Biso   1.000  O
  O29      1.0000 0.63000  0.55354  0.78850  Biso   1.000  O
  O30      1.0000 0.54050  0.55456  0.64260  Biso   1.000  O
  N6       1.0000 0.84200  0.03218  0.51120  Biso   1.000  N
  C121     1.0000 0.87600  0.05050  0.44880  Biso   1.000  C
  H81      1.0000 0.94120  0.05950  0.46820  Biso   1.000  H
  C122     1.0000 0.82280  0.05720  0.35910  Biso   1.000  C
  H82      1.0000 0.85040  0.07120  0.31840  Biso   1.000  H
  C123     1.0000 0.72720  0.04330  0.32830  Biso   1.000  C
  C124     1.0000 0.69110  0.02640  0.39270  Biso   1.000  C
  H83      1.0000 0.62580  0.01810  0.37520  Biso   1.000  H
  C125     1.0000 0.74920  0.02140  0.48180  Biso   1.000  C
  H84      1.0000 0.72240  0.00970  0.52460  Biso   1.000  H
  C126     1.0000 0.67270  0.04340  0.23120  Biso   1.000  C
  H85      1.0000 0.69120  0.06840  0.19440  Biso   1.000  H
  C127     1.0000 0.59900  0.01080  0.19110  Biso   1.000  C
  H86      1.0000 0.57730  0.98860  0.22900  Biso   1.000  H
  C128     1.0000 0.54840  0.00620  0.09350  Biso   1.000  C
  C129     1.0000 0.49360  0.95950  0.05910  Biso   1.000  C
  H87      1.0000 0.48870  0.93150  0.09930  Biso   1.000  H
  C130     1.0000 0.55370  0.04650  0.03290  Biso   1.000  C
  H88      1.0000 0.59050  0.07880  0.05520  Biso   1.000  H
  C131     1.0000 0.90050  0.90950  0.64300  Biso   1.000  C
  C132     1.0000 0.90200  0.84810  0.64260  Biso   1.000  C
  C133     1.0000 0.82830  0.81930  0.65300  Biso   1.000  C
  H89      1.0000 0.77750  0.83870  0.66070  Biso   1.000  H
  C134     1.0000 0.82820  0.76190  0.65210  Biso   1.000  C
  H90      1.0000 0.77830  0.74200  0.66090  Biso   1.000  H
  C135     1.0000 0.90070  0.73400  0.63840  Biso   1.000  C
  C136     1.0000 0.97510  0.76250  0.62730  Biso   1.000  C
  H91      1.0000 0.02510  0.74310  0.61800  Biso   1.000  H
  C137     1.0000 0.97530  0.81940  0.63020  Biso   1.000  C
  H92      1.0000 0.02640  0.83930  0.62350  Biso   1.000  H
  C138     1.0000 0.61570  0.56480  0.70750  Biso   1.000  C
  C139     1.0000 0.69360  0.59270  0.68880  Biso   1.000  C
  C140     1.0000 0.77380  0.60840  0.75770  Biso   1.000  C
  H93      1.0000 0.78040  0.60050  0.81830  Biso   1.000  H
  C141     1.0000 0.84570  0.63590  0.74060  Biso   1.000  C
  H94      1.0000 0.90120  0.64690  0.78890  Biso   1.000  H
  C142     1.0000 0.83500  0.64690  0.65260  Biso   1.000  C
  C143     1.0000 0.75800  0.63040  0.58290  Biso   1.000  C
  H95      1.0000 0.75310  0.63730  0.52230  Biso   1.000  H
  C144     1.0000 0.68670  0.60350  0.60050  Biso   1.000  C
  H96      1.0000 0.63190  0.59220  0.55160  Biso   1.000  H
  Zn7      1.0000 0.57358  0.51266  0.86179  Biso   1.000  Zn
  O31      1.0000 0.67140  0.43444  0.85700  Biso   1.000  O
  O32      1.0000 0.52740  0.43578  0.85770  Biso   1.000  O
  O33      1.0000 0.59340  0.17589  0.86510  Biso   1.000  O
  O34      1.0000 0.87000  0.05354  0.71150  Biso   1.000  O
  O35      1.0000 0.95950  0.05456  0.85740  Biso   1.000  O
  N7       1.0000 0.65800  0.53218  0.98880  Biso   1.000  N
  C145     1.0000 0.62400  0.55050  0.05120  Biso   1.000  C
  H97      1.0000 0.55880  0.55950  0.03180  Biso   1.000  H
  C146     1.0000 0.67720  0.55720  0.14090  Biso   1.000  C
  H98      1.0000 0.64960  0.57120  0.18160  Biso   1.000  H
  C147     1.0000 0.77280  0.54330  0.17170  Biso   1.000  C
  C148     1.0000 0.80890  0.52640  0.10730  Biso   1.000  C
  H99      1.0000 0.87420  0.51810  0.12480  Biso   1.000  H
  C149     1.0000 0.75080  0.52140  0.01820  Biso   1.000  C
  H100     1.0000 0.77760  0.50970  0.97540  Biso   1.000  H
  C150     1.0000 0.82730  0.54340  0.26880  Biso   1.000  C
  H101     1.0000 0.80880  0.56840  0.30560  Biso   1.000  H
  C151     1.0000 0.90100  0.51080  0.30890  Biso   1.000  C
  H102     1.0000 0.92270  0.48860  0.27100  Biso   1.000  H
  C152     1.0000 0.95160  0.50620  0.40650  Biso   1.000  C
  C153     1.0000 0.00640  0.45950  0.44090  Biso   1.000  C
  H103     1.0000 0.01130  0.43150  0.40070  Biso   1.000  H
  C154     1.0000 0.94630  0.54650  0.46710  Biso   1.000  C
  H104     1.0000 0.90950  0.57880  0.44480  Biso   1.000  H
  C155     1.0000 0.59950  0.40950  0.85700  Biso   1.000  C
  C156     1.0000 0.59800  0.34810  0.85740  Biso   1.000  C
  C157     1.0000 0.67170  0.31930  0.84700  Biso   1.000  C
  H105     1.0000 0.72250  0.33870  0.83930  Biso   1.000  H
  C158     1.0000 0.67180  0.26190  0.84790  Biso   1.000  C
  H106     1.0000 0.72170  0.24200  0.83910  Biso   1.000  H
  C159     1.0000 0.59930  0.23400  0.86160  Biso   1.000  C
  C160     1.0000 0.52490  0.26250  0.87270  Biso   1.000  C
  H107     1.0000 0.47490  0.24310  0.88200  Biso   1.000  H
  C161     1.0000 0.52470  0.31940  0.86980  Biso   1.000  C
  H108     1.0000 0.47360  0.33930  0.87650  Biso   1.000  H
  C162     1.0000 0.88430  0.06480  0.79250  Biso   1.000  C
  C163     1.0000 0.80640  0.09270  0.81120  Biso   1.000  C
  C164     1.0000 0.72620  0.10840  0.74230  Biso   1.000  C
  H109     1.0000 0.71960  0.10050  0.68170  Biso   1.000  H
  C165     1.0000 0.65430  0.13590  0.75940  Biso   1.000  C
  H110     1.0000 0.59880  0.14690  0.71110  Biso   1.000  H
  C166     1.0000 0.66500  0.14690  0.84740  Biso   1.000  C
  C167     1.0000 0.74200  0.13040  0.91710  Biso   1.000  C
  H111     1.0000 0.74690  0.13730  0.97770  Biso   1.000  H
  C168     1.0000 0.81330  0.10350  0.89950  Biso   1.000  C
  H112     1.0000 0.86810  0.09220  0.94840  Biso   1.000  H
  Zn8      1.0000 0.07358  0.01266  0.86179  Biso   1.000  Zn
  O36      1.0000 0.17140  0.93444  0.85700  Biso   1.000  O
  O37      1.0000 0.02740  0.93578  0.85770  Biso   1.000  O
  O38      1.0000 0.09340  0.67589  0.86510  Biso   1.000  O
  O39      1.0000 0.37000  0.55354  0.71150  Biso   1.000  O
  O40      1.0000 0.45950  0.55456  0.85740  Biso   1.000  O
  N8       1.0000 0.15800  0.03218  0.98880  Biso   1.000  N
  C169     1.0000 0.12400  0.05050  0.05120  Biso   1.000  C
  H113     1.0000 0.05880  0.05950  0.03180  Biso   1.000  H
  C170     1.0000 0.17720  0.05720  0.14090  Biso   1.000  C
  H114     1.0000 0.14960  0.07120  0.18160  Biso   1.000  H
  C171     1.0000 0.27280  0.04330  0.17170  Biso   1.000  C
  C172     1.0000 0.30890  0.02640  0.10730  Biso   1.000  C
  H115     1.0000 0.37420  0.01810  0.12480  Biso   1.000  H
  C173     1.0000 0.25080  0.02140  0.01820  Biso   1.000  C
  H116     1.0000 0.27760  0.00970  0.97540  Biso   1.000  H
  C174     1.0000 0.32730  0.04340  0.26880  Biso   1.000  C
  H117     1.0000 0.30880  0.06840  0.30560  Biso   1.000  H
  C175     1.0000 0.40100  0.01080  0.30890  Biso   1.000  C
  H118     1.0000 0.42270  0.98860  0.27100  Biso   1.000  H
  C176     1.0000 0.45160  0.00620  0.40650  Biso   1.000  C
  C177     1.0000 0.50640  0.95950  0.44090  Biso   1.000  C
  H119     1.0000 0.51130  0.93150  0.40070  Biso   1.000  H
  C178     1.0000 0.44630  0.04650  0.46710  Biso   1.000  C
  H120     1.0000 0.40950  0.07880  0.44480  Biso   1.000  H
  C179     1.0000 0.09950  0.90950  0.85700  Biso   1.000  C
  C180     1.0000 0.09800  0.84810  0.85740  Biso   1.000  C
  C181     1.0000 0.17170  0.81930  0.84700  Biso   1.000  C
  H121     1.0000 0.22250  0.83870  0.83930  Biso   1.000  H
  C182     1.0000 0.17180  0.76190  0.84790  Biso   1.000  C
  H122     1.0000 0.22170  0.74200  0.83910  Biso   1.000  H
  C183     1.0000 0.09930  0.73400  0.86160  Biso   1.000  C
  C184     1.0000 0.02490  0.76250  0.87270  Biso   1.000  C
  H123     1.0000 0.97490  0.74310  0.88200  Biso   1.000  H
  C185     1.0000 0.02470  0.81940  0.86980  Biso   1.000  C
  H124     1.0000 0.97360  0.83930  0.87650  Biso   1.000  H
  C186     1.0000 0.38430  0.56480  0.79250  Biso   1.000  C
  C187     1.0000 0.30640  0.59270  0.81120  Biso   1.000  C
  C188     1.0000 0.22620  0.60840  0.74230  Biso   1.000  C
  H125     1.0000 0.21960  0.60050  0.68170  Biso   1.000  H
  C189     1.0000 0.15430  0.63590  0.75940  Biso   1.000  C
  H126     1.0000 0.09880  0.64690  0.71110  Biso   1.000  H
  C190     1.0000 0.16500  0.64690  0.84740  Biso   1.000  C
  C191     1.0000 0.24200  0.63040  0.91710  Biso   1.000  C
  H127     1.0000 0.24690  0.63730  0.97770  Biso   1.000  H
  C192     1.0000 0.31330  0.60350  0.89950  Biso   1.000  C
  H128     1.0000 0.36810  0.59220  0.94840  Biso   1.000  H
