data_ZETPUL_clean
_audit_creation_date              2014-07-02
_audit_creation_method            'Materials Studio'
_symmetry_space_group_name_H-M    'P1'
_symmetry_Int_Tables_number       1
_symmetry_cell_setting            triclinic
loop_
_symmetry_equiv_pos_as_xyz
  x,y,z
_cell_length_a                    11.9679
_cell_length_b                    19.2017
_cell_length_c                    19.2017
_cell_angle_alpha                 84.4268
_cell_angle_beta                  71.8421
_cell_angle_gamma                 71.8421
loop_
_atom_site_label
_atom_site_type_symbol
_atom_site_fract_x
_atom_site_fract_y
_atom_site_fract_z
_atom_site_U_iso_or_equiv
_atom_site_adp_type
_atom_site_occupancy
Dy1    Dy    0.48038   0.20110   0.63728   0.01267  Uiso   1.00
Dy2    Dy    0.42980   0.02168   0.60526   0.01267  Uiso   1.00
Dy3    Dy    0.81876   0.29890   0.86272   0.01267  Uiso   1.00
Dy4    Dy    0.55674   0.47832   0.89474   0.01267  Uiso   1.00
Dy5    Dy    0.11766   0.36272   0.70110   0.01267  Uiso   1.00
Dy6    Dy    0.03506   0.39474   0.52168   0.01267  Uiso   1.00
Dy7    Dy    0.68148   0.13728   0.79890   0.01267  Uiso   1.00
Dy8    Dy    0.45148   0.10526   0.97832   0.01267  Uiso   1.00
Dy9    Dy    0.51962   0.79890   0.36272   0.01267  Uiso   1.00
Dy10   Dy    0.57020   0.97832   0.39474   0.01267  Uiso   1.00
Dy11   Dy    0.18124   0.70110   0.13728   0.01267  Uiso   1.00
Dy12   Dy    0.44326   0.52168   0.10526   0.01267  Uiso   1.00
Dy13   Dy    0.88234   0.63728   0.29890   0.01267  Uiso   1.00
Dy14   Dy    0.96494   0.60526   0.47832   0.01267  Uiso   1.00
Dy15   Dy    0.31852   0.86272   0.20110   0.01267  Uiso   1.00
Dy16   Dy    0.54852   0.89474   0.02168   0.01267  Uiso   1.00
H1     H     0.64950   0.20950   0.43850   0.01267  Uiso   1.00
H2     H     0.76620   0.14300   0.43840   0.01267  Uiso   1.00
H3     H     0.79930   0.09380   0.54980   0.01267  Uiso   1.00
H4     H     0.85960   0.15780   0.53460   0.01267  Uiso   1.00
H5     H     0.54560   0.94010   0.77430   0.01267  Uiso   1.00
H6     H     0.67850   0.91310   0.71970   0.01267  Uiso   1.00
H7     H     0.46140   0.84060   0.68080   0.01267  Uiso   1.00
H8     H     0.48790   0.84940   0.75400   0.01267  Uiso   1.00
H9     H     0.05430   0.14880   0.67000   0.01267  Uiso   1.00
H10    H     0.11730   0.09900   0.72540   0.01267  Uiso   1.00
H11    H     0.09970   0.07230   0.55230   0.01267  Uiso   1.00
H12    H     0.14670   0.14050   0.54910   0.01267  Uiso   1.00
H13    H     0.68900   0.23780   0.53080   0.01267  Uiso   1.00
H14    H     0.61090   0.88610   0.64110   0.01267  Uiso   1.00
H15    H     0.17070   0.02540   0.63780   0.01267  Uiso   1.00
H16    H     0.79750   0.29050   0.06150   0.01267  Uiso   1.00
H17    H     0.84760   0.35700   0.06160   0.01267  Uiso   1.00
H18    H     0.94290   0.40620   0.95020   0.01267  Uiso   1.00
H19    H     0.05200   0.34220   0.96540   0.01267  Uiso   1.00
H20    H     0.76000   0.55990   0.72570   0.01267  Uiso   1.00
H21    H     0.81130   0.58690   0.78030   0.01267  Uiso   1.00
H22    H     0.48280   0.65940   0.81920   0.01267  Uiso   1.00
H23    H     0.59130   0.65060   0.74600   0.01267  Uiso   1.00
H24    H     0.37310   0.35120   0.83000   0.01267  Uiso   1.00
H25    H     0.44170   0.40100   0.77460   0.01267  Uiso   1.00
H26    H     0.22430   0.42770   0.94770   0.01267  Uiso   1.00
H27    H     0.33630   0.35950   0.95090   0.01267  Uiso   1.00
H28    H     0.95760   0.26220   0.96920   0.01267  Uiso   1.00
H29    H     0.63810   0.61390   0.85890   0.01267  Uiso   1.00
H30    H     0.33390   0.47460   0.86220   0.01267  Uiso   1.00
H31    H     0.08800   0.56150   0.70950   0.01267  Uiso   1.00
H32    H     0.20460   0.56160   0.64300   0.01267  Uiso   1.00
H33    H     0.34910   0.45020   0.59380   0.01267  Uiso   1.00
H34    H     0.39420   0.46540   0.65780   0.01267  Uiso   1.00
H35    H     0.31990   0.22570   0.44010   0.01267  Uiso   1.00
H36    H     0.39820   0.28030   0.41310   0.01267  Uiso   1.00
H37    H     0.14220   0.31920   0.34060   0.01267  Uiso   1.00
H38    H     0.24190   0.24600   0.34940   0.01267  Uiso   1.00
H39    H     0.72430   0.33000   0.64880   0.01267  Uiso   1.00
H40    H     0.84270   0.27460   0.59900   0.01267  Uiso   1.00
H41    H     0.65200   0.44770   0.57230   0.01267  Uiso   1.00
H42    H     0.69580   0.45090   0.64050   0.01267  Uiso   1.00
H43    H     0.21980   0.46920   0.73780   0.01267  Uiso   1.00
H44    H     0.25200   0.35890   0.38610   0.01267  Uiso   1.00
H45    H     0.80850   0.36220   0.52540   0.01267  Uiso   1.00
H46    H     0.85900   0.93850   0.79050   0.01267  Uiso   1.00
H47    H     0.90920   0.93840   0.85700   0.01267  Uiso   1.00
H48    H     0.89310   0.04980   0.90620   0.01267  Uiso   1.00
H49    H     0.01740   0.03460   0.84220   0.01267  Uiso   1.00
H50    H     0.48570   0.27430   0.05990   0.01267  Uiso   1.00
H51    H     0.59160   0.21970   0.08690   0.01267  Uiso   1.00
H52    H     0.30200   0.18080   0.15940   0.01267  Uiso   1.00
H53    H     0.33730   0.25400   0.15060   0.01267  Uiso   1.00
H54    H     0.20310   0.17000   0.85120   0.01267  Uiso   1.00
H55    H     0.21630   0.22540   0.90100   0.01267  Uiso   1.00
H56    H     0.17200   0.05230   0.92770   0.01267  Uiso   1.00
H57    H     0.28720   0.04910   0.85950   0.01267  Uiso   1.00
H58    H     0.92680   0.03080   0.76220   0.01267  Uiso   1.00
H59    H     0.49700   0.14110   0.11390   0.01267  Uiso   1.00
H60    H     0.19610   0.13780   0.97460   0.01267  Uiso   1.00
H61    H     0.35050   0.79050   0.56150   0.01267  Uiso   1.00
H62    H     0.23380   0.85700   0.56160   0.01267  Uiso   1.00
H63    H     0.20070   0.90620   0.45020   0.01267  Uiso   1.00
H64    H     0.14040   0.84220   0.46540   0.01267  Uiso   1.00
H65    H     0.45440   0.05990   0.22570   0.01267  Uiso   1.00
H66    H     0.32150   0.08690   0.28030   0.01267  Uiso   1.00
H67    H     0.53860   0.15940   0.31920   0.01267  Uiso   1.00
H68    H     0.51210   0.15060   0.24600   0.01267  Uiso   1.00
H69    H     0.94570   0.85120   0.33000   0.01267  Uiso   1.00
H70    H     0.88270   0.90100   0.27460   0.01267  Uiso   1.00
H71    H     0.90030   0.92770   0.44770   0.01267  Uiso   1.00
H72    H     0.85330   0.85950   0.45090   0.01267  Uiso   1.00
H73    H     0.31100   0.76220   0.46920   0.01267  Uiso   1.00
H74    H     0.38910   0.11390   0.35890   0.01267  Uiso   1.00
H75    H     0.82930   0.97460   0.36220   0.01267  Uiso   1.00
H76    H     0.20250   0.70950   0.93850   0.01267  Uiso   1.00
H77    H     0.15240   0.64300   0.93840   0.01267  Uiso   1.00
H78    H     0.05710   0.59380   0.04980   0.01267  Uiso   1.00
H79    H     0.94800   0.65780   0.03460   0.01267  Uiso   1.00
H80    H     0.24000   0.44010   0.27430   0.01267  Uiso   1.00
H81    H     0.18870   0.41310   0.21970   0.01267  Uiso   1.00
H82    H     0.51720   0.34060   0.18080   0.01267  Uiso   1.00
H83    H     0.40870   0.34940   0.25400   0.01267  Uiso   1.00
H84    H     0.62690   0.64880   0.17000   0.01267  Uiso   1.00
H85    H     0.55830   0.59900   0.22540   0.01267  Uiso   1.00
H86    H     0.77570   0.57230   0.05230   0.01267  Uiso   1.00
H87    H     0.66370   0.64050   0.04910   0.01267  Uiso   1.00
H88    H     0.04240   0.73780   0.03080   0.01267  Uiso   1.00
H89    H     0.36190   0.38610   0.14110   0.01267  Uiso   1.00
H90    H     0.66610   0.52540   0.13780   0.01267  Uiso   1.00
H91    H     0.91200   0.43850   0.29050   0.01267  Uiso   1.00
H92    H     0.79540   0.43840   0.35700   0.01267  Uiso   1.00
H93    H     0.65090   0.54980   0.40620   0.01267  Uiso   1.00
H94    H     0.60580   0.53460   0.34220   0.01267  Uiso   1.00
H95    H     0.68010   0.77430   0.55990   0.01267  Uiso   1.00
H96    H     0.60180   0.71970   0.58690   0.01267  Uiso   1.00
H97    H     0.85780   0.68080   0.65940   0.01267  Uiso   1.00
H98    H     0.75810   0.75400   0.65060   0.01267  Uiso   1.00
H99    H     0.27570   0.67000   0.35120   0.01267  Uiso   1.00
H100   H     0.15730   0.72540   0.40100   0.01267  Uiso   1.00
H101   H     0.34800   0.55230   0.42770   0.01267  Uiso   1.00
H102   H     0.30420   0.54910   0.35950   0.01267  Uiso   1.00
H103   H     0.78020   0.53080   0.26220   0.01267  Uiso   1.00
H104   H     0.74800   0.64110   0.61390   0.01267  Uiso   1.00
H105   H     0.19150   0.63780   0.47460   0.01267  Uiso   1.00
H106   H     0.14100   0.06150   0.20950   0.01267  Uiso   1.00
H107   H     0.09080   0.06160   0.14300   0.01267  Uiso   1.00
H108   H     0.10690   0.95020   0.09380   0.01267  Uiso   1.00
H109   H     0.98260   0.96540   0.15780   0.01267  Uiso   1.00
H110   H     0.51430   0.72570   0.94010   0.01267  Uiso   1.00
H111   H     0.40840   0.78030   0.91310   0.01267  Uiso   1.00
H112   H     0.69800   0.81920   0.84060   0.01267  Uiso   1.00
H113   H     0.66270   0.74600   0.84940   0.01267  Uiso   1.00
H114   H     0.79690   0.83000   0.14880   0.01267  Uiso   1.00
H115   H     0.78370   0.77460   0.09900   0.01267  Uiso   1.00
H116   H     0.82800   0.94770   0.07230   0.01267  Uiso   1.00
H117   H     0.71280   0.95090   0.14050   0.01267  Uiso   1.00
H118   H     0.07320   0.96920   0.23780   0.01267  Uiso   1.00
H119   H     0.50300   0.85890   0.88610   0.01267  Uiso   1.00
H120   H     0.80390   0.86220   0.02540   0.01267  Uiso   1.00
C1     C     0.60600   0.11540   0.47800   0.01267  Uiso   1.00
C2     C     0.68200   0.16730   0.46630   0.01267  Uiso   1.00
C3     C     0.78570   0.14450   0.56110   0.01267  Uiso   1.00
C4     C     0.76080   0.15250   0.64230   0.01267  Uiso   1.00
C5     C     0.59800   0.02320   0.71140   0.01267  Uiso   1.00
C6     C     0.59530   0.94430   0.72430   0.01267  Uiso   1.00
C7     C     0.46110   0.87600   0.71360   0.01267  Uiso   1.00
C8     C     0.33210   0.92670   0.74290   0.01267  Uiso   1.00
C9     C     0.20650   0.17340   0.67380   0.01267  Uiso   1.00
C10    C     0.13290   0.12170   0.67730   0.01267  Uiso   1.00
C11    C     0.16990   0.08740   0.55220   0.01267  Uiso   1.00
C12    C     0.27450   0.05600   0.48660   0.01267  Uiso   1.00
C13    C     0.69940   0.38460   0.02200   0.01267  Uiso   1.00
C14    C     0.81560   0.33270   0.03370   0.01267  Uiso   1.00
C15    C     0.99130   0.35550   0.93890   0.01267  Uiso   1.00
C16    C     0.05560   0.34750   0.85770   0.01267  Uiso   1.00
C17    C     0.83260   0.47680   0.78860   0.01267  Uiso   1.00
C18    C     0.76390   0.55570   0.77570   0.01267  Uiso   1.00
C19    C     0.55070   0.62400   0.78640   0.01267  Uiso   1.00
C20    C     0.50170   0.57330   0.75710   0.01267  Uiso   1.00
C21    C     0.55370   0.32660   0.82620   0.01267  Uiso   1.00
C22    C     0.43190   0.37830   0.82270   0.01267  Uiso   1.00
C23    C     0.30950   0.41260   0.94780   0.01267  Uiso   1.00
C24    C     0.31710   0.44400   0.01340   0.01267  Uiso   1.00
C25    C     0.08400   0.52200   0.61540   0.01267  Uiso   1.00
C26    C     0.14830   0.53370   0.66730   0.01267  Uiso   1.00
C27    C     0.34680   0.43890   0.64450   0.01267  Uiso   1.00
C28    C     0.40310   0.35770   0.65250   0.01267  Uiso   1.00
C29    C     0.30940   0.28860   0.52320   0.01267  Uiso   1.00
C30    C     0.31960   0.27570   0.44430   0.01267  Uiso   1.00
C31    C     0.17470   0.28640   0.37600   0.01267  Uiso   1.00
C32    C     0.07500   0.25710   0.42670   0.01267  Uiso   1.00
C33    C     0.88030   0.32620   0.67340   0.01267  Uiso   1.00
C34    C     0.81020   0.32270   0.62170   0.01267  Uiso   1.00
C35    C     0.72210   0.44780   0.58740   0.01267  Uiso   1.00
C36    C     0.76110   0.51340   0.55600   0.01267  Uiso   1.00
C37    C     0.72140   0.97800   0.88460   0.01267  Uiso   1.00
C38    C     0.84930   0.96630   0.83270   0.01267  Uiso   1.00
C39    C     0.93020   0.06110   0.85550   0.01267  Uiso   1.00
C40    C     0.91330   0.14230   0.84750   0.01267  Uiso   1.00
C41    C     0.62120   0.21140   0.97680   0.01267  Uiso   1.00
C42    C     0.53960   0.22430   0.05570   0.01267  Uiso   1.00
C43    C     0.33710   0.21360   0.12400   0.01267  Uiso   1.00
C44    C     0.25880   0.24290   0.07330   0.01267  Uiso   1.00
C45    C     0.37990   0.17380   0.82660   0.01267  Uiso   1.00
C46    C     0.25460   0.17730   0.87830   0.01267  Uiso   1.00
C47    C     0.25730   0.05220   0.91260   0.01267  Uiso   1.00
C48    C     0.33050   0.98660   0.94400   0.01267  Uiso   1.00
C49    C     0.39400   0.88460   0.52200   0.01267  Uiso   1.00
C50    C     0.31800   0.83270   0.53370   0.01267  Uiso   1.00
C51    C     0.21430   0.85550   0.43890   0.01267  Uiso   1.00
C52    C     0.23920   0.84750   0.35770   0.01267  Uiso   1.00
C53    C     0.40200   0.97680   0.28860   0.01267  Uiso   1.00
C54    C     0.40470   0.05570   0.27570   0.01267  Uiso   1.00
C55    C     0.53890   0.12400   0.28640   0.01267  Uiso   1.00
C56    C     0.66790   0.07330   0.25710   0.01267  Uiso   1.00
C57    C     0.79350   0.82660   0.32620   0.01267  Uiso   1.00
C58    C     0.86710   0.87830   0.32270   0.01267  Uiso   1.00
C59    C     0.83010   0.91260   0.44780   0.01267  Uiso   1.00
C60    C     0.72550   0.94400   0.51340   0.01267  Uiso   1.00
C61    C     0.30060   0.61540   0.97800   0.01267  Uiso   1.00
C62    C     0.18440   0.66730   0.96630   0.01267  Uiso   1.00
C63    C     0.00870   0.64450   0.06110   0.01267  Uiso   1.00
C64    C     0.94440   0.65250   0.14230   0.01267  Uiso   1.00
C65    C     0.16740   0.52320   0.21140   0.01267  Uiso   1.00
C66    C     0.23610   0.44430   0.22430   0.01267  Uiso   1.00
C67    C     0.44930   0.37600   0.21360   0.01267  Uiso   1.00
C68    C     0.49830   0.42670   0.24290   0.01267  Uiso   1.00
C69    C     0.44630   0.67340   0.17380   0.01267  Uiso   1.00
C70    C     0.56810   0.62170   0.17730   0.01267  Uiso   1.00
C71    C     0.69050   0.58740   0.05220   0.01267  Uiso   1.00
C72    C     0.68290   0.55600   0.98660   0.01267  Uiso   1.00
C73    C     0.91600   0.47800   0.38460   0.01267  Uiso   1.00
C74    C     0.85170   0.46630   0.33270   0.01267  Uiso   1.00
C75    C     0.65320   0.56110   0.35550   0.01267  Uiso   1.00
C76    C     0.59690   0.64230   0.34750   0.01267  Uiso   1.00
C77    C     0.69060   0.71140   0.47680   0.01267  Uiso   1.00
C78    C     0.68040   0.72430   0.55570   0.01267  Uiso   1.00
C79    C     0.82530   0.71360   0.62400   0.01267  Uiso   1.00
C80    C     0.92500   0.74290   0.57330   0.01267  Uiso   1.00
C81    C     0.11970   0.67380   0.32660   0.01267  Uiso   1.00
C82    C     0.18980   0.67730   0.37830   0.01267  Uiso   1.00
C83    C     0.27790   0.55220   0.41260   0.01267  Uiso   1.00
C84    C     0.23890   0.48660   0.44400   0.01267  Uiso   1.00
C85    C     0.27860   0.02200   0.11540   0.01267  Uiso   1.00
C86    C     0.15070   0.03370   0.16730   0.01267  Uiso   1.00
C87    C     0.06980   0.93890   0.14450   0.01267  Uiso   1.00
C88    C     0.08670   0.85770   0.15250   0.01267  Uiso   1.00
C89    C     0.37880   0.78860   0.02320   0.01267  Uiso   1.00
C90    C     0.46040   0.77570   0.94430   0.01267  Uiso   1.00
C91    C     0.66290   0.78640   0.87600   0.01267  Uiso   1.00
C92    C     0.74120   0.75710   0.92670   0.01267  Uiso   1.00
C93    C     0.62010   0.82620   0.17340   0.01267  Uiso   1.00
C94    C     0.74540   0.82270   0.12170   0.01267  Uiso   1.00
C95    C     0.74270   0.94780   0.08740   0.01267  Uiso   1.00
C96    C     0.66950   0.01340   0.05600   0.01267  Uiso   1.00
N1     N     0.68010   0.19210   0.53770   0.01267  Uiso   1.00
N2     N     0.54670   0.91650   0.67450   0.01267  Uiso   1.00
N3     N     0.19890   0.06460   0.62120   0.01267  Uiso   1.00
N4     N     0.90990   0.30790   0.96230   0.01267  Uiso   1.00
N5     N     0.63770   0.58350   0.82550   0.01267  Uiso   1.00
N6     N     0.38470   0.43540   0.87880   0.01267  Uiso   1.00
N7     N     0.21780   0.46230   0.69210   0.01267  Uiso   1.00
N8     N     0.22120   0.32550   0.41650   0.01267  Uiso   1.00
N9     N     0.82010   0.37880   0.56460   0.01267  Uiso   1.00
N10    N     0.87220   0.03770   0.80790   0.01267  Uiso   1.00
N11    N     0.46320   0.17450   0.08350   0.01267  Uiso   1.00
N12    N     0.26350   0.12120   0.93540   0.01267  Uiso   1.00
N13    N     0.31990   0.80790   0.46230   0.01267  Uiso   1.00
N14    N     0.45330   0.08350   0.32550   0.01267  Uiso   1.00
N15    N     0.80110   0.93540   0.37880   0.01267  Uiso   1.00
N16    N     0.09010   0.69210   0.03770   0.01267  Uiso   1.00
N17    N     0.36230   0.41650   0.17450   0.01267  Uiso   1.00
N18    N     0.61530   0.56460   0.12120   0.01267  Uiso   1.00
N19    N     0.78220   0.53770   0.30790   0.01267  Uiso   1.00
N20    N     0.77880   0.67450   0.58350   0.01267  Uiso   1.00
N21    N     0.17990   0.62120   0.43540   0.01267  Uiso   1.00
N22    N     0.12780   0.96230   0.19210   0.01267  Uiso   1.00
N23    N     0.53680   0.82550   0.91650   0.01267  Uiso   1.00
N24    N     0.73650   0.87880   0.06460   0.01267  Uiso   1.00
O1     O     0.53760   0.10940   0.54140   0.01267  Uiso   1.00
O2     O     0.61190   0.08350   0.42250   0.01267  Uiso   1.00
O3     O     0.64760   0.18020   0.68120   0.01267  Uiso   1.00
O4     O     0.84110   0.12620   0.67320   0.01267  Uiso   1.00
O5     O     0.53020   0.06430   0.67550   0.01267  Uiso   1.00
O6     O     0.66470   0.04100   0.74080   0.01267  Uiso   1.00
O7     O     0.31570   0.99150   0.72210   0.01267  Uiso   1.00
O8     O     0.25080   0.89580   0.77620   0.01267  Uiso   1.00
O9     O     0.32390   0.14760   0.64420   0.01267  Uiso   1.00
O10    O     0.15390   0.23680   0.69720   0.01267  Uiso   1.00
O11    O     0.38590   0.04370   0.49010   0.01267  Uiso   1.00
O12    O     0.25490   0.04230   0.43070   0.01267  Uiso   1.00
O13    O     0.68840   0.39060   0.95860   0.01267  Uiso   1.00
O14    O     0.61790   0.41650   0.07750   0.01267  Uiso   1.00
O15    O     0.00900   0.31980   0.81880   0.01267  Uiso   1.00
O16    O     0.14050   0.37380   0.82680   0.01267  Uiso   1.00
O17    O     0.77000   0.43570   0.82450   0.01267  Uiso   1.00
O18    O     0.94650   0.45900   0.75920   0.01267  Uiso   1.00
O19    O     0.52930   0.50850   0.77790   0.01267  Uiso   1.00
O20    O     0.42280   0.60420   0.72380   0.01267  Uiso   1.00
O21    O     0.61570   0.35240   0.85580   0.01267  Uiso   1.00
O22    O     0.58790   0.26320   0.80280   0.01267  Uiso   1.00
O23    O     0.41970   0.45630   0.00990   0.01267  Uiso   1.00
O24    O     0.22790   0.45770   0.06930   0.01267  Uiso   1.00
O25    O     0.07900   0.45860   0.60940   0.01267  Uiso   1.00
O26    O     0.03440   0.57750   0.58350   0.01267  Uiso   1.00
O27    O     0.32880   0.31880   0.68020   0.01267  Uiso   1.00
O28    O     0.51430   0.32680   0.62620   0.01267  Uiso   1.00
O29    O     0.20570   0.32450   0.56430   0.01267  Uiso   1.00
O30    O     0.40550   0.25920   0.54100   0.01267  Uiso   1.00
O31    O     0.03780   0.27790   0.49150   0.01267  Uiso   1.00
O32    O     0.02700   0.22380   0.39580   0.01267  Uiso   1.00
O33    O     0.96810   0.35580   0.64760   0.01267  Uiso   1.00
O34    O     0.85110   0.30280   0.73680   0.01267  Uiso   1.00
O35    O     0.87600   0.50990   0.54370   0.01267  Uiso   1.00
O36    O     0.68560   0.56930   0.54230   0.01267  Uiso   1.00
O37    O     0.64700   0.04140   0.89060   0.01267  Uiso   1.00
O38    O     0.69540   0.92250   0.91650   0.01267  Uiso   1.00
O39    O     0.82780   0.18120   0.81980   0.01267  Uiso   1.00
O40    O     0.96730   0.17320   0.87380   0.01267  Uiso   1.00
O41    O     0.59450   0.17550   0.93570   0.01267  Uiso   1.00
O42    O     0.70570   0.24080   0.95900   0.01267  Uiso   1.00
O43    O     0.30720   0.22210   0.00850   0.01267  Uiso   1.00
O44    O     0.14660   0.27620   0.10420   0.01267  Uiso   1.00
O45    O     0.47150   0.14420   0.85240   0.01267  Uiso   1.00
O46    O     0.39070   0.19720   0.76320   0.01267  Uiso   1.00
O47    O     0.42960   0.99010   0.95630   0.01267  Uiso   1.00
O48    O     0.29720   0.93070   0.95770   0.01267  Uiso   1.00
O49    O     0.46240   0.89060   0.45860   0.01267  Uiso   1.00
O50    O     0.38810   0.91650   0.57750   0.01267  Uiso   1.00
O51    O     0.35240   0.81980   0.31880   0.01267  Uiso   1.00
O52    O     0.15890   0.87380   0.32680   0.01267  Uiso   1.00
O53    O     0.46980   0.93570   0.32450   0.01267  Uiso   1.00
O54    O     0.33530   0.95900   0.25920   0.01267  Uiso   1.00
O55    O     0.68430   0.00850   0.27790   0.01267  Uiso   1.00
O56    O     0.74920   0.10420   0.22380   0.01267  Uiso   1.00
O57    O     0.67610   0.85240   0.35580   0.01267  Uiso   1.00
O58    O     0.84610   0.76320   0.30280   0.01267  Uiso   1.00
O59    O     0.61410   0.95630   0.50990   0.01267  Uiso   1.00
O60    O     0.74510   0.95770   0.56930   0.01267  Uiso   1.00
O61    O     0.31160   0.60940   0.04140   0.01267  Uiso   1.00
O62    O     0.38210   0.58350   0.92250   0.01267  Uiso   1.00
O63    O     0.99100   0.68020   0.18120   0.01267  Uiso   1.00
O64    O     0.85950   0.62620   0.17320   0.01267  Uiso   1.00
O65    O     0.23000   0.56430   0.17550   0.01267  Uiso   1.00
O66    O     0.05350   0.54100   0.24080   0.01267  Uiso   1.00
O67    O     0.47070   0.49150   0.22210   0.01267  Uiso   1.00
O68    O     0.57720   0.39580   0.27620   0.01267  Uiso   1.00
O69    O     0.38430   0.64760   0.14420   0.01267  Uiso   1.00
O70    O     0.41210   0.73680   0.19720   0.01267  Uiso   1.00
O71    O     0.58030   0.54370   0.99010   0.01267  Uiso   1.00
O72    O     0.77210   0.54230   0.93070   0.01267  Uiso   1.00
O73    O     0.92100   0.54140   0.39060   0.01267  Uiso   1.00
O74    O     0.96560   0.42250   0.41650   0.01267  Uiso   1.00
O75    O     0.67120   0.68120   0.31980   0.01267  Uiso   1.00
O76    O     0.48570   0.67320   0.37380   0.01267  Uiso   1.00
O77    O     0.79430   0.67550   0.43570   0.01267  Uiso   1.00
O78    O     0.59450   0.74080   0.45900   0.01267  Uiso   1.00
O79    O     0.96220   0.72210   0.50850   0.01267  Uiso   1.00
O80    O     0.97300   0.77620   0.60420   0.01267  Uiso   1.00
O81    O     0.03190   0.64420   0.35240   0.01267  Uiso   1.00
O82    O     0.14890   0.69720   0.26320   0.01267  Uiso   1.00
O83    O     0.12400   0.49010   0.45630   0.01267  Uiso   1.00
O84    O     0.31440   0.43070   0.45770   0.01267  Uiso   1.00
O85    O     0.35300   0.95860   0.10940   0.01267  Uiso   1.00
O86    O     0.30460   0.07750   0.08350   0.01267  Uiso   1.00
O87    O     0.17220   0.81880   0.18020   0.01267  Uiso   1.00
O88    O     0.03270   0.82680   0.12620   0.01267  Uiso   1.00
O89    O     0.40550   0.82450   0.06430   0.01267  Uiso   1.00
O90    O     0.29430   0.75920   0.04100   0.01267  Uiso   1.00
O91    O     0.69280   0.77790   0.99150   0.01267  Uiso   1.00
O92    O     0.85340   0.72380   0.89580   0.01267  Uiso   1.00
O93    O     0.52850   0.85580   0.14760   0.01267  Uiso   1.00
O94    O     0.60930   0.80280   0.23680   0.01267  Uiso   1.00
O95    O     0.57040   0.00990   0.04370   0.01267  Uiso   1.00
O96    O     0.70280   0.06930   0.04230   0.01267  Uiso   1.00
