data_ZETQAS_clean
_audit_creation_date              2014-07-02
_audit_creation_method            'Materials Studio'
_symmetry_space_group_name_H-M    'P1'
_symmetry_Int_Tables_number       1
_symmetry_cell_setting            triclinic
loop_
_symmetry_equiv_pos_as_xyz
  x,y,z
_cell_length_a                    11.9660
_cell_length_b                    19.2155
_cell_length_c                    19.2155
_cell_angle_alpha                 84.4366
_cell_angle_beta                  71.8586
_cell_angle_gamma                 71.8586
loop_
_atom_site_label
_atom_site_type_symbol
_atom_site_fract_x
_atom_site_fract_y
_atom_site_fract_z
_atom_site_U_iso_or_equiv
_atom_site_adp_type
_atom_site_occupancy
Tb1    Tb    0.48132   0.20114   0.63722   0.01267  Uiso   1.00
Tb2    Tb    0.42976   0.02148   0.60530   0.01267  Uiso   1.00
Tb3    Tb    0.81967   0.29886   0.86278   0.01267  Uiso   1.00
Tb4    Tb    0.55654   0.47852   0.89470   0.01267  Uiso   1.00
Tb5    Tb    0.11853   0.36278   0.70115   0.01267  Uiso   1.00
Tb6    Tb    0.03506   0.39470   0.52148   0.01267  Uiso   1.00
Tb7    Tb    0.68246   0.13722   0.79885   0.01267  Uiso   1.00
Tb8    Tb    0.45124   0.10530   0.97852   0.01267  Uiso   1.00
Tb9    Tb    0.51868   0.79886   0.36278   0.01267  Uiso   1.00
Tb10   Tb    0.57024   0.97852   0.39470   0.01267  Uiso   1.00
Tb11   Tb    0.18033   0.70114   0.13722   0.01267  Uiso   1.00
Tb12   Tb    0.44346   0.52148   0.10530   0.01267  Uiso   1.00
Tb13   Tb    0.88147   0.63722   0.29885   0.01267  Uiso   1.00
Tb14   Tb    0.96494   0.60530   0.47852   0.01267  Uiso   1.00
Tb15   Tb    0.31754   0.86278   0.20115   0.01267  Uiso   1.00
Tb16   Tb    0.54876   0.89470   0.02148   0.01267  Uiso   1.00
H1     H     0.64870   0.21020   0.43960   0.01267  Uiso   1.00
H2     H     0.76570   0.14360   0.43740   0.01267  Uiso   1.00
H3     H     0.79930   0.09290   0.54990   0.01267  Uiso   1.00
H4     H     0.86090   0.15610   0.53570   0.01267  Uiso   1.00
H5     H     0.54350   0.94070   0.77530   0.01267  Uiso   1.00
H6     H     0.67660   0.91230   0.72130   0.01267  Uiso   1.00
H7     H     0.46130   0.83870   0.68270   0.01267  Uiso   1.00
H8     H     0.48390   0.84980   0.75660   0.01267  Uiso   1.00
H9     H     0.05280   0.15010   0.67050   0.01267  Uiso   1.00
H10    H     0.11780   0.09960   0.72480   0.01267  Uiso   1.00
H11    H     0.09910   0.07360   0.55160   0.01267  Uiso   1.00
H12    H     0.14660   0.14150   0.54830   0.01267  Uiso   1.00
H13    H     0.69350   0.23660   0.53020   0.01267  Uiso   1.00
H14    H     0.60960   0.88660   0.64260   0.01267  Uiso   1.00
H15    H     0.16910   0.02690   0.63590   0.01267  Uiso   1.00
H16    H     0.79850   0.28980   0.06040   0.01267  Uiso   1.00
H17    H     0.84670   0.35640   0.06260   0.01267  Uiso   1.00
H18    H     0.94210   0.40710   0.95010   0.01267  Uiso   1.00
H19    H     0.05270   0.34390   0.96430   0.01267  Uiso   1.00
H20    H     0.75950   0.55930   0.72470   0.01267  Uiso   1.00
H21    H     0.81020   0.58770   0.77870   0.01267  Uiso   1.00
H22    H     0.48270   0.66130   0.81730   0.01267  Uiso   1.00
H23    H     0.59030   0.65020   0.74340   0.01267  Uiso   1.00
H24    H     0.37340   0.34990   0.82950   0.01267  Uiso   1.00
H25    H     0.44220   0.40040   0.77520   0.01267  Uiso   1.00
H26    H     0.22430   0.42640   0.94840   0.01267  Uiso   1.00
H27    H     0.33640   0.35850   0.95170   0.01267  Uiso   1.00
H28    H     0.96030   0.26340   0.96980   0.01267  Uiso   1.00
H29    H     0.63880   0.61340   0.85740   0.01267  Uiso   1.00
H30    H     0.33190   0.47310   0.86410   0.01267  Uiso   1.00
H31    H     0.08830   0.56040   0.71020   0.01267  Uiso   1.00
H32    H     0.20310   0.56260   0.64360   0.01267  Uiso   1.00
H33    H     0.34920   0.45010   0.59290   0.01267  Uiso   1.00
H34    H     0.39660   0.46430   0.65610   0.01267  Uiso   1.00
H35    H     0.31880   0.22470   0.44070   0.01267  Uiso   1.00
H36    H     0.39790   0.27870   0.41230   0.01267  Uiso   1.00
H37    H     0.14400   0.31730   0.33870   0.01267  Uiso   1.00
H38    H     0.24050   0.24340   0.34980   0.01267  Uiso   1.00
H39    H     0.72330   0.32950   0.65010   0.01267  Uiso   1.00
H40    H     0.84260   0.27520   0.59960   0.01267  Uiso   1.00
H41    H     0.65070   0.44840   0.57360   0.01267  Uiso   1.00
H42    H     0.69490   0.45170   0.64150   0.01267  Uiso   1.00
H43    H     0.22370   0.46980   0.73660   0.01267  Uiso   1.00
H44    H     0.25220   0.35740   0.38660   0.01267  Uiso   1.00
H45    H     0.80500   0.36410   0.52690   0.01267  Uiso   1.00
H46    H     0.85890   0.93960   0.78980   0.01267  Uiso   1.00
H47    H     0.90930   0.93740   0.85640   0.01267  Uiso   1.00
H48    H     0.89220   0.04990   0.90710   0.01267  Uiso   1.00
H49    H     0.01700   0.03570   0.84390   0.01267  Uiso   1.00
H50    H     0.48420   0.27530   0.05930   0.01267  Uiso   1.00
H51    H     0.58890   0.22130   0.08770   0.01267  Uiso   1.00
H52    H     0.30000   0.18270   0.16130   0.01267  Uiso   1.00
H53    H     0.33370   0.25660   0.15020   0.01267  Uiso   1.00
H54    H     0.20290   0.17050   0.84990   0.01267  Uiso   1.00
H55    H     0.21740   0.22480   0.90040   0.01267  Uiso   1.00
H56    H     0.17270   0.05160   0.92640   0.01267  Uiso   1.00
H57    H     0.28810   0.04830   0.85850   0.01267  Uiso   1.00
H58    H     0.93010   0.03020   0.76340   0.01267  Uiso   1.00
H59    H     0.49620   0.14260   0.11340   0.01267  Uiso   1.00
H60    H     0.19600   0.13590   0.97310   0.01267  Uiso   1.00
H61    H     0.35130   0.78980   0.56040   0.01267  Uiso   1.00
H62    H     0.23430   0.85640   0.56260   0.01267  Uiso   1.00
H63    H     0.20070   0.90710   0.45010   0.01267  Uiso   1.00
H64    H     0.13910   0.84390   0.46430   0.01267  Uiso   1.00
H65    H     0.45650   0.05930   0.22470   0.01267  Uiso   1.00
H66    H     0.32340   0.08770   0.27870   0.01267  Uiso   1.00
H67    H     0.53870   0.16130   0.31730   0.01267  Uiso   1.00
H68    H     0.51610   0.15020   0.24340   0.01267  Uiso   1.00
H69    H     0.94720   0.84990   0.32950   0.01267  Uiso   1.00
H70    H     0.88220   0.90040   0.27520   0.01267  Uiso   1.00
H71    H     0.90090   0.92640   0.44840   0.01267  Uiso   1.00
H72    H     0.85340   0.85850   0.45170   0.01267  Uiso   1.00
H73    H     0.30650   0.76340   0.46980   0.01267  Uiso   1.00
H74    H     0.39040   0.11340   0.35740   0.01267  Uiso   1.00
H75    H     0.83090   0.97310   0.36410   0.01267  Uiso   1.00
H76    H     0.20150   0.71020   0.93960   0.01267  Uiso   1.00
H77    H     0.15330   0.64360   0.93740   0.01267  Uiso   1.00
H78    H     0.05790   0.59290   0.04990   0.01267  Uiso   1.00
H79    H     0.94730   0.65610   0.03570   0.01267  Uiso   1.00
H80    H     0.24050   0.44070   0.27530   0.01267  Uiso   1.00
H81    H     0.18980   0.41230   0.22130   0.01267  Uiso   1.00
H82    H     0.51730   0.33870   0.18270   0.01267  Uiso   1.00
H83    H     0.40970   0.34980   0.25660   0.01267  Uiso   1.00
H84    H     0.62660   0.65010   0.17050   0.01267  Uiso   1.00
H85    H     0.55780   0.59960   0.22480   0.01267  Uiso   1.00
H86    H     0.77570   0.57360   0.05160   0.01267  Uiso   1.00
H87    H     0.66360   0.64150   0.04830   0.01267  Uiso   1.00
H88    H     0.03970   0.73660   0.03020   0.01267  Uiso   1.00
H89    H     0.36120   0.38660   0.14260   0.01267  Uiso   1.00
H90    H     0.66810   0.52690   0.13590   0.01267  Uiso   1.00
H91    H     0.91170   0.43960   0.28980   0.01267  Uiso   1.00
H92    H     0.79690   0.43740   0.35640   0.01267  Uiso   1.00
H93    H     0.65080   0.54990   0.40710   0.01267  Uiso   1.00
H94    H     0.60340   0.53570   0.34390   0.01267  Uiso   1.00
H95    H     0.68120   0.77530   0.55930   0.01267  Uiso   1.00
H96    H     0.60210   0.72130   0.58770   0.01267  Uiso   1.00
H97    H     0.85600   0.68270   0.66130   0.01267  Uiso   1.00
H98    H     0.75950   0.75660   0.65020   0.01267  Uiso   1.00
H99    H     0.27670   0.67050   0.34990   0.01267  Uiso   1.00
H100   H     0.15740   0.72480   0.40040   0.01267  Uiso   1.00
H101   H     0.34930   0.55160   0.42640   0.01267  Uiso   1.00
H102   H     0.30510   0.54830   0.35850   0.01267  Uiso   1.00
H103   H     0.77630   0.53020   0.26340   0.01267  Uiso   1.00
H104   H     0.74780   0.64260   0.61340   0.01267  Uiso   1.00
H105   H     0.19500   0.63590   0.47310   0.01267  Uiso   1.00
H106   H     0.14110   0.06040   0.21020   0.01267  Uiso   1.00
H107   H     0.09070   0.06260   0.14360   0.01267  Uiso   1.00
H108   H     0.10780   0.95010   0.09290   0.01267  Uiso   1.00
H109   H     0.98300   0.96430   0.15610   0.01267  Uiso   1.00
H110   H     0.51580   0.72470   0.94070   0.01267  Uiso   1.00
H111   H     0.41110   0.77870   0.91230   0.01267  Uiso   1.00
H112   H     0.70000   0.81730   0.83870   0.01267  Uiso   1.00
H113   H     0.66630   0.74340   0.84980   0.01267  Uiso   1.00
H114   H     0.79710   0.82950   0.15010   0.01267  Uiso   1.00
H115   H     0.78260   0.77520   0.09960   0.01267  Uiso   1.00
H116   H     0.82730   0.94840   0.07360   0.01267  Uiso   1.00
H117   H     0.71190   0.95170   0.14150   0.01267  Uiso   1.00
H118   H     0.06990   0.96980   0.23660   0.01267  Uiso   1.00
H119   H     0.50380   0.85740   0.88660   0.01267  Uiso   1.00
H120   H     0.80400   0.86410   0.02690   0.01267  Uiso   1.00
C1     C     0.60570   0.11582   0.47778   0.01267  Uiso   1.00
C2     C     0.68207   0.16760   0.46646   0.01267  Uiso   1.00
C3     C     0.78630   0.14330   0.56170   0.01267  Uiso   1.00
C4     C     0.76168   0.15024   0.64260   0.01267  Uiso   1.00
C5     C     0.59957   0.02277   0.71189   0.01267  Uiso   1.00
C6     C     0.59410   0.94430   0.72530   0.01267  Uiso   1.00
C7     C     0.45910   0.87500   0.71520   0.01267  Uiso   1.00
C8     C     0.33160   0.92570   0.74130   0.01267  Uiso   1.00
C9     C     0.20702   0.17405   0.67251   0.01267  Uiso   1.00
C10    C     0.13210   0.12270   0.67690   0.01267  Uiso   1.00
C11    C     0.16950   0.08850   0.55150   0.01267  Uiso   1.00
C12    C     0.27500   0.05680   0.48540   0.01267  Uiso   1.00
C13    C     0.69930   0.38418   0.02222   0.01267  Uiso   1.00
C14    C     0.81613   0.33240   0.03354   0.01267  Uiso   1.00
C15    C     0.99130   0.35670   0.93830   0.01267  Uiso   1.00
C16    C     0.05452   0.34976   0.85740   0.01267  Uiso   1.00
C17    C     0.83423   0.47723   0.78811   0.01267  Uiso   1.00
C18    C     0.76370   0.55570   0.77470   0.01267  Uiso   1.00
C19    C     0.54930   0.62500   0.78480   0.01267  Uiso   1.00
C20    C     0.49860   0.57430   0.75870   0.01267  Uiso   1.00
C21    C     0.55358   0.32595   0.82749   0.01267  Uiso   1.00
C22    C     0.43170   0.37730   0.82310   0.01267  Uiso   1.00
C23    C     0.30950   0.41150   0.94850   0.01267  Uiso   1.00
C24    C     0.31720   0.44320   0.01460   0.01267  Uiso   1.00
C25    C     0.08348   0.52222   0.61582   0.01267  Uiso   1.00
C26    C     0.14853   0.53354   0.66760   0.01267  Uiso   1.00
C27    C     0.34800   0.43830   0.64330   0.01267  Uiso   1.00
C28    C     0.40428   0.35740   0.65024   0.01267  Uiso   1.00
C29    C     0.31146   0.28811   0.52277   0.01267  Uiso   1.00
C30    C     0.31940   0.27470   0.44430   0.01267  Uiso   1.00
C31    C     0.17430   0.28480   0.37500   0.01267  Uiso   1.00
C32    C     0.07290   0.25870   0.42570   0.01267  Uiso   1.00
C33    C     0.87953   0.32749   0.67405   0.01267  Uiso   1.00
C34    C     0.80900   0.32310   0.62270   0.01267  Uiso   1.00
C35    C     0.72100   0.44850   0.58850   0.01267  Uiso   1.00
C36    C     0.76040   0.51460   0.55680   0.01267  Uiso   1.00
C37    C     0.72152   0.97778   0.88418   0.01267  Uiso   1.00
C38    C     0.84967   0.96646   0.83240   0.01267  Uiso   1.00
C39    C     0.92960   0.06170   0.85670   0.01267  Uiso   1.00
C40    C     0.91192   0.14260   0.84976   0.01267  Uiso   1.00
C41    C     0.62234   0.21189   0.97723   0.01267  Uiso   1.00
C42    C     0.53840   0.22530   0.05570   0.01267  Uiso   1.00
C43    C     0.33410   0.21520   0.12500   0.01267  Uiso   1.00
C44    C     0.25730   0.24130   0.07430   0.01267  Uiso   1.00
C45    C     0.38107   0.17251   0.82595   0.01267  Uiso   1.00
C46    C     0.25480   0.17690   0.87730   0.01267  Uiso   1.00
C47    C     0.25800   0.05150   0.91150   0.01267  Uiso   1.00
C48    C     0.33180   0.98540   0.94320   0.01267  Uiso   1.00
C49    C     0.39430   0.88418   0.52222   0.01267  Uiso   1.00
C50    C     0.31793   0.83240   0.53354   0.01267  Uiso   1.00
C51    C     0.21370   0.85670   0.43830   0.01267  Uiso   1.00
C52    C     0.23832   0.84976   0.35740   0.01267  Uiso   1.00
C53    C     0.40043   0.97723   0.28811   0.01267  Uiso   1.00
C54    C     0.40590   0.05570   0.27470   0.01267  Uiso   1.00
C55    C     0.54090   0.12500   0.28480   0.01267  Uiso   1.00
C56    C     0.66840   0.07430   0.25870   0.01267  Uiso   1.00
C57    C     0.79298   0.82595   0.32749   0.01267  Uiso   1.00
C58    C     0.86790   0.87730   0.32310   0.01267  Uiso   1.00
C59    C     0.83050   0.91150   0.44850   0.01267  Uiso   1.00
C60    C     0.72500   0.94320   0.51460   0.01267  Uiso   1.00
C61    C     0.30070   0.61582   0.97778   0.01267  Uiso   1.00
C62    C     0.18387   0.66760   0.96646   0.01267  Uiso   1.00
C63    C     0.00870   0.64330   0.06170   0.01267  Uiso   1.00
C64    C     0.94548   0.65024   0.14260   0.01267  Uiso   1.00
C65    C     0.16577   0.52277   0.21189   0.01267  Uiso   1.00
C66    C     0.23630   0.44430   0.22530   0.01267  Uiso   1.00
C67    C     0.45070   0.37500   0.21520   0.01267  Uiso   1.00
C68    C     0.50140   0.42570   0.24130   0.01267  Uiso   1.00
C69    C     0.44642   0.67405   0.17251   0.01267  Uiso   1.00
C70    C     0.56830   0.62270   0.17690   0.01267  Uiso   1.00
C71    C     0.69050   0.58850   0.05150   0.01267  Uiso   1.00
C72    C     0.68280   0.55680   0.98540   0.01267  Uiso   1.00
C73    C     0.91652   0.47778   0.38418   0.01267  Uiso   1.00
C74    C     0.85147   0.46646   0.33240   0.01267  Uiso   1.00
C75    C     0.65200   0.56170   0.35670   0.01267  Uiso   1.00
C76    C     0.59572   0.64260   0.34976   0.01267  Uiso   1.00
C77    C     0.68854   0.71189   0.47723   0.01267  Uiso   1.00
C78    C     0.68060   0.72530   0.55570   0.01267  Uiso   1.00
C79    C     0.82570   0.71520   0.62500   0.01267  Uiso   1.00
C80    C     0.92710   0.74130   0.57430   0.01267  Uiso   1.00
C81    C     0.12047   0.67251   0.32595   0.01267  Uiso   1.00
C82    C     0.19100   0.67690   0.37730   0.01267  Uiso   1.00
C83    C     0.27900   0.55150   0.41150   0.01267  Uiso   1.00
C84    C     0.23960   0.48540   0.44320   0.01267  Uiso   1.00
C85    C     0.27848   0.02222   0.11582   0.01267  Uiso   1.00
C86    C     0.15033   0.03354   0.16760   0.01267  Uiso   1.00
C87    C     0.07040   0.93830   0.14330   0.01267  Uiso   1.00
C88    C     0.08808   0.85740   0.15024   0.01267  Uiso   1.00
C89    C     0.37766   0.78811   0.02277   0.01267  Uiso   1.00
C90    C     0.46160   0.77470   0.94430   0.01267  Uiso   1.00
C91    C     0.66590   0.78480   0.87500   0.01267  Uiso   1.00
C92    C     0.74270   0.75870   0.92570   0.01267  Uiso   1.00
C93    C     0.61893   0.82749   0.17405   0.01267  Uiso   1.00
C94    C     0.74520   0.82310   0.12270   0.01267  Uiso   1.00
C95    C     0.74200   0.94850   0.08850   0.01267  Uiso   1.00
C96    C     0.66820   0.01460   0.05680   0.01267  Uiso   1.00
N1     N     0.68353   0.19114   0.53700   0.01267  Uiso   1.00
N2     N     0.54524   0.91692   0.67580   0.01267  Uiso   1.00
N3     N     0.19776   0.06608   0.61960   0.01267  Uiso   1.00
N4     N     0.91167   0.30886   0.96300   0.01267  Uiso   1.00
N5     N     0.63796   0.58308   0.82420   0.01267  Uiso   1.00
N6     N     0.38344   0.43392   0.88040   0.01267  Uiso   1.00
N7     N     0.22053   0.46300   0.69114   0.01267  Uiso   1.00
N8     N     0.22104   0.32420   0.41692   0.01267  Uiso   1.00
N9     N     0.81736   0.38040   0.56608   0.01267  Uiso   1.00
N10    N     0.87467   0.03700   0.80886   0.01267  Uiso   1.00
N11    N     0.46216   0.17580   0.08308   0.01267  Uiso   1.00
N12    N     0.26384   0.11960   0.93392   0.01267  Uiso   1.00
N13    N     0.31647   0.80886   0.46300   0.01267  Uiso   1.00
N14    N     0.45476   0.08308   0.32420   0.01267  Uiso   1.00
N15    N     0.80224   0.93392   0.38040   0.01267  Uiso   1.00
N16    N     0.08833   0.69114   0.03700   0.01267  Uiso   1.00
N17    N     0.36204   0.41692   0.17580   0.01267  Uiso   1.00
N18    N     0.61656   0.56608   0.11960   0.01267  Uiso   1.00
N19    N     0.77947   0.53700   0.30886   0.01267  Uiso   1.00
N20    N     0.77896   0.67580   0.58308   0.01267  Uiso   1.00
N21    N     0.18264   0.61960   0.43392   0.01267  Uiso   1.00
N22    N     0.12533   0.96300   0.19114   0.01267  Uiso   1.00
N23    N     0.53784   0.82420   0.91692   0.01267  Uiso   1.00
N24    N     0.73616   0.88040   0.06608   0.01267  Uiso   1.00
O1     O     0.53850   0.10946   0.54194   0.01267  Uiso   1.00
O2     O     0.61333   0.08317   0.42217   0.01267  Uiso   1.00
O3     O     0.64980   0.18032   0.68068   0.01267  Uiso   1.00
O4     O     0.84264   0.12597   0.67295   0.01267  Uiso   1.00
O5     O     0.53185   0.06424   0.67586   0.01267  Uiso   1.00
O6     O     0.66618   0.04025   0.74079   0.01267  Uiso   1.00
O7     O     0.24840   0.89660   0.77620   0.01267  Uiso   1.00
O8     O     0.31471   0.99128   0.72290   0.01267  Uiso   1.00
O9     O     0.32322   0.14769   0.64487   0.01267  Uiso   1.00
O10    O     0.15461   0.23620   0.69738   0.01267  Uiso   1.00
O11    O     0.25440   0.04480   0.43000   0.01267  Uiso   1.00
O12    O     0.38467   0.04434   0.48992   0.01267  Uiso   1.00
O13    O     0.68990   0.39054   0.95806   0.01267  Uiso   1.00
O14    O     0.61867   0.41683   0.07783   0.01267  Uiso   1.00
O15    O     0.01080   0.31968   0.81932   0.01267  Uiso   1.00
O16    O     0.14156   0.37403   0.82705   0.01267  Uiso   1.00
O17    O     0.77195   0.43576   0.82414   0.01267  Uiso   1.00
O18    O     0.94722   0.45975   0.75921   0.01267  Uiso   1.00
O19    O     0.42120   0.60340   0.72380   0.01267  Uiso   1.00
O20    O     0.52889   0.50872   0.77710   0.01267  Uiso   1.00
O21    O     0.61578   0.35231   0.85513   0.01267  Uiso   1.00
O22    O     0.58819   0.26380   0.80262   0.01267  Uiso   1.00
O23    O     0.22920   0.45520   0.07000   0.01267  Uiso   1.00
O24    O     0.41893   0.45566   0.01008   0.01267  Uiso   1.00
O25    O     0.08044   0.45806   0.60946   0.01267  Uiso   1.00
O26    O     0.03550   0.57783   0.58317   0.01267  Uiso   1.00
O27    O     0.33048   0.31932   0.68032   0.01267  Uiso   1.00
O28    O     0.51559   0.32705   0.62597   0.01267  Uiso   1.00
O29    O     0.20771   0.32414   0.56424   0.01267  Uiso   1.00
O30    O     0.40697   0.25921   0.54025   0.01267  Uiso   1.00
O31    O     0.02460   0.22380   0.39660   0.01267  Uiso   1.00
O32    O     0.03761   0.27710   0.49128   0.01267  Uiso   1.00
O33    O     0.96809   0.35513   0.64769   0.01267  Uiso   1.00
O34    O     0.85199   0.30262   0.73620   0.01267  Uiso   1.00
O35    O     0.68440   0.57000   0.54480   0.01267  Uiso   1.00
O36    O     0.87459   0.51008   0.54434   0.01267  Uiso   1.00
O37    O     0.64796   0.04194   0.89054   0.01267  Uiso   1.00
O38    O     0.69650   0.92217   0.91683   0.01267  Uiso   1.00
O39    O     0.83012   0.18068   0.81968   0.01267  Uiso   1.00
O40    O     0.96861   0.17295   0.87403   0.01267  Uiso   1.00
O41    O     0.59609   0.17586   0.93576   0.01267  Uiso   1.00
O42    O     0.70643   0.24079   0.95975   0.01267  Uiso   1.00
O43    O     0.14500   0.27620   0.10340   0.01267  Uiso   1.00
O44    O     0.30599   0.22290   0.00872   0.01267  Uiso   1.00
O45    O     0.47091   0.14487   0.85231   0.01267  Uiso   1.00
O46    O     0.39081   0.19738   0.76380   0.01267  Uiso   1.00
O47    O     0.29920   0.93000   0.95520   0.01267  Uiso   1.00
O48    O     0.42901   0.98992   0.95566   0.01267  Uiso   1.00
O49    O     0.46150   0.89054   0.45806   0.01267  Uiso   1.00
O50    O     0.38667   0.91683   0.57783   0.01267  Uiso   1.00
O51    O     0.35020   0.81968   0.31932   0.01267  Uiso   1.00
O52    O     0.15736   0.87403   0.32705   0.01267  Uiso   1.00
O53    O     0.46815   0.93576   0.32414   0.01267  Uiso   1.00
O54    O     0.33382   0.95975   0.25921   0.01267  Uiso   1.00
O55    O     0.75160   0.10340   0.22380   0.01267  Uiso   1.00
O56    O     0.68529   0.00872   0.27710   0.01267  Uiso   1.00
O57    O     0.67678   0.85231   0.35513   0.01267  Uiso   1.00
O58    O     0.84539   0.76380   0.30262   0.01267  Uiso   1.00
O59    O     0.74560   0.95520   0.57000   0.01267  Uiso   1.00
O60    O     0.61533   0.95566   0.51008   0.01267  Uiso   1.00
O61    O     0.31010   0.60946   0.04194   0.01267  Uiso   1.00
O62    O     0.38133   0.58317   0.92217   0.01267  Uiso   1.00
O63    O     0.98920   0.68032   0.18068   0.01267  Uiso   1.00
O64    O     0.85844   0.62597   0.17295   0.01267  Uiso   1.00
O65    O     0.22805   0.56424   0.17586   0.01267  Uiso   1.00
O66    O     0.05278   0.54025   0.24079   0.01267  Uiso   1.00
O67    O     0.57880   0.39660   0.27620   0.01267  Uiso   1.00
O68    O     0.47111   0.49128   0.22290   0.01267  Uiso   1.00
O69    O     0.38422   0.64769   0.14487   0.01267  Uiso   1.00
O70    O     0.41181   0.73620   0.19738   0.01267  Uiso   1.00
O71    O     0.77080   0.54480   0.93000   0.01267  Uiso   1.00
O72    O     0.58107   0.54434   0.98992   0.01267  Uiso   1.00
O73    O     0.91956   0.54194   0.39054   0.01267  Uiso   1.00
O74    O     0.96450   0.42217   0.41683   0.01267  Uiso   1.00
O75    O     0.66952   0.68068   0.31968   0.01267  Uiso   1.00
O76    O     0.48441   0.67295   0.37403   0.01267  Uiso   1.00
O77    O     0.79229   0.67586   0.43576   0.01267  Uiso   1.00
O78    O     0.59303   0.74079   0.45975   0.01267  Uiso   1.00
O79    O     0.97540   0.77620   0.60340   0.01267  Uiso   1.00
O80    O     0.96239   0.72290   0.50872   0.01267  Uiso   1.00
O81    O     0.03191   0.64487   0.35231   0.01267  Uiso   1.00
O82    O     0.14801   0.69738   0.26380   0.01267  Uiso   1.00
O83    O     0.31560   0.43000   0.45520   0.01267  Uiso   1.00
O84    O     0.12541   0.48992   0.45566   0.01267  Uiso   1.00
O85    O     0.35204   0.95806   0.10946   0.01267  Uiso   1.00
O86    O     0.30350   0.07783   0.08317   0.01267  Uiso   1.00
O87    O     0.16988   0.81932   0.18032   0.01267  Uiso   1.00
O88    O     0.03139   0.82705   0.12597   0.01267  Uiso   1.00
O89    O     0.40391   0.82414   0.06424   0.01267  Uiso   1.00
O90    O     0.29357   0.75921   0.04025   0.01267  Uiso   1.00
O91    O     0.85500   0.72380   0.89660   0.01267  Uiso   1.00
O92    O     0.69401   0.77710   0.99128   0.01267  Uiso   1.00
O93    O     0.52909   0.85513   0.14769   0.01267  Uiso   1.00
O94    O     0.60919   0.80262   0.23620   0.01267  Uiso   1.00
O95    O     0.70080   0.07000   0.04480   0.01267  Uiso   1.00
O96    O     0.57099   0.01008   0.04434   0.01267  Uiso   1.00
