data_ZETQEW_clean
_audit_creation_date              2014-07-02
_audit_creation_method            'Materials Studio'
_symmetry_space_group_name_H-M    'P1'
_symmetry_Int_Tables_number       1
_symmetry_cell_setting            triclinic
loop_
_symmetry_equiv_pos_as_xyz
  x,y,z
_cell_length_a                    12.0188
_cell_length_b                    19.3548
_cell_length_c                    19.3548
_cell_angle_alpha                 84.4680
_cell_angle_beta                  71.9115
_cell_angle_gamma                 71.9114
loop_
_atom_site_label
_atom_site_type_symbol
_atom_site_fract_x
_atom_site_fract_y
_atom_site_fract_z
_atom_site_U_iso_or_equiv
_atom_site_adp_type
_atom_site_occupancy
Eu1    Eu    0.48352   0.20141   0.63721   0.01267  Uiso   1.00
Eu2    Eu    0.43034   0.02113   0.60551   0.01267  Uiso   1.00
Eu3    Eu    0.82214   0.29859   0.86279   0.01267  Uiso   1.00
Eu4    Eu    0.55698   0.47887   0.89449   0.01267  Uiso   1.00
Eu5    Eu    0.12073   0.36279   0.70141   0.01267  Uiso   1.00
Eu6    Eu    0.03585   0.39449   0.52113   0.01267  Uiso   1.00
Eu7    Eu    0.68493   0.13721   0.79859   0.01267  Uiso   1.00
Eu8    Eu    0.45147   0.10551   0.97887   0.01267  Uiso   1.00
Eu9    Eu    0.51648   0.79859   0.36279   0.01267  Uiso   1.00
Eu10   Eu    0.56966   0.97887   0.39449   0.01267  Uiso   1.00
Eu11   Eu    0.17786   0.70141   0.13721   0.01267  Uiso   1.00
Eu12   Eu    0.44302   0.52113   0.10551   0.01267  Uiso   1.00
Eu13   Eu    0.87927   0.63721   0.29859   0.01267  Uiso   1.00
Eu14   Eu    0.96415   0.60551   0.47887   0.01267  Uiso   1.00
Eu15   Eu    0.31507   0.86279   0.20141   0.01267  Uiso   1.00
Eu16   Eu    0.54853   0.89449   0.02113   0.01267  Uiso   1.00
H1     H     0.65270   0.20900   0.44040   0.01267  Uiso   1.00
H2     H     0.76810   0.14220   0.43840   0.01267  Uiso   1.00
H3     H     0.80190   0.09150   0.55070   0.01267  Uiso   1.00
H4     H     0.86470   0.15370   0.53570   0.01267  Uiso   1.00
H5     H     0.54310   0.94280   0.77580   0.01267  Uiso   1.00
H6     H     0.67550   0.91440   0.72280   0.01267  Uiso   1.00
H7     H     0.46430   0.83950   0.68370   0.01267  Uiso   1.00
H8     H     0.48430   0.85170   0.75750   0.01267  Uiso   1.00
H9     H     0.05460   0.15090   0.66930   0.01267  Uiso   1.00
H10    H     0.11760   0.10100   0.72380   0.01267  Uiso   1.00
H11    H     0.09930   0.07290   0.55190   0.01267  Uiso   1.00
H12    H     0.14440   0.14120   0.54900   0.01267  Uiso   1.00
H13    H     0.69820   0.23450   0.53010   0.01267  Uiso   1.00
H14    H     0.60980   0.88720   0.64480   0.01267  Uiso   1.00
H15    H     0.16810   0.02790   0.63650   0.01267  Uiso   1.00
H16    H     0.80210   0.29100   0.05960   0.01267  Uiso   1.00
H17    H     0.84870   0.35780   0.06160   0.01267  Uiso   1.00
H18    H     0.94410   0.40850   0.94930   0.01267  Uiso   1.00
H19    H     0.05410   0.34630   0.96430   0.01267  Uiso   1.00
H20    H     0.76170   0.55720   0.72420   0.01267  Uiso   1.00
H21    H     0.81270   0.58560   0.77720   0.01267  Uiso   1.00
H22    H     0.48750   0.66050   0.81630   0.01267  Uiso   1.00
H23    H     0.59350   0.64830   0.74250   0.01267  Uiso   1.00
H24    H     0.37480   0.34910   0.83070   0.01267  Uiso   1.00
H25    H     0.44240   0.39900   0.77620   0.01267  Uiso   1.00
H26    H     0.22410   0.42710   0.94810   0.01267  Uiso   1.00
H27    H     0.33460   0.35880   0.95100   0.01267  Uiso   1.00
H28    H     0.96280   0.26550   0.96990   0.01267  Uiso   1.00
H29    H     0.64180   0.61280   0.85520   0.01267  Uiso   1.00
H30    H     0.33250   0.47210   0.86350   0.01267  Uiso   1.00
H31    H     0.09310   0.55960   0.70900   0.01267  Uiso   1.00
H32    H     0.20650   0.56160   0.64220   0.01267  Uiso   1.00
H33    H     0.35260   0.44930   0.59150   0.01267  Uiso   1.00
H34    H     0.40040   0.46430   0.65370   0.01267  Uiso   1.00
H35    H     0.31890   0.22420   0.44280   0.01267  Uiso   1.00
H36    H     0.39830   0.27720   0.41440   0.01267  Uiso   1.00
H37    H     0.14800   0.31630   0.33950   0.01267  Uiso   1.00
H38    H     0.24180   0.24250   0.35170   0.01267  Uiso   1.00
H39    H     0.72390   0.33070   0.65090   0.01267  Uiso   1.00
H40    H     0.84140   0.27620   0.60100   0.01267  Uiso   1.00
H41    H     0.65120   0.44810   0.57290   0.01267  Uiso   1.00
H42    H     0.69340   0.45100   0.64120   0.01267  Uiso   1.00
H43    H     0.22830   0.46990   0.73450   0.01267  Uiso   1.00
H44    H     0.25460   0.35520   0.38720   0.01267  Uiso   1.00
H45    H     0.80460   0.36350   0.52790   0.01267  Uiso   1.00
H46    H     0.86170   0.94040   0.79100   0.01267  Uiso   1.00
H47    H     0.91030   0.93840   0.85780   0.01267  Uiso   1.00
H48    H     0.89340   0.05070   0.90850   0.01267  Uiso   1.00
H49    H     0.01840   0.03570   0.84630   0.01267  Uiso   1.00
H50    H     0.48590   0.27580   0.05720   0.01267  Uiso   1.00
H51    H     0.58990   0.22280   0.08560   0.01267  Uiso   1.00
H52    H     0.30380   0.18370   0.16050   0.01267  Uiso   1.00
H53    H     0.33600   0.25750   0.14830   0.01267  Uiso   1.00
H54    H     0.20550   0.16930   0.84910   0.01267  Uiso   1.00
H55    H     0.21860   0.22380   0.89900   0.01267  Uiso   1.00
H56    H     0.17220   0.05190   0.92710   0.01267  Uiso   1.00
H57    H     0.28560   0.04900   0.85880   0.01267  Uiso   1.00
H58    H     0.93270   0.03010   0.76550   0.01267  Uiso   1.00
H59    H     0.49700   0.14480   0.11280   0.01267  Uiso   1.00
H60    H     0.19600   0.13650   0.97210   0.01267  Uiso   1.00
H61    H     0.34730   0.79100   0.55960   0.01267  Uiso   1.00
H62    H     0.23190   0.85780   0.56160   0.01267  Uiso   1.00
H63    H     0.19810   0.90850   0.44930   0.01267  Uiso   1.00
H64    H     0.13530   0.84630   0.46430   0.01267  Uiso   1.00
H65    H     0.45690   0.05720   0.22420   0.01267  Uiso   1.00
H66    H     0.32450   0.08560   0.27720   0.01267  Uiso   1.00
H67    H     0.53570   0.16050   0.31630   0.01267  Uiso   1.00
H68    H     0.51570   0.14830   0.24250   0.01267  Uiso   1.00
H69    H     0.94540   0.84910   0.33070   0.01267  Uiso   1.00
H70    H     0.88240   0.89900   0.27620   0.01267  Uiso   1.00
H71    H     0.90070   0.92710   0.44810   0.01267  Uiso   1.00
H72    H     0.85560   0.85880   0.45100   0.01267  Uiso   1.00
H73    H     0.30180   0.76550   0.46990   0.01267  Uiso   1.00
H74    H     0.39020   0.11280   0.35520   0.01267  Uiso   1.00
H75    H     0.83190   0.97210   0.36350   0.01267  Uiso   1.00
H76    H     0.19790   0.70900   0.94040   0.01267  Uiso   1.00
H77    H     0.15130   0.64220   0.93840   0.01267  Uiso   1.00
H78    H     0.05590   0.59150   0.05070   0.01267  Uiso   1.00
H79    H     0.94590   0.65370   0.03570   0.01267  Uiso   1.00
H80    H     0.23830   0.44280   0.27580   0.01267  Uiso   1.00
H81    H     0.18730   0.41440   0.22280   0.01267  Uiso   1.00
H82    H     0.51250   0.33950   0.18370   0.01267  Uiso   1.00
H83    H     0.40650   0.35170   0.25750   0.01267  Uiso   1.00
H84    H     0.62520   0.65090   0.16930   0.01267  Uiso   1.00
H85    H     0.55760   0.60100   0.22380   0.01267  Uiso   1.00
H86    H     0.77590   0.57290   0.05190   0.01267  Uiso   1.00
H87    H     0.66540   0.64120   0.04900   0.01267  Uiso   1.00
H88    H     0.03720   0.73450   0.03010   0.01267  Uiso   1.00
H89    H     0.35820   0.38720   0.14480   0.01267  Uiso   1.00
H90    H     0.66750   0.52790   0.13650   0.01267  Uiso   1.00
H91    H     0.90690   0.44040   0.29100   0.01267  Uiso   1.00
H92    H     0.79350   0.43840   0.35780   0.01267  Uiso   1.00
H93    H     0.64740   0.55070   0.40850   0.01267  Uiso   1.00
H94    H     0.59960   0.53570   0.34630   0.01267  Uiso   1.00
H95    H     0.68110   0.77580   0.55720   0.01267  Uiso   1.00
H96    H     0.60170   0.72280   0.58560   0.01267  Uiso   1.00
H97    H     0.85200   0.68370   0.66050   0.01267  Uiso   1.00
H98    H     0.75820   0.75750   0.64830   0.01267  Uiso   1.00
H99    H     0.27610   0.66930   0.34910   0.01267  Uiso   1.00
H100   H     0.15860   0.72380   0.39900   0.01267  Uiso   1.00
H101   H     0.34880   0.55190   0.42710   0.01267  Uiso   1.00
H102   H     0.30660   0.54900   0.35880   0.01267  Uiso   1.00
H103   H     0.77170   0.53010   0.26550   0.01267  Uiso   1.00
H104   H     0.74540   0.64480   0.61280   0.01267  Uiso   1.00
H105   H     0.19540   0.63650   0.47210   0.01267  Uiso   1.00
H106   H     0.13830   0.05960   0.20900   0.01267  Uiso   1.00
H107   H     0.08970   0.06160   0.14220   0.01267  Uiso   1.00
H108   H     0.10660   0.94930   0.09150   0.01267  Uiso   1.00
H109   H     0.98160   0.96430   0.15370   0.01267  Uiso   1.00
H110   H     0.51410   0.72420   0.94280   0.01267  Uiso   1.00
H111   H     0.41010   0.77720   0.91440   0.01267  Uiso   1.00
H112   H     0.69620   0.81630   0.83950   0.01267  Uiso   1.00
H113   H     0.66400   0.74250   0.85170   0.01267  Uiso   1.00
H114   H     0.79450   0.83070   0.15090   0.01267  Uiso   1.00
H115   H     0.78140   0.77620   0.10100   0.01267  Uiso   1.00
H116   H     0.82780   0.94810   0.07290   0.01267  Uiso   1.00
H117   H     0.71440   0.95100   0.14120   0.01267  Uiso   1.00
H118   H     0.06730   0.96990   0.23450   0.01267  Uiso   1.00
H119   H     0.50300   0.85520   0.88720   0.01267  Uiso   1.00
H120   H     0.80400   0.86350   0.02790   0.01267  Uiso   1.00
C1     C     0.60750   0.11560   0.47800   0.01267  Uiso   1.00
C2     C     0.68510   0.16650   0.46710   0.01267  Uiso   1.00
C3     C     0.79010   0.14150   0.56170   0.01267  Uiso   1.00
C4     C     0.76480   0.14970   0.64270   0.01267  Uiso   1.00
C5     C     0.59960   0.02260   0.71300   0.01267  Uiso   1.00
C6     C     0.59360   0.94590   0.72630   0.01267  Uiso   1.00
C7     C     0.46050   0.87620   0.71580   0.01267  Uiso   1.00
C8     C     0.33180   0.92610   0.74070   0.01267  Uiso   1.00
C9     C     0.20790   0.17380   0.67220   0.01267  Uiso   1.00
C10    C     0.13310   0.12330   0.67610   0.01267  Uiso   1.00
C11    C     0.16860   0.08850   0.55190   0.01267  Uiso   1.00
C12    C     0.27470   0.05780   0.48520   0.01267  Uiso   1.00
C13    C     0.70110   0.38440   0.02200   0.01267  Uiso   1.00
C14    C     0.81870   0.33350   0.03290   0.01267  Uiso   1.00
C15    C     0.99330   0.35850   0.93830   0.01267  Uiso   1.00
C16    C     0.05720   0.35030   0.85730   0.01267  Uiso   1.00
C17    C     0.83520   0.47740   0.78700   0.01267  Uiso   1.00
C18    C     0.76580   0.55410   0.77370   0.01267  Uiso   1.00
C19    C     0.55250   0.62380   0.78420   0.01267  Uiso   1.00
C20    C     0.49860   0.57390   0.75930   0.01267  Uiso   1.00
C21    C     0.55390   0.32620   0.82780   0.01267  Uiso   1.00
C22    C     0.43250   0.37670   0.82390   0.01267  Uiso   1.00
C23    C     0.30900   0.41150   0.94810   0.01267  Uiso   1.00
C24    C     0.31770   0.44220   0.01480   0.01267  Uiso   1.00
C25    C     0.08550   0.52200   0.61560   0.01267  Uiso   1.00
C26    C     0.15220   0.53290   0.66650   0.01267  Uiso   1.00
C27    C     0.35180   0.43830   0.64150   0.01267  Uiso   1.00
C28    C     0.40750   0.35730   0.64970   0.01267  Uiso   1.00
C29    C     0.31260   0.28700   0.52260   0.01267  Uiso   1.00
C30    C     0.31990   0.27370   0.44590   0.01267  Uiso   1.00
C31    C     0.17630   0.28420   0.37620   0.01267  Uiso   1.00
C32    C     0.07250   0.25930   0.42610   0.01267  Uiso   1.00
C33    C     0.88010   0.32780   0.67380   0.01267  Uiso   1.00
C34    C     0.80920   0.32390   0.62330   0.01267  Uiso   1.00
C35    C     0.72050   0.44810   0.58850   0.01267  Uiso   1.00
C36    C     0.75990   0.51480   0.55780   0.01267  Uiso   1.00
C37    C     0.72310   0.97800   0.88440   0.01267  Uiso   1.00
C38    C     0.85160   0.96710   0.83350   0.01267  Uiso   1.00
C39    C     0.93160   0.06170   0.85850   0.01267  Uiso   1.00
C40    C     0.91450   0.14270   0.85030   0.01267  Uiso   1.00
C41    C     0.62220   0.21300   0.97740   0.01267  Uiso   1.00
C42    C     0.53950   0.22630   0.05410   0.01267  Uiso   1.00
C43    C     0.33670   0.21580   0.12380   0.01267  Uiso   1.00
C44    C     0.25790   0.24070   0.07390   0.01267  Uiso   1.00
C45    C     0.38170   0.17220   0.82620   0.01267  Uiso   1.00
C46    C     0.25640   0.17610   0.87670   0.01267  Uiso   1.00
C47    C     0.25710   0.05190   0.91150   0.01267  Uiso   1.00
C48    C     0.33250   0.98520   0.94220   0.01267  Uiso   1.00
C49    C     0.39250   0.88440   0.52200   0.01267  Uiso   1.00
C50    C     0.31490   0.83350   0.53290   0.01267  Uiso   1.00
C51    C     0.20990   0.85850   0.43830   0.01267  Uiso   1.00
C52    C     0.23520   0.85030   0.35730   0.01267  Uiso   1.00
C53    C     0.40040   0.97740   0.28700   0.01267  Uiso   1.00
C54    C     0.40640   0.05410   0.27370   0.01267  Uiso   1.00
C55    C     0.53950   0.12380   0.28420   0.01267  Uiso   1.00
C56    C     0.66820   0.07390   0.25930   0.01267  Uiso   1.00
C57    C     0.79210   0.82620   0.32780   0.01267  Uiso   1.00
C58    C     0.86690   0.87670   0.32390   0.01267  Uiso   1.00
C59    C     0.83140   0.91150   0.44810   0.01267  Uiso   1.00
C60    C     0.72530   0.94220   0.51480   0.01267  Uiso   1.00
C61    C     0.29890   0.61560   0.97800   0.01267  Uiso   1.00
C62    C     0.18130   0.66650   0.96710   0.01267  Uiso   1.00
C63    C     0.00670   0.64150   0.06170   0.01267  Uiso   1.00
C64    C     0.94280   0.64970   0.14270   0.01267  Uiso   1.00
C65    C     0.16480   0.52260   0.21300   0.01267  Uiso   1.00
C66    C     0.23420   0.44590   0.22630   0.01267  Uiso   1.00
C67    C     0.44750   0.37620   0.21580   0.01267  Uiso   1.00
C68    C     0.50140   0.42610   0.24070   0.01267  Uiso   1.00
C69    C     0.44610   0.67380   0.17220   0.01267  Uiso   1.00
C70    C     0.56750   0.62330   0.17610   0.01267  Uiso   1.00
C71    C     0.69100   0.58850   0.05190   0.01267  Uiso   1.00
C72    C     0.68230   0.55780   0.98520   0.01267  Uiso   1.00
C73    C     0.91450   0.47800   0.38440   0.01267  Uiso   1.00
C74    C     0.84780   0.46710   0.33350   0.01267  Uiso   1.00
C75    C     0.64820   0.56170   0.35850   0.01267  Uiso   1.00
C76    C     0.59250   0.64270   0.35030   0.01267  Uiso   1.00
C77    C     0.68740   0.71300   0.47740   0.01267  Uiso   1.00
C78    C     0.68010   0.72630   0.55410   0.01267  Uiso   1.00
C79    C     0.82370   0.71580   0.62380   0.01267  Uiso   1.00
C80    C     0.92750   0.74070   0.57390   0.01267  Uiso   1.00
C81    C     0.11990   0.67220   0.32620   0.01267  Uiso   1.00
C82    C     0.19080   0.67610   0.37670   0.01267  Uiso   1.00
C83    C     0.27950   0.55190   0.41150   0.01267  Uiso   1.00
C84    C     0.24010   0.48520   0.44220   0.01267  Uiso   1.00
C85    C     0.27690   0.02200   0.11560   0.01267  Uiso   1.00
C86    C     0.14840   0.03290   0.16650   0.01267  Uiso   1.00
C87    C     0.06840   0.93830   0.14150   0.01267  Uiso   1.00
C88    C     0.08550   0.85730   0.14970   0.01267  Uiso   1.00
C89    C     0.37780   0.78700   0.02260   0.01267  Uiso   1.00
C90    C     0.46050   0.77370   0.94590   0.01267  Uiso   1.00
C91    C     0.66330   0.78420   0.87620   0.01267  Uiso   1.00
C92    C     0.74210   0.75930   0.92610   0.01267  Uiso   1.00
C93    C     0.61830   0.82780   0.17380   0.01267  Uiso   1.00
C94    C     0.74360   0.82390   0.12330   0.01267  Uiso   1.00
C95    C     0.74290   0.94810   0.08850   0.01267  Uiso   1.00
C96    C     0.66750   0.01480   0.05780   0.01267  Uiso   1.00
N1     N     0.68740   0.18953   0.53707   0.01267  Uiso   1.00
N2     N     0.54530   0.91740   0.67740   0.01267  Uiso   1.00
N3     N     0.19735   0.06635   0.61975   0.01267  Uiso   1.00
N4     N     0.91400   0.31047   0.96293   0.01267  Uiso   1.00
N5     N     0.64010   0.58260   0.82260   0.01267  Uiso   1.00
N6     N     0.38345   0.43365   0.88025   0.01267  Uiso   1.00
N7     N     0.22447   0.46293   0.68953   0.01267  Uiso   1.00
N8     N     0.22270   0.32260   0.41740   0.01267  Uiso   1.00
N9     N     0.81710   0.38025   0.56635   0.01267  Uiso   1.00
N10    N     0.87693   0.03707   0.81047   0.01267  Uiso   1.00
N11    N     0.46270   0.17740   0.08260   0.01267  Uiso   1.00
N12    N     0.26370   0.11975   0.93365   0.01267  Uiso   1.00
N13    N     0.31260   0.81047   0.46293   0.01267  Uiso   1.00
N14    N     0.45470   0.08260   0.32260   0.01267  Uiso   1.00
N15    N     0.80265   0.93365   0.38025   0.01267  Uiso   1.00
N16    N     0.08600   0.68953   0.03707   0.01267  Uiso   1.00
N17    N     0.35990   0.41740   0.17740   0.01267  Uiso   1.00
N18    N     0.61655   0.56635   0.11975   0.01267  Uiso   1.00
N19    N     0.77553   0.53707   0.31047   0.01267  Uiso   1.00
N20    N     0.77730   0.67740   0.58260   0.01267  Uiso   1.00
N21    N     0.18290   0.61975   0.43365   0.01267  Uiso   1.00
N22    N     0.12307   0.96293   0.18953   0.01267  Uiso   1.00
N23    N     0.53730   0.82260   0.91740   0.01267  Uiso   1.00
N24    N     0.73630   0.88025   0.06635   0.01267  Uiso   1.00
O1     O     0.54060   0.10941   0.54199   0.01267  Uiso   1.00
O2     O     0.61425   0.08374   0.42276   0.01267  Uiso   1.00
O3     O     0.65448   0.18067   0.67957   0.01267  Uiso   1.00
O4     O     0.84666   0.12437   0.67171   0.01267  Uiso   1.00
O5     O     0.53302   0.06444   0.67612   0.01267  Uiso   1.00
O6     O     0.66730   0.03997   0.74043   0.01267  Uiso   1.00
O7     O     0.31280   0.99130   0.72290   0.01267  Uiso   1.00
O8     O     0.25150   0.89570   0.77490   0.01267  Uiso   1.00
O9     O     0.32406   0.14747   0.64461   0.01267  Uiso   1.00
O10    O     0.15721   0.23558   0.69740   0.01267  Uiso   1.00
O11    O     0.38373   0.04518   0.49016   0.01267  Uiso   1.00
O12    O     0.25248   0.04729   0.43055   0.01267  Uiso   1.00
O13    O     0.69200   0.39059   0.95801   0.01267  Uiso   1.00
O14    O     0.62075   0.41626   0.07724   0.01267  Uiso   1.00
O15    O     0.01472   0.31933   0.82043   0.01267  Uiso   1.00
O16    O     0.14274   0.37563   0.82829   0.01267  Uiso   1.00
O17    O     0.77358   0.43556   0.82388   0.01267  Uiso   1.00
O18    O     0.94770   0.46003   0.75957   0.01267  Uiso   1.00
O19    O     0.52700   0.50870   0.77710   0.01267  Uiso   1.00
O20    O     0.42210   0.60430   0.72510   0.01267  Uiso   1.00
O21    O     0.61614   0.35253   0.85539   0.01267  Uiso   1.00
O22    O     0.59019   0.26442   0.80260   0.01267  Uiso   1.00
O23    O     0.41907   0.45482   0.00984   0.01267  Uiso   1.00
O24    O     0.23032   0.45271   0.06945   0.01267  Uiso   1.00
O25    O     0.08259   0.45801   0.60941   0.01267  Uiso   1.00
O26    O     0.03701   0.57724   0.58374   0.01267  Uiso   1.00
O27    O     0.33405   0.32043   0.68067   0.01267  Uiso   1.00
O28    O     0.51837   0.32829   0.62437   0.01267  Uiso   1.00
O29    O     0.20914   0.32388   0.56444   0.01267  Uiso   1.00
O30    O     0.40773   0.25957   0.53997   0.01267  Uiso   1.00
O31    O     0.03570   0.27710   0.49130   0.01267  Uiso   1.00
O32    O     0.02640   0.22510   0.39570   0.01267  Uiso   1.00
O33    O     0.96867   0.35539   0.64747   0.01267  Uiso   1.00
O34    O     0.85461   0.30260   0.73558   0.01267  Uiso   1.00
O35    O     0.87389   0.50984   0.54518   0.01267  Uiso   1.00
O36    O     0.68303   0.56945   0.54729   0.01267  Uiso   1.00
O37    O     0.65001   0.04199   0.89059   0.01267  Uiso   1.00
O38    O     0.69799   0.92276   0.91626   0.01267  Uiso   1.00
O39    O     0.83515   0.17957   0.81933   0.01267  Uiso   1.00
O40    O     0.97103   0.17171   0.87563   0.01267  Uiso   1.00
O41    O     0.59746   0.17612   0.93556   0.01267  Uiso   1.00
O42    O     0.70727   0.24043   0.96003   0.01267  Uiso   1.00
O43    O     0.30410   0.22290   0.00870   0.01267  Uiso   1.00
O44    O     0.14720   0.27490   0.10430   0.01267  Uiso   1.00
O45    O     0.47153   0.14461   0.85253   0.01267  Uiso   1.00
O46    O     0.39279   0.19740   0.76442   0.01267  Uiso   1.00
O47    O     0.42891   0.99016   0.95482   0.01267  Uiso   1.00
O48    O     0.29977   0.93055   0.95271   0.01267  Uiso   1.00
O49    O     0.45940   0.89059   0.45801   0.01267  Uiso   1.00
O50    O     0.38575   0.91626   0.57724   0.01267  Uiso   1.00
O51    O     0.34552   0.81933   0.32043   0.01267  Uiso   1.00
O52    O     0.15334   0.87563   0.32829   0.01267  Uiso   1.00
O53    O     0.46698   0.93556   0.32388   0.01267  Uiso   1.00
O54    O     0.33270   0.96003   0.25957   0.01267  Uiso   1.00
O55    O     0.68720   0.00870   0.27710   0.01267  Uiso   1.00
O56    O     0.74850   0.10430   0.22510   0.01267  Uiso   1.00
O57    O     0.67594   0.85253   0.35539   0.01267  Uiso   1.00
O58    O     0.84279   0.76442   0.30260   0.01267  Uiso   1.00
O59    O     0.61627   0.95482   0.50984   0.01267  Uiso   1.00
O60    O     0.74752   0.95271   0.56945   0.01267  Uiso   1.00
O61    O     0.30800   0.60941   0.04199   0.01267  Uiso   1.00
O62    O     0.37925   0.58374   0.92276   0.01267  Uiso   1.00
O63    O     0.98528   0.68067   0.17957   0.01267  Uiso   1.00
O64    O     0.85726   0.62437   0.17171   0.01267  Uiso   1.00
O65    O     0.22642   0.56444   0.17612   0.01267  Uiso   1.00
O66    O     0.05230   0.53997   0.24043   0.01267  Uiso   1.00
O67    O     0.47300   0.49130   0.22290   0.01267  Uiso   1.00
O68    O     0.57790   0.39570   0.27490   0.01267  Uiso   1.00
O69    O     0.38386   0.64747   0.14461   0.01267  Uiso   1.00
O70    O     0.40981   0.73558   0.19740   0.01267  Uiso   1.00
O71    O     0.58093   0.54518   0.99016   0.01267  Uiso   1.00
O72    O     0.76968   0.54729   0.93055   0.01267  Uiso   1.00
O73    O     0.91741   0.54199   0.39059   0.01267  Uiso   1.00
O74    O     0.96299   0.42276   0.41626   0.01267  Uiso   1.00
O75    O     0.66595   0.67957   0.31933   0.01267  Uiso   1.00
O76    O     0.48163   0.67171   0.37563   0.01267  Uiso   1.00
O77    O     0.79086   0.67612   0.43556   0.01267  Uiso   1.00
O78    O     0.59227   0.74043   0.46003   0.01267  Uiso   1.00
O79    O     0.96430   0.72290   0.50870   0.01267  Uiso   1.00
O80    O     0.97360   0.77490   0.60430   0.01267  Uiso   1.00
O81    O     0.03133   0.64461   0.35253   0.01267  Uiso   1.00
O82    O     0.14539   0.69740   0.26442   0.01267  Uiso   1.00
O83    O     0.12611   0.49016   0.45482   0.01267  Uiso   1.00
O84    O     0.31697   0.43055   0.45271   0.01267  Uiso   1.00
O85    O     0.34999   0.95801   0.10941   0.01267  Uiso   1.00
O86    O     0.30201   0.07724   0.08374   0.01267  Uiso   1.00
O87    O     0.16485   0.82043   0.18067   0.01267  Uiso   1.00
O88    O     0.02897   0.82829   0.12437   0.01267  Uiso   1.00
O89    O     0.40254   0.82388   0.06444   0.01267  Uiso   1.00
O90    O     0.29273   0.75957   0.03997   0.01267  Uiso   1.00
O91    O     0.69590   0.77710   0.99130   0.01267  Uiso   1.00
O92    O     0.85280   0.72510   0.89570   0.01267  Uiso   1.00
O93    O     0.52847   0.85539   0.14747   0.01267  Uiso   1.00
O94    O     0.60721   0.80260   0.23558   0.01267  Uiso   1.00
O95    O     0.57109   0.00984   0.04518   0.01267  Uiso   1.00
O96    O     0.70023   0.06945   0.04729   0.01267  Uiso   1.00
