data_ZEXKUK_clean
_audit_creation_date              2014-07-02
_audit_creation_method            'Materials Studio'
_symmetry_space_group_name_H-M    'P1'
_symmetry_Int_Tables_number       1
_symmetry_cell_setting            triclinic
loop_
_symmetry_equiv_pos_as_xyz
  x,y,z
_cell_length_a                    9.2992
_cell_length_b                    11.5190
_cell_length_c                    13.2620
_cell_angle_alpha                 90.0000
_cell_angle_beta                  90.9130
_cell_angle_gamma                 90.0000
loop_
_atom_site_label
_atom_site_type_symbol
_atom_site_fract_x
_atom_site_fract_y
_atom_site_fract_z
_atom_site_U_iso_or_equiv
_atom_site_adp_type
_atom_site_occupancy
Co1    Co    0.25000   0.44970   0.50000   0.01267  Uiso   1.00
Co2    Co    0.75000   0.55030   0.50000   0.01267  Uiso   1.00
H1     H     0.76160   0.53740   0.23400   0.01267  Uiso   1.00
H2     H     0.66430   0.45390   0.08950   0.01267  Uiso   1.00
H3     H     0.97450   0.21180   0.09690   0.01267  Uiso   1.00
H4     H     0.07110   0.29560   0.24140   0.01267  Uiso   1.00
H5     H     0.06860   0.23790   0.42560   0.01267  Uiso   1.00
H6     H     0.06880   0.03950   0.41670   0.01267  Uiso   1.00
H7     H     0.15000   0.86040   0.36520   0.01267  Uiso   1.00
H8     H     0.15610   0.66200   0.36810   0.01267  Uiso   1.00
H9     H     0.73840   0.53740   0.76600   0.01267  Uiso   1.00
H10    H     0.83570   0.45390   0.91050   0.01267  Uiso   1.00
H11    H     0.52550   0.21180   0.90310   0.01267  Uiso   1.00
H12    H     0.42890   0.29560   0.75860   0.01267  Uiso   1.00
H13    H     0.43140   0.23790   0.57440   0.01267  Uiso   1.00
H14    H     0.43120   0.03950   0.58330   0.01267  Uiso   1.00
H15    H     0.35000   0.86040   0.63480   0.01267  Uiso   1.00
H16    H     0.34390   0.66200   0.63190   0.01267  Uiso   1.00
H17    H     0.23840   0.46260   0.76600   0.01267  Uiso   1.00
H18    H     0.33570   0.54610   0.91050   0.01267  Uiso   1.00
H19    H     0.02550   0.78820   0.90310   0.01267  Uiso   1.00
H20    H     0.92890   0.70440   0.75860   0.01267  Uiso   1.00
H21    H     0.93140   0.76210   0.57440   0.01267  Uiso   1.00
H22    H     0.93120   0.96050   0.58330   0.01267  Uiso   1.00
H23    H     0.85000   0.13960   0.63480   0.01267  Uiso   1.00
H24    H     0.84390   0.33800   0.63190   0.01267  Uiso   1.00
H25    H     0.26160   0.46260   0.23400   0.01267  Uiso   1.00
H26    H     0.16430   0.54610   0.08950   0.01267  Uiso   1.00
H27    H     0.47450   0.78820   0.09690   0.01267  Uiso   1.00
H28    H     0.57110   0.70440   0.24140   0.01267  Uiso   1.00
H29    H     0.56860   0.76210   0.42560   0.01267  Uiso   1.00
H30    H     0.56880   0.96050   0.41670   0.01267  Uiso   1.00
H31    H     0.65000   0.13960   0.36520   0.01267  Uiso   1.00
H32    H     0.65610   0.33800   0.36810   0.01267  Uiso   1.00
C1     C     0.98330   0.47590   0.35129   0.01267  Uiso   1.00
C2     C     0.92560   0.42421   0.25387   0.01267  Uiso   1.00
C3     C     0.80400   0.47150   0.20693   0.01267  Uiso   1.00
C4     C     0.74540   0.42180   0.12049   0.01267  Uiso   1.00
C5     C     0.80900   0.32420   0.08109   0.01267  Uiso   1.00
C6     C     0.93130   0.27680   0.12505   0.01267  Uiso   1.00
C7     C     0.98890   0.32720   0.21145   0.01267  Uiso   1.00
C8     C     0.14460   0.19760   0.45556   0.01267  Uiso   1.00
C9     C     0.14240   0.07760   0.45165   0.01267  Uiso   1.00
C10    C     0.19130   0.82220   0.42019   0.01267  Uiso   1.00
C11    C     0.19460   0.70230   0.42298   0.01267  Uiso   1.00
C12    C     0.51670   0.47590   0.64871   0.01267  Uiso   1.00
C13    C     0.57440   0.42421   0.74613   0.01267  Uiso   1.00
C14    C     0.69600   0.47150   0.79307   0.01267  Uiso   1.00
C15    C     0.75460   0.42180   0.87951   0.01267  Uiso   1.00
C16    C     0.69100   0.32420   0.91891   0.01267  Uiso   1.00
C17    C     0.56870   0.27680   0.87495   0.01267  Uiso   1.00
C18    C     0.51110   0.32720   0.78855   0.01267  Uiso   1.00
C19    C     0.35540   0.19760   0.54444   0.01267  Uiso   1.00
C20    C     0.35760   0.07760   0.54835   0.01267  Uiso   1.00
C21    C     0.30870   0.82220   0.57981   0.01267  Uiso   1.00
C22    C     0.30540   0.70230   0.57702   0.01267  Uiso   1.00
C23    C     0.01670   0.52410   0.64871   0.01267  Uiso   1.00
C24    C     0.07440   0.57579   0.74613   0.01267  Uiso   1.00
C25    C     0.19600   0.52850   0.79307   0.01267  Uiso   1.00
C26    C     0.25460   0.57820   0.87951   0.01267  Uiso   1.00
C27    C     0.19100   0.67580   0.91891   0.01267  Uiso   1.00
C28    C     0.06870   0.72320   0.87495   0.01267  Uiso   1.00
C29    C     0.01110   0.67280   0.78855   0.01267  Uiso   1.00
C30    C     0.85540   0.80240   0.54444   0.01267  Uiso   1.00
C31    C     0.85760   0.92240   0.54835   0.01267  Uiso   1.00
C32    C     0.80870   0.17780   0.57981   0.01267  Uiso   1.00
C33    C     0.80540   0.29770   0.57702   0.01267  Uiso   1.00
C34    C     0.48330   0.52410   0.35129   0.01267  Uiso   1.00
C35    C     0.42560   0.57579   0.25387   0.01267  Uiso   1.00
C36    C     0.30400   0.52850   0.20693   0.01267  Uiso   1.00
C37    C     0.24540   0.57820   0.12049   0.01267  Uiso   1.00
C38    C     0.30900   0.67580   0.08109   0.01267  Uiso   1.00
C39    C     0.43130   0.72320   0.12505   0.01267  Uiso   1.00
C40    C     0.48890   0.67280   0.21145   0.01267  Uiso   1.00
C41    C     0.64460   0.80240   0.45556   0.01267  Uiso   1.00
C42    C     0.64240   0.92240   0.45165   0.01267  Uiso   1.00
C43    C     0.69130   0.17780   0.42019   0.01267  Uiso   1.00
C44    C     0.69460   0.29770   0.42298   0.01267  Uiso   1.00
C45    C     0.25000   0.01400   0.50000   0.01267  Uiso   1.00
C46    C     0.25000   0.88540   0.50000   0.01267  Uiso   1.00
C47    C     0.75000   0.98600   0.50000   0.01267  Uiso   1.00
C48    C     0.75000   0.11460   0.50000   0.01267  Uiso   1.00
N1     N     0.25000   0.25870   0.50000   0.01267  Uiso   1.00
N2     N     0.25000   0.64080   0.50000   0.01267  Uiso   1.00
N3     N     0.75000   0.74130   0.50000   0.01267  Uiso   1.00
N4     N     0.75000   0.35920   0.50000   0.01267  Uiso   1.00
O1     O     0.10331   0.43752   0.38090   0.01267  Uiso   1.00
O2     O     0.91122   0.55311   0.39329   0.01267  Uiso   1.00
O3     O     0.39669   0.43752   0.61910   0.01267  Uiso   1.00
O4     O     0.58878   0.55311   0.60671   0.01267  Uiso   1.00
O5     O     0.89669   0.56248   0.61910   0.01267  Uiso   1.00
O6     O     0.08878   0.44689   0.60671   0.01267  Uiso   1.00
O7     O     0.60331   0.56248   0.38090   0.01267  Uiso   1.00
O8     O     0.41122   0.44689   0.39329   0.01267  Uiso   1.00
O9     O     0.75000   0.26320   1.00000   0.01267  Uiso   1.00
O10    O     0.25000   0.73680   1.00000   0.01267  Uiso   1.00
