data_image0
_cell_length_a       22.839
_cell_length_b       22.839
_cell_length_c       33.078
_cell_angle_alpha    90
_cell_angle_beta     90
_cell_angle_gamma    90

_symmetry_space_group_name_H-M    "P 1"
_symmetry_int_tables_number       1

loop_
  _symmetry_equiv_pos_as_xyz
  'x, y, z'

loop_
  _atom_site_label
  _atom_site_occupancy
  _atom_site_fract_x
  _atom_site_fract_y
  _atom_site_fract_z
  _atom_site_thermal_displace_type
  _atom_site_B_iso_or_equiv
  _atom_site_type_symbol
  Zn1      1.0000 0.42361  0.04100  0.60736  Biso   1.000  Zn
  Na1      1.0000 0.46916  0.93363  0.55716  Biso   1.000  Na
  Na2      1.0000 0.46039  0.89118  0.45720  Biso   1.000  Na
  C1       1.0000 0.80640  0.26930  0.34576  Biso   1.000  C
  C2       1.0000 0.77400  0.27200  0.38337  Biso   1.000  C
  H1       1.0000 0.73870  0.25240  0.38660  Biso   1.000  H
  C3       1.0000 0.79830  0.30550  0.41451  Biso   1.000  C
  C4       1.0000 0.85150  0.33380  0.40965  Biso   1.000  C
  H2       1.0000 0.86670  0.35620  0.43070  Biso   1.000  H
  C5       1.0000 0.88270  0.32910  0.37340  Biso   1.000  C
  C6       1.0000 0.85890  0.29870  0.34205  Biso   1.000  C
  H3       1.0000 0.87860  0.29780  0.31750  Biso   1.000  H
  C7       1.0000 0.51093  0.08855  0.50124  Biso   1.000  C
  C8       1.0000 0.55290  0.13090  0.49456  Biso   1.000  C
  H4       1.0000 0.56410  0.15580  0.51540  Biso   1.000  H
  C9       1.0000 0.57820  0.13640  0.45720  Biso   1.000  C
  C10      1.0000 0.56090  0.09650  0.42599  Biso   1.000  C
  H5       1.0000 0.57890  0.09840  0.40080  Biso   1.000  H
  C11      1.0000 0.51774  0.05533  0.43282  Biso   1.000  C
  C12      1.0000 0.49352  0.05167  0.47017  Biso   1.000  C
  H6       1.0000 0.46460  0.02390  0.47500  Biso   1.000  H
  C13      1.0000 0.50164  0.01575  0.39858  Biso   1.000  C
  C14      1.0000 0.48526  0.08510  0.54400  Biso   1.000  C
  C15      1.0000 0.93992  0.36190  0.36769  Biso   1.000  C
  C16      1.0000 0.77900  0.23650  0.31096  Biso   1.000  C
  C17      1.0000 0.72590  0.28110  0.46992  Biso   1.000  C
  C18      1.0000 0.65560  0.21330  0.46964  Biso   1.000  C
  C19      1.0000 0.67720  0.26130  0.52704  Biso   1.000  C
  C20      1.0000 0.83030  0.39050  0.61522  Biso   1.000  C
  C21      1.0000 0.76830  0.36540  0.61989  Biso   1.000  C
  C22      1.0000 0.73280  0.38250  0.65429  Biso   1.000  C
  H7       1.0000 0.74910  0.40530  0.67470  Biso   1.000  H
  C23      1.0000 0.67830  0.36610  0.65670  Biso   1.000  C
  C24      1.0000 0.74340  0.33150  0.59094  Biso   1.000  C
  H8       1.0000 0.76570  0.32280  0.56820  Biso   1.000  H
  C25      1.0000 0.65510  0.33180  0.62360  Biso   1.000  C
  H9       1.0000 0.61500  0.32490  0.62330  Biso   1.000  H
  C26      1.0000 0.68730  0.30880  0.59284  Biso   1.000  C
  C27      1.0000 0.63460  0.38450  0.68840  Biso   1.000  C
  N1       1.0000 0.77290  0.31020  0.45320  Biso   1.000  N
  H10      1.0000 0.78940  0.33520  0.46890  Biso   1.000  H
  N2       1.0000 0.71800  0.29340  0.50997  Biso   1.000  N
  N3       1.0000 0.69840  0.24040  0.44836  Biso   1.000  N
  N4       1.0000 0.62110  0.17950  0.44574  Biso   1.000  N
  H11      1.0000 0.62550  0.18450  0.42020  Biso   1.000  H
  N5       1.0000 0.64059  0.22360  0.50750  Biso   1.000  N
  N6       1.0000 0.66290  0.27130  0.56602  Biso   1.000  N
  H12      1.0000 0.63410  0.25080  0.57510  Biso   1.000  H
  O1       1.0000 0.52638  0.02240  0.36580  Biso   1.000  O
  O2       1.0000 0.53830  0.91672  0.50575  Biso   1.000  O
  O3       1.0000 0.46519  0.97558  0.40521  Biso   1.000  O
  O4       1.0000 0.49470  0.84140  0.58820  Biso   1.000  O
  H13      1.0000 0.48830  0.81460  0.57220  Biso   1.000  H
  O5       1.0000 0.49266  0.12199  0.56900  Biso   1.000  O
  O6       1.0000 0.39180  0.93392  0.50197  Biso   1.000  O
  O7       1.0000 0.45387  0.03953  0.55013  Biso   1.000  O
  O8       1.0000 0.96894  0.35395  0.33573  Biso   1.000  O
  O9       1.0000 0.95904  0.38938  0.39758  Biso   1.000  O
  O10      1.0000 0.85295  0.41121  0.64639  Biso   1.000  O
  O11      1.0000 0.85262  0.39018  0.58153  Biso   1.000  O
  O12      1.0000 0.73700  0.20860  0.31607  Biso   1.000  O
  O13      1.0000 0.80820  0.23900  0.28002  Biso   1.000  O
  O14      1.0000 0.58750  0.36140  0.69406  Biso   1.000  O
  O15      1.0000 0.66190  0.41410  0.71780  Biso   1.000  O
  Zn2      1.0000 0.57639  0.95900  0.10736  Biso   1.000  Zn
  Na3      1.0000 0.53084  0.06637  0.05716  Biso   1.000  Na
  Na4      1.0000 0.53961  0.10882  0.95720  Biso   1.000  Na
  C28      1.0000 0.19360  0.73070  0.84576  Biso   1.000  C
  C29      1.0000 0.22600  0.72800  0.88337  Biso   1.000  C
  H14      1.0000 0.26130  0.74760  0.88660  Biso   1.000  H
  C30      1.0000 0.20170  0.69450  0.91451  Biso   1.000  C
  C31      1.0000 0.14850  0.66620  0.90965  Biso   1.000  C
  H15      1.0000 0.13330  0.64380  0.93070  Biso   1.000  H
  C32      1.0000 0.11730  0.67090  0.87340  Biso   1.000  C
  C33      1.0000 0.14110  0.70130  0.84205  Biso   1.000  C
  H16      1.0000 0.12140  0.70220  0.81750  Biso   1.000  H
  C34      1.0000 0.48907  0.91145  0.00124  Biso   1.000  C
  C35      1.0000 0.44710  0.86910  0.99456  Biso   1.000  C
  H17      1.0000 0.43590  0.84420  0.01540  Biso   1.000  H
  C36      1.0000 0.42180  0.86360  0.95720  Biso   1.000  C
  C37      1.0000 0.43910  0.90350  0.92599  Biso   1.000  C
  H18      1.0000 0.42110  0.90160  0.90080  Biso   1.000  H
  C38      1.0000 0.48226  0.94467  0.93282  Biso   1.000  C
  C39      1.0000 0.50648  0.94833  0.97017  Biso   1.000  C
  H19      1.0000 0.53540  0.97610  0.97500  Biso   1.000  H
  C40      1.0000 0.49836  0.98425  0.89858  Biso   1.000  C
  C41      1.0000 0.51474  0.91490  0.04400  Biso   1.000  C
  C42      1.0000 0.06008  0.63810  0.86769  Biso   1.000  C
  C43      1.0000 0.22100  0.76350  0.81096  Biso   1.000  C
  C44      1.0000 0.27410  0.71890  0.96992  Biso   1.000  C
  C45      1.0000 0.34440  0.78670  0.96964  Biso   1.000  C
  C46      1.0000 0.32280  0.73870  0.02704  Biso   1.000  C
  C47      1.0000 0.16970  0.60950  0.11522  Biso   1.000  C
  C48      1.0000 0.23170  0.63460  0.11989  Biso   1.000  C
  C49      1.0000 0.26720  0.61750  0.15429  Biso   1.000  C
  H20      1.0000 0.25090  0.59470  0.17470  Biso   1.000  H
  C50      1.0000 0.32170  0.63390  0.15670  Biso   1.000  C
  C51      1.0000 0.25660  0.66850  0.09094  Biso   1.000  C
  H21      1.0000 0.23430  0.67720  0.06820  Biso   1.000  H
  C52      1.0000 0.34490  0.66820  0.12360  Biso   1.000  C
  H22      1.0000 0.38500  0.67510  0.12330  Biso   1.000  H
  C53      1.0000 0.31270  0.69120  0.09284  Biso   1.000  C
  C54      1.0000 0.36540  0.61550  0.18840  Biso   1.000  C
  N7       1.0000 0.22710  0.68980  0.95320  Biso   1.000  N
  H23      1.0000 0.21060  0.66480  0.96890  Biso   1.000  H
  N8       1.0000 0.28200  0.70660  0.00997  Biso   1.000  N
  N9       1.0000 0.30160  0.75960  0.94836  Biso   1.000  N
  N10      1.0000 0.37890  0.82050  0.94574  Biso   1.000  N
  H24      1.0000 0.37450  0.81550  0.92020  Biso   1.000  H
  N11      1.0000 0.35941  0.77640  0.00750  Biso   1.000  N
  N12      1.0000 0.33710  0.72870  0.06602  Biso   1.000  N
  H25      1.0000 0.36590  0.74920  0.07510  Biso   1.000  H
  O16      1.0000 0.47362  0.97760  0.86580  Biso   1.000  O
  O17      1.0000 0.46170  0.08328  0.00575  Biso   1.000  O
  O18      1.0000 0.53481  0.02442  0.90521  Biso   1.000  O
  O19      1.0000 0.50530  0.15860  0.08820  Biso   1.000  O
  H26      1.0000 0.51170  0.18540  0.07220  Biso   1.000  H
  O20      1.0000 0.50734  0.87801  0.06900  Biso   1.000  O
  O21      1.0000 0.60820  0.06608  0.00197  Biso   1.000  O
  O22      1.0000 0.54613  0.96047  0.05013  Biso   1.000  O
  O23      1.0000 0.03106  0.64605  0.83573  Biso   1.000  O
  O24      1.0000 0.04096  0.61062  0.89758  Biso   1.000  O
  O25      1.0000 0.14705  0.58879  0.14639  Biso   1.000  O
  O26      1.0000 0.14738  0.60982  0.08153  Biso   1.000  O
  O27      1.0000 0.26300  0.79140  0.81607  Biso   1.000  O
  O28      1.0000 0.19180  0.76100  0.78002  Biso   1.000  O
  O29      1.0000 0.41250  0.63860  0.19406  Biso   1.000  O
  O30      1.0000 0.33810  0.58590  0.21780  Biso   1.000  O
  Zn3      1.0000 0.45900  0.92361  0.35736  Biso   1.000  Zn
  Na5      1.0000 0.56637  0.96916  0.30716  Biso   1.000  Na
  Na6      1.0000 0.60882  0.96039  0.20720  Biso   1.000  Na
  C55      1.0000 0.23070  0.30640  0.09576  Biso   1.000  C
  C56      1.0000 0.22800  0.27400  0.13337  Biso   1.000  C
  H27      1.0000 0.24760  0.23870  0.13660  Biso   1.000  H
  C57      1.0000 0.19450  0.29830  0.16451  Biso   1.000  C
  C58      1.0000 0.16620  0.35150  0.15965  Biso   1.000  C
  H28      1.0000 0.14380  0.36670  0.18070  Biso   1.000  H
  C59      1.0000 0.17090  0.38270  0.12340  Biso   1.000  C
  C60      1.0000 0.20130  0.35890  0.09205  Biso   1.000  C
  H29      1.0000 0.20220  0.37860  0.06750  Biso   1.000  H
  C61      1.0000 0.41145  0.01093  0.25124  Biso   1.000  C
  C62      1.0000 0.36910  0.05290  0.24456  Biso   1.000  C
  H30      1.0000 0.34420  0.06410  0.26540  Biso   1.000  H
  C63      1.0000 0.36360  0.07820  0.20720  Biso   1.000  C
  C64      1.0000 0.40350  0.06090  0.17599  Biso   1.000  C
  H31      1.0000 0.40160  0.07890  0.15080  Biso   1.000  H
  C65      1.0000 0.44467  0.01774  0.18282  Biso   1.000  C
  C66      1.0000 0.44833  0.99352  0.22017  Biso   1.000  C
  H32      1.0000 0.47610  0.96460  0.22500  Biso   1.000  H
  C67      1.0000 0.48425  0.00164  0.14858  Biso   1.000  C
  C68      1.0000 0.41490  0.98526  0.29400  Biso   1.000  C
  C69      1.0000 0.13810  0.43992  0.11769  Biso   1.000  C
  C70      1.0000 0.26350  0.27900  0.06096  Biso   1.000  C
  C71      1.0000 0.21890  0.22590  0.21992  Biso   1.000  C
  C72      1.0000 0.28670  0.15560  0.21964  Biso   1.000  C
  C73      1.0000 0.23870  0.17720  0.27704  Biso   1.000  C
  C74      1.0000 0.10950  0.33030  0.36522  Biso   1.000  C
  C75      1.0000 0.13460  0.26830  0.36989  Biso   1.000  C
  C76      1.0000 0.11750  0.23280  0.40429  Biso   1.000  C
  H33      1.0000 0.09470  0.24910  0.42470  Biso   1.000  H
  C77      1.0000 0.13390  0.17830  0.40670  Biso   1.000  C
  C78      1.0000 0.16850  0.24340  0.34094  Biso   1.000  C
  H34      1.0000 0.17720  0.26570  0.31820  Biso   1.000  H
  C79      1.0000 0.16820  0.15510  0.37360  Biso   1.000  C
  H35      1.0000 0.17510  0.11500  0.37330  Biso   1.000  H
  C80      1.0000 0.19120  0.18730  0.34284  Biso   1.000  C
  C81      1.0000 0.11550  0.13460  0.43840  Biso   1.000  C
  N13      1.0000 0.18980  0.27290  0.20320  Biso   1.000  N
  H36      1.0000 0.16480  0.28940  0.21890  Biso   1.000  H
  N14      1.0000 0.20660  0.21800  0.25997  Biso   1.000  N
  N15      1.0000 0.25960  0.19840  0.19836  Biso   1.000  N
  N16      1.0000 0.32050  0.12110  0.19574  Biso   1.000  N
  H37      1.0000 0.31550  0.12550  0.17020  Biso   1.000  H
  N17      1.0000 0.27640  0.14059  0.25750  Biso   1.000  N
  N18      1.0000 0.22870  0.16290  0.31602  Biso   1.000  N
  H38      1.0000 0.24920  0.13410  0.32510  Biso   1.000  H
  O31      1.0000 0.47760  0.02638  0.11580  Biso   1.000  O
  O32      1.0000 0.58328  0.03830  0.25575  Biso   1.000  O
  O33      1.0000 0.52442  0.96519  0.15521  Biso   1.000  O
  O34      1.0000 0.65860  0.99470  0.33820  Biso   1.000  O
  H39      1.0000 0.68540  0.98830  0.32220  Biso   1.000  H
  O35      1.0000 0.37801  0.99266  0.31900  Biso   1.000  O
  O36      1.0000 0.56608  0.89180  0.25197  Biso   1.000  O
  O37      1.0000 0.46047  0.95387  0.30013  Biso   1.000  O
  O38      1.0000 0.14605  0.46894  0.08573  Biso   1.000  O
  O39      1.0000 0.11062  0.45904  0.14758  Biso   1.000  O
  O40      1.0000 0.08879  0.35295  0.39639  Biso   1.000  O
  O41      1.0000 0.10982  0.35262  0.33153  Biso   1.000  O
  O42      1.0000 0.29140  0.23700  0.06607  Biso   1.000  O
  O43      1.0000 0.26100  0.30820  0.03002  Biso   1.000  O
  O44      1.0000 0.13860  0.08750  0.44406  Biso   1.000  O
  O45      1.0000 0.08590  0.16190  0.46780  Biso   1.000  O
  Zn4      1.0000 0.54100  0.07639  0.85736  Biso   1.000  Zn
  Na7      1.0000 0.43363  0.03084  0.80716  Biso   1.000  Na
  Na8      1.0000 0.39118  0.03961  0.70720  Biso   1.000  Na
  C82      1.0000 0.76930  0.69360  0.59576  Biso   1.000  C
  C83      1.0000 0.77200  0.72600  0.63337  Biso   1.000  C
  H40      1.0000 0.75240  0.76130  0.63660  Biso   1.000  H
  C84      1.0000 0.80550  0.70170  0.66451  Biso   1.000  C
  C85      1.0000 0.83380  0.64850  0.65965  Biso   1.000  C
  H41      1.0000 0.85620  0.63330  0.68070  Biso   1.000  H
  C86      1.0000 0.82910  0.61730  0.62340  Biso   1.000  C
  C87      1.0000 0.79870  0.64110  0.59205  Biso   1.000  C
  H42      1.0000 0.79780  0.62140  0.56750  Biso   1.000  H
  C88      1.0000 0.58855  0.98907  0.75124  Biso   1.000  C
  C89      1.0000 0.63090  0.94710  0.74456  Biso   1.000  C
  H43      1.0000 0.65580  0.93590  0.76540  Biso   1.000  H
  C90      1.0000 0.63640  0.92180  0.70720  Biso   1.000  C
  C91      1.0000 0.59650  0.93910  0.67599  Biso   1.000  C
  H44      1.0000 0.59840  0.92110  0.65080  Biso   1.000  H
  C92      1.0000 0.55533  0.98226  0.68282  Biso   1.000  C
  C93      1.0000 0.55167  0.00648  0.72017  Biso   1.000  C
  H45      1.0000 0.52390  0.03540  0.72500  Biso   1.000  H
  C94      1.0000 0.51575  0.99836  0.64858  Biso   1.000  C
  C95      1.0000 0.58510  0.01474  0.79400  Biso   1.000  C
  C96      1.0000 0.86190  0.56008  0.61769  Biso   1.000  C
  C97      1.0000 0.73650  0.72100  0.56096  Biso   1.000  C
  C98      1.0000 0.78110  0.77410  0.71992  Biso   1.000  C
  C99      1.0000 0.71330  0.84440  0.71964  Biso   1.000  C
  C100     1.0000 0.76130  0.82280  0.77704  Biso   1.000  C
  C101     1.0000 0.89050  0.66970  0.86522  Biso   1.000  C
  C102     1.0000 0.86540  0.73170  0.86989  Biso   1.000  C
  C103     1.0000 0.88250  0.76720  0.90429  Biso   1.000  C
  H46      1.0000 0.90530  0.75090  0.92470  Biso   1.000  H
  C104     1.0000 0.86610  0.82170  0.90670  Biso   1.000  C
  C105     1.0000 0.83150  0.75660  0.84094  Biso   1.000  C
  H47      1.0000 0.82280  0.73430  0.81820  Biso   1.000  H
  C106     1.0000 0.83180  0.84490  0.87360  Biso   1.000  C
  H48      1.0000 0.82490  0.88500  0.87330  Biso   1.000  H
  C107     1.0000 0.80880  0.81270  0.84284  Biso   1.000  C
  C108     1.0000 0.88450  0.86540  0.93840  Biso   1.000  C
  N19      1.0000 0.81020  0.72710  0.70320  Biso   1.000  N
  H49      1.0000 0.83520  0.71060  0.71890  Biso   1.000  H
  N20      1.0000 0.79340  0.78200  0.75997  Biso   1.000  N
  N21      1.0000 0.74040  0.80160  0.69836  Biso   1.000  N
  N22      1.0000 0.67950  0.87890  0.69574  Biso   1.000  N
  H50      1.0000 0.68450  0.87450  0.67020  Biso   1.000  H
  N23      1.0000 0.72360  0.85941  0.75750  Biso   1.000  N
  N24      1.0000 0.77130  0.83710  0.81602  Biso   1.000  N
  H51      1.0000 0.75080  0.86590  0.82510  Biso   1.000  H
  O46      1.0000 0.52240  0.97362  0.61580  Biso   1.000  O
  O47      1.0000 0.41672  0.96170  0.75575  Biso   1.000  O
  O48      1.0000 0.47558  0.03481  0.65521  Biso   1.000  O
  O49      1.0000 0.34140  0.00530  0.83820  Biso   1.000  O
  H52      1.0000 0.31460  0.01170  0.82220  Biso   1.000  H
  O50      1.0000 0.62199  0.00734  0.81900  Biso   1.000  O
  O51      1.0000 0.43392  0.10820  0.75197  Biso   1.000  O
  O52      1.0000 0.53953  0.04613  0.80013  Biso   1.000  O
  O53      1.0000 0.85395  0.53106  0.58573  Biso   1.000  O
  O54      1.0000 0.88938  0.54096  0.64758  Biso   1.000  O
  O55      1.0000 0.91121  0.64705  0.89639  Biso   1.000  O
  O56      1.0000 0.89018  0.64738  0.83153  Biso   1.000  O
  O57      1.0000 0.70860  0.76300  0.56607  Biso   1.000  O
  O58      1.0000 0.73900  0.69180  0.53002  Biso   1.000  O
  O59      1.0000 0.86140  0.91250  0.94406  Biso   1.000  O
  O60      1.0000 0.91410  0.83810  0.96780  Biso   1.000  O
  Zn5      1.0000 0.07639  0.54100  0.14264  Biso   1.000  Zn
  Na9      1.0000 0.03084  0.43363  0.19284  Biso   1.000  Na
  Na10     1.0000 0.03961  0.39118  0.29280  Biso   1.000  Na
  C109     1.0000 0.69360  0.76930  0.40424  Biso   1.000  C
  C110     1.0000 0.72600  0.77200  0.36663  Biso   1.000  C
  H53      1.0000 0.76130  0.75240  0.36340  Biso   1.000  H
  C111     1.0000 0.70170  0.80550  0.33549  Biso   1.000  C
  C112     1.0000 0.64850  0.83380  0.34035  Biso   1.000  C
  H54      1.0000 0.63330  0.85620  0.31930  Biso   1.000  H
  C113     1.0000 0.61730  0.82910  0.37660  Biso   1.000  C
  C114     1.0000 0.64110  0.79870  0.40795  Biso   1.000  C
  H55      1.0000 0.62140  0.79780  0.43250  Biso   1.000  H
  C115     1.0000 0.98907  0.58855  0.24876  Biso   1.000  C
  C116     1.0000 0.94710  0.63090  0.25544  Biso   1.000  C
  H56      1.0000 0.93590  0.65580  0.23460  Biso   1.000  H
  C117     1.0000 0.92180  0.63640  0.29280  Biso   1.000  C
  C118     1.0000 0.93910  0.59650  0.32401  Biso   1.000  C
  H57      1.0000 0.92110  0.59840  0.34920  Biso   1.000  H
  C119     1.0000 0.98226  0.55533  0.31718  Biso   1.000  C
  C120     1.0000 0.00648  0.55167  0.27983  Biso   1.000  C
  H58      1.0000 0.03540  0.52390  0.27500  Biso   1.000  H
  C121     1.0000 0.99836  0.51575  0.35142  Biso   1.000  C
  C122     1.0000 0.01474  0.58510  0.20600  Biso   1.000  C
  C123     1.0000 0.56008  0.86190  0.38231  Biso   1.000  C
  C124     1.0000 0.72100  0.73650  0.43904  Biso   1.000  C
  C125     1.0000 0.77410  0.78110  0.28008  Biso   1.000  C
  C126     1.0000 0.84440  0.71330  0.28036  Biso   1.000  C
  C127     1.0000 0.82280  0.76130  0.22296  Biso   1.000  C
  C128     1.0000 0.66970  0.89050  0.13478  Biso   1.000  C
  C129     1.0000 0.73170  0.86540  0.13011  Biso   1.000  C
  C130     1.0000 0.76720  0.88250  0.09571  Biso   1.000  C
  H59      1.0000 0.75090  0.90530  0.07530  Biso   1.000  H
  C131     1.0000 0.82170  0.86610  0.09330  Biso   1.000  C
  C132     1.0000 0.75660  0.83150  0.15906  Biso   1.000  C
  H60      1.0000 0.73430  0.82280  0.18180  Biso   1.000  H
  C133     1.0000 0.84490  0.83180  0.12640  Biso   1.000  C
  H61      1.0000 0.88500  0.82490  0.12670  Biso   1.000  H
  C134     1.0000 0.81270  0.80880  0.15716  Biso   1.000  C
  C135     1.0000 0.86540  0.88450  0.06160  Biso   1.000  C
  N25      1.0000 0.72710  0.81020  0.29680  Biso   1.000  N
  H62      1.0000 0.71060  0.83520  0.28110  Biso   1.000  H
  N26      1.0000 0.78200  0.79340  0.24003  Biso   1.000  N
  N27      1.0000 0.80160  0.74040  0.30164  Biso   1.000  N
  N28      1.0000 0.87890  0.67950  0.30426  Biso   1.000  N
  H63      1.0000 0.87450  0.68450  0.32980  Biso   1.000  H
  N29      1.0000 0.85941  0.72360  0.24250  Biso   1.000  N
  N30      1.0000 0.83710  0.77130  0.18398  Biso   1.000  N
  H64      1.0000 0.86590  0.75080  0.17490  Biso   1.000  H
  O61      1.0000 0.97362  0.52240  0.38420  Biso   1.000  O
  O62      1.0000 0.96170  0.41672  0.24425  Biso   1.000  O
  O63      1.0000 0.03481  0.47558  0.34479  Biso   1.000  O
  O64      1.0000 0.00530  0.34140  0.16180  Biso   1.000  O
  H65      1.0000 0.01170  0.31460  0.17780  Biso   1.000  H
  O65      1.0000 0.00734  0.62199  0.18100  Biso   1.000  O
  O66      1.0000 0.10820  0.43392  0.24803  Biso   1.000  O
  O67      1.0000 0.04613  0.53953  0.19987  Biso   1.000  O
  O68      1.0000 0.53106  0.85395  0.41427  Biso   1.000  O
  O69      1.0000 0.54096  0.88938  0.35242  Biso   1.000  O
  O70      1.0000 0.64705  0.91121  0.10361  Biso   1.000  O
  O71      1.0000 0.64738  0.89018  0.16847  Biso   1.000  O
  O72      1.0000 0.76300  0.70860  0.43393  Biso   1.000  O
  O73      1.0000 0.69180  0.73900  0.46998  Biso   1.000  O
  O74      1.0000 0.91250  0.86140  0.05594  Biso   1.000  O
  O75      1.0000 0.83810  0.91410  0.03220  Biso   1.000  O
  Zn6      1.0000 0.92361  0.45900  0.64264  Biso   1.000  Zn
  Na11     1.0000 0.96916  0.56637  0.69284  Biso   1.000  Na
  Na12     1.0000 0.96039  0.60882  0.79280  Biso   1.000  Na
  C136     1.0000 0.30640  0.23070  0.90424  Biso   1.000  C
  C137     1.0000 0.27400  0.22800  0.86663  Biso   1.000  C
  H66      1.0000 0.23870  0.24760  0.86340  Biso   1.000  H
  C138     1.0000 0.29830  0.19450  0.83549  Biso   1.000  C
  C139     1.0000 0.35150  0.16620  0.84035  Biso   1.000  C
  H67      1.0000 0.36670  0.14380  0.81930  Biso   1.000  H
  C140     1.0000 0.38270  0.17090  0.87660  Biso   1.000  C
  C141     1.0000 0.35890  0.20130  0.90795  Biso   1.000  C
  H68      1.0000 0.37860  0.20220  0.93250  Biso   1.000  H
  C142     1.0000 0.01093  0.41145  0.74876  Biso   1.000  C
  C143     1.0000 0.05290  0.36910  0.75544  Biso   1.000  C
  H69      1.0000 0.06410  0.34420  0.73460  Biso   1.000  H
  C144     1.0000 0.07820  0.36360  0.79280  Biso   1.000  C
  C145     1.0000 0.06090  0.40350  0.82401  Biso   1.000  C
  H70      1.0000 0.07890  0.40160  0.84920  Biso   1.000  H
  C146     1.0000 0.01774  0.44467  0.81718  Biso   1.000  C
  C147     1.0000 0.99352  0.44833  0.77983  Biso   1.000  C
  H71      1.0000 0.96460  0.47610  0.77500  Biso   1.000  H
  C148     1.0000 0.00164  0.48425  0.85142  Biso   1.000  C
  C149     1.0000 0.98526  0.41490  0.70600  Biso   1.000  C
  C150     1.0000 0.43992  0.13810  0.88231  Biso   1.000  C
  C151     1.0000 0.27900  0.26350  0.93904  Biso   1.000  C
  C152     1.0000 0.22590  0.21890  0.78008  Biso   1.000  C
  C153     1.0000 0.15560  0.28670  0.78036  Biso   1.000  C
  C154     1.0000 0.17720  0.23870  0.72296  Biso   1.000  C
  C155     1.0000 0.33030  0.10950  0.63478  Biso   1.000  C
  C156     1.0000 0.26830  0.13460  0.63011  Biso   1.000  C
  C157     1.0000 0.23280  0.11750  0.59571  Biso   1.000  C
  H72      1.0000 0.24910  0.09470  0.57530  Biso   1.000  H
  C158     1.0000 0.17830  0.13390  0.59330  Biso   1.000  C
  C159     1.0000 0.24340  0.16850  0.65906  Biso   1.000  C
  H73      1.0000 0.26570  0.17720  0.68180  Biso   1.000  H
  C160     1.0000 0.15510  0.16820  0.62640  Biso   1.000  C
  H74      1.0000 0.11500  0.17510  0.62670  Biso   1.000  H
  C161     1.0000 0.18730  0.19120  0.65716  Biso   1.000  C
  C162     1.0000 0.13460  0.11550  0.56160  Biso   1.000  C
  N31      1.0000 0.27290  0.18980  0.79680  Biso   1.000  N
  H75      1.0000 0.28940  0.16480  0.78110  Biso   1.000  H
  N32      1.0000 0.21800  0.20660  0.74003  Biso   1.000  N
  N33      1.0000 0.19840  0.25960  0.80164  Biso   1.000  N
  N34      1.0000 0.12110  0.32050  0.80426  Biso   1.000  N
  H76      1.0000 0.12550  0.31550  0.82980  Biso   1.000  H
  N35      1.0000 0.14059  0.27640  0.74250  Biso   1.000  N
  N36      1.0000 0.16290  0.22870  0.68398  Biso   1.000  N
  H77      1.0000 0.13410  0.24920  0.67490  Biso   1.000  H
  O76      1.0000 0.02638  0.47760  0.88420  Biso   1.000  O
  O77      1.0000 0.03830  0.58328  0.74425  Biso   1.000  O
  O78      1.0000 0.96519  0.52442  0.84479  Biso   1.000  O
  O79      1.0000 0.99470  0.65860  0.66180  Biso   1.000  O
  H78      1.0000 0.98830  0.68540  0.67780  Biso   1.000  H
  O80      1.0000 0.99266  0.37801  0.68100  Biso   1.000  O
  O81      1.0000 0.89180  0.56608  0.74803  Biso   1.000  O
  O82      1.0000 0.95387  0.46047  0.69987  Biso   1.000  O
  O83      1.0000 0.46894  0.14605  0.91427  Biso   1.000  O
  O84      1.0000 0.45904  0.11062  0.85242  Biso   1.000  O
  O85      1.0000 0.35295  0.08879  0.60361  Biso   1.000  O
  O86      1.0000 0.35262  0.10982  0.66847  Biso   1.000  O
  O87      1.0000 0.23700  0.29140  0.93393  Biso   1.000  O
  O88      1.0000 0.30820  0.26100  0.96998  Biso   1.000  O
  O89      1.0000 0.08750  0.13860  0.55594  Biso   1.000  O
  O90      1.0000 0.16190  0.08590  0.53220  Biso   1.000  O
  Zn7      1.0000 0.04100  0.42361  0.39264  Biso   1.000  Zn
  Na13     1.0000 0.93363  0.46916  0.44284  Biso   1.000  Na
  Na14     1.0000 0.89118  0.46039  0.54280  Biso   1.000  Na
  C163     1.0000 0.26930  0.80640  0.65424  Biso   1.000  C
  C164     1.0000 0.27200  0.77400  0.61663  Biso   1.000  C
  H79      1.0000 0.25240  0.73870  0.61340  Biso   1.000  H
  C165     1.0000 0.30550  0.79830  0.58549  Biso   1.000  C
  C166     1.0000 0.33380  0.85150  0.59035  Biso   1.000  C
  H80      1.0000 0.35620  0.86670  0.56930  Biso   1.000  H
  C167     1.0000 0.32910  0.88270  0.62660  Biso   1.000  C
  C168     1.0000 0.29870  0.85890  0.65795  Biso   1.000  C
  H81      1.0000 0.29780  0.87860  0.68250  Biso   1.000  H
  C169     1.0000 0.08855  0.51093  0.49876  Biso   1.000  C
  C170     1.0000 0.13090  0.55290  0.50544  Biso   1.000  C
  H82      1.0000 0.15580  0.56410  0.48460  Biso   1.000  H
  C171     1.0000 0.13640  0.57820  0.54280  Biso   1.000  C
  C172     1.0000 0.09650  0.56090  0.57401  Biso   1.000  C
  H83      1.0000 0.09840  0.57890  0.59920  Biso   1.000  H
  C173     1.0000 0.05533  0.51774  0.56718  Biso   1.000  C
  C174     1.0000 0.05167  0.49352  0.52983  Biso   1.000  C
  H84      1.0000 0.02390  0.46460  0.52500  Biso   1.000  H
  C175     1.0000 0.01575  0.50164  0.60142  Biso   1.000  C
  C176     1.0000 0.08510  0.48526  0.45600  Biso   1.000  C
  C177     1.0000 0.36190  0.93992  0.63231  Biso   1.000  C
  C178     1.0000 0.23650  0.77900  0.68904  Biso   1.000  C
  C179     1.0000 0.28110  0.72590  0.53008  Biso   1.000  C
  C180     1.0000 0.21330  0.65560  0.53036  Biso   1.000  C
  C181     1.0000 0.26130  0.67720  0.47296  Biso   1.000  C
  C182     1.0000 0.39050  0.83030  0.38478  Biso   1.000  C
  C183     1.0000 0.36540  0.76830  0.38011  Biso   1.000  C
  C184     1.0000 0.38250  0.73280  0.34571  Biso   1.000  C
  H85      1.0000 0.40530  0.74910  0.32530  Biso   1.000  H
  C185     1.0000 0.36610  0.67830  0.34330  Biso   1.000  C
  C186     1.0000 0.33150  0.74340  0.40906  Biso   1.000  C
  H86      1.0000 0.32280  0.76570  0.43180  Biso   1.000  H
  C187     1.0000 0.33180  0.65510  0.37640  Biso   1.000  C
  H87      1.0000 0.32490  0.61500  0.37670  Biso   1.000  H
  C188     1.0000 0.30880  0.68730  0.40716  Biso   1.000  C
  C189     1.0000 0.38450  0.63460  0.31160  Biso   1.000  C
  N37      1.0000 0.31020  0.77290  0.54680  Biso   1.000  N
  H88      1.0000 0.33520  0.78940  0.53110  Biso   1.000  H
  N38      1.0000 0.29340  0.71800  0.49003  Biso   1.000  N
  N39      1.0000 0.24040  0.69840  0.55164  Biso   1.000  N
  N40      1.0000 0.17950  0.62110  0.55426  Biso   1.000  N
  H89      1.0000 0.18450  0.62550  0.57980  Biso   1.000  H
  N41      1.0000 0.22360  0.64059  0.49250  Biso   1.000  N
  N42      1.0000 0.27130  0.66290  0.43398  Biso   1.000  N
  H90      1.0000 0.25080  0.63410  0.42490  Biso   1.000  H
  O91      1.0000 0.02240  0.52638  0.63420  Biso   1.000  O
  O92      1.0000 0.91672  0.53830  0.49425  Biso   1.000  O
  O93      1.0000 0.97558  0.46519  0.59479  Biso   1.000  O
  O94      1.0000 0.84140  0.49470  0.41180  Biso   1.000  O
  H91      1.0000 0.81460  0.48830  0.42780  Biso   1.000  H
  O95      1.0000 0.12199  0.49266  0.43100  Biso   1.000  O
  O96      1.0000 0.93392  0.39180  0.49803  Biso   1.000  O
  O97      1.0000 0.03953  0.45387  0.44987  Biso   1.000  O
  O98      1.0000 0.35395  0.96894  0.66427  Biso   1.000  O
  O99      1.0000 0.38938  0.95904  0.60242  Biso   1.000  O
  O100     1.0000 0.41121  0.85295  0.35361  Biso   1.000  O
  O101     1.0000 0.39018  0.85262  0.41847  Biso   1.000  O
  O102     1.0000 0.20860  0.73700  0.68393  Biso   1.000  O
  O103     1.0000 0.23900  0.80820  0.71998  Biso   1.000  O
  O104     1.0000 0.36140  0.58750  0.30594  Biso   1.000  O
  O105     1.0000 0.41410  0.66190  0.28220  Biso   1.000  O
  Zn8      1.0000 0.95900  0.57639  0.89264  Biso   1.000  Zn
  Na15     1.0000 0.06637  0.53084  0.94284  Biso   1.000  Na
  Na16     1.0000 0.10882  0.53961  0.04280  Biso   1.000  Na
  C190     1.0000 0.73070  0.19360  0.15424  Biso   1.000  C
  C191     1.0000 0.72800  0.22600  0.11663  Biso   1.000  C
  H92      1.0000 0.74760  0.26130  0.11340  Biso   1.000  H
  C192     1.0000 0.69450  0.20170  0.08549  Biso   1.000  C
  C193     1.0000 0.66620  0.14850  0.09035  Biso   1.000  C
  H93      1.0000 0.64380  0.13330  0.06930  Biso   1.000  H
  C194     1.0000 0.67090  0.11730  0.12660  Biso   1.000  C
  C195     1.0000 0.70130  0.14110  0.15795  Biso   1.000  C
  H94      1.0000 0.70220  0.12140  0.18250  Biso   1.000  H
  C196     1.0000 0.91145  0.48907  0.99876  Biso   1.000  C
  C197     1.0000 0.86910  0.44710  0.00544  Biso   1.000  C
  H95      1.0000 0.84420  0.43590  0.98460  Biso   1.000  H
  C198     1.0000 0.86360  0.42180  0.04280  Biso   1.000  C
  C199     1.0000 0.90350  0.43910  0.07401  Biso   1.000  C
  H96      1.0000 0.90160  0.42110  0.09920  Biso   1.000  H
  C200     1.0000 0.94467  0.48226  0.06718  Biso   1.000  C
  C201     1.0000 0.94833  0.50648  0.02983  Biso   1.000  C
  H97      1.0000 0.97610  0.53540  0.02500  Biso   1.000  H
  C202     1.0000 0.98425  0.49836  0.10142  Biso   1.000  C
  C203     1.0000 0.91490  0.51474  0.95600  Biso   1.000  C
  C204     1.0000 0.63810  0.06008  0.13231  Biso   1.000  C
  C205     1.0000 0.76350  0.22100  0.18904  Biso   1.000  C
  C206     1.0000 0.71890  0.27410  0.03008  Biso   1.000  C
  C207     1.0000 0.78670  0.34440  0.03036  Biso   1.000  C
  C208     1.0000 0.73870  0.32280  0.97296  Biso   1.000  C
  C209     1.0000 0.60950  0.16970  0.88478  Biso   1.000  C
  C210     1.0000 0.63460  0.23170  0.88011  Biso   1.000  C
  C211     1.0000 0.61750  0.26720  0.84571  Biso   1.000  C
  H98      1.0000 0.59470  0.25090  0.82530  Biso   1.000  H
  C212     1.0000 0.63390  0.32170  0.84330  Biso   1.000  C
  C213     1.0000 0.66850  0.25660  0.90906  Biso   1.000  C
  H99      1.0000 0.67720  0.23430  0.93180  Biso   1.000  H
  C214     1.0000 0.66820  0.34490  0.87640  Biso   1.000  C
  H100     1.0000 0.67510  0.38500  0.87670  Biso   1.000  H
  C215     1.0000 0.69120  0.31270  0.90716  Biso   1.000  C
  C216     1.0000 0.61550  0.36540  0.81160  Biso   1.000  C
  N43      1.0000 0.68980  0.22710  0.04680  Biso   1.000  N
  H101     1.0000 0.66480  0.21060  0.03110  Biso   1.000  H
  N44      1.0000 0.70660  0.28200  0.99003  Biso   1.000  N
  N45      1.0000 0.75960  0.30160  0.05164  Biso   1.000  N
  N46      1.0000 0.82050  0.37890  0.05426  Biso   1.000  N
  H102     1.0000 0.81550  0.37450  0.07980  Biso   1.000  H
  N47      1.0000 0.77640  0.35941  0.99250  Biso   1.000  N
  N48      1.0000 0.72870  0.33710  0.93398  Biso   1.000  N
  H103     1.0000 0.74920  0.36590  0.92490  Biso   1.000  H
  O106     1.0000 0.97760  0.47362  0.13420  Biso   1.000  O
  O107     1.0000 0.08328  0.46170  0.99425  Biso   1.000  O
  O108     1.0000 0.02442  0.53481  0.09479  Biso   1.000  O
  O109     1.0000 0.15860  0.50530  0.91180  Biso   1.000  O
  H104     1.0000 0.18540  0.51170  0.92780  Biso   1.000  H
  O110     1.0000 0.87801  0.50734  0.93100  Biso   1.000  O
  O111     1.0000 0.06608  0.60820  0.99803  Biso   1.000  O
  O112     1.0000 0.96047  0.54613  0.94987  Biso   1.000  O
  O113     1.0000 0.64605  0.03106  0.16427  Biso   1.000  O
  O114     1.0000 0.61062  0.04096  0.10242  Biso   1.000  O
  O115     1.0000 0.58879  0.14705  0.85361  Biso   1.000  O
  O116     1.0000 0.60982  0.14738  0.91847  Biso   1.000  O
  O117     1.0000 0.79140  0.26300  0.18393  Biso   1.000  O
  O118     1.0000 0.76100  0.19180  0.21998  Biso   1.000  O
  O119     1.0000 0.63860  0.41250  0.80594  Biso   1.000  O
  O120     1.0000 0.58590  0.33810  0.78220  Biso   1.000  O
