data_ZEZPOL_clean
_audit_creation_date              2014-07-02
_audit_creation_method            'Materials Studio'
_symmetry_space_group_name_H-M    'P1'
_symmetry_Int_Tables_number       1
_symmetry_cell_setting            triclinic
loop_
_symmetry_equiv_pos_as_xyz
  x,y,z
_cell_length_a                    9.2236
_cell_length_b                    10.3657
_cell_length_c                    12.8839
_cell_angle_alpha                 75.5760
_cell_angle_beta                  69.4690
_cell_angle_gamma                 86.1680
loop_
_atom_site_label
_atom_site_type_symbol
_atom_site_fract_x
_atom_site_fract_y
_atom_site_fract_z
_atom_site_U_iso_or_equiv
_atom_site_adp_type
_atom_site_occupancy
Eu1    Eu    0.95574   0.75083   0.99803   0.01267  Uiso   1.00
Eu2    Eu    0.04426   0.24917   0.00197   0.01267  Uiso   1.00
H1     H     0.37730   0.43230   0.69050   0.01267  Uiso   1.00
H2     H     0.10660   0.74540   0.64230   0.01267  Uiso   1.00
H3     H     0.24970   0.78750   0.45070   0.01267  Uiso   1.00
H4     H     0.92240   0.93490   0.69120   0.01267  Uiso   1.00
H5     H     0.17760   0.24840   0.66380   0.01267  Uiso   1.00
H6     H     0.24690   0.28810   0.46930   0.01267  Uiso   1.00
H7     H     0.62270   0.56770   0.30950   0.01267  Uiso   1.00
H8     H     0.89340   0.25460   0.35770   0.01267  Uiso   1.00
H9     H     0.75030   0.21250   0.54930   0.01267  Uiso   1.00
H10    H     0.07760   0.06510   0.30880   0.01267  Uiso   1.00
H11    H     0.82240   0.75160   0.33620   0.01267  Uiso   1.00
H12    H     0.75310   0.71190   0.53070   0.01267  Uiso   1.00
C1     C     0.13690   0.55470   0.81510   0.01267  Uiso   1.00
C2     C     0.43360   0.53970   0.52530   0.01267  Uiso   1.00
C3     C     0.35070   0.50610   0.64310   0.01267  Uiso   1.00
C4     C     0.22690   0.58550   0.68820   0.01267  Uiso   1.00
C5     C     0.18890   0.69150   0.61520   0.01267  Uiso   1.00
C6     C     0.27700   0.71590   0.50000   0.01267  Uiso   1.00
C7     C     0.99010   0.05590   0.83040   0.01267  Uiso   1.00
C8     C     0.03120   0.03980   0.52960   0.01267  Uiso   1.00
C9     C     0.98690   0.00850   0.64750   0.01267  Uiso   1.00
C10    C     0.03950   0.08800   0.70020   0.01267  Uiso   1.00
C11    C     0.13870   0.19390   0.63170   0.01267  Uiso   1.00
C12    C     0.17900   0.21720   0.51470   0.01267  Uiso   1.00
C13    C     0.86310   0.44530   0.18490   0.01267  Uiso   1.00
C14    C     0.56640   0.46030   0.47470   0.01267  Uiso   1.00
C15    C     0.64930   0.49390   0.35690   0.01267  Uiso   1.00
C16    C     0.77310   0.41450   0.31180   0.01267  Uiso   1.00
C17    C     0.81110   0.30850   0.38480   0.01267  Uiso   1.00
C18    C     0.72300   0.28410   0.50000   0.01267  Uiso   1.00
C19    C     0.00990   0.94410   0.16960   0.01267  Uiso   1.00
C20    C     0.96880   0.96020   0.47040   0.01267  Uiso   1.00
C21    C     0.01310   0.99150   0.35250   0.01267  Uiso   1.00
C22    C     0.96050   0.91200   0.29980   0.01267  Uiso   1.00
C23    C     0.86130   0.80610   0.36830   0.01267  Uiso   1.00
C24    C     0.82100   0.78280   0.48530   0.01267  Uiso   1.00
N1     N     0.39730   0.64360   0.45460   0.01267  Uiso   1.00
N2     N     0.12610   0.14340   0.46250   0.01267  Uiso   1.00
N3     N     0.62360   0.76050   0.04750   0.01267  Uiso   1.00
N4     N     0.60270   0.35640   0.54540   0.01267  Uiso   1.00
N5     N     0.87390   0.85660   0.53750   0.01267  Uiso   1.00
N6     N     0.37640   0.23950   0.95250   0.01267  Uiso   1.00
O1     O     0.16770   0.45060   0.87550   0.01267  Uiso   1.00
O2     O     0.03700   0.63750   0.85100   0.01267  Uiso   1.00
O3     O     0.90640   0.95450   0.88570   0.01267  Uiso   1.00
O4     O     0.03670   0.13560   0.86980   0.01267  Uiso   1.00
O5     O     0.71290   0.72110   0.96170   0.01267  Uiso   1.00
O6     O     0.68030   0.80270   0.10690   0.01267  Uiso   1.00
O7     O     0.48200   0.75690   0.06790   0.01267  Uiso   1.00
O8     O     0.83230   0.54940   0.12450   0.01267  Uiso   1.00
O9     O     0.96300   0.36250   0.14900   0.01267  Uiso   1.00
O10    O     0.09360   0.04550   0.11430   0.01267  Uiso   1.00
O11    O     0.96330   0.86440   0.13020   0.01267  Uiso   1.00
O12    O     0.28710   0.27890   0.03830   0.01267  Uiso   1.00
O13    O     0.31970   0.19730   0.89310   0.01267  Uiso   1.00
O14    O     0.51800   0.24310   0.93210   0.01267  Uiso   1.00
