data_ZEZPUR_clean
_audit_creation_date              2014-07-02
_audit_creation_method            'Materials Studio'
_symmetry_space_group_name_H-M    'P1'
_symmetry_Int_Tables_number       1
_symmetry_cell_setting            triclinic
loop_
_symmetry_equiv_pos_as_xyz
  x,y,z
_cell_length_a                    9.8856
_cell_length_b                    11.6827
_cell_length_c                    13.4410
_cell_angle_alpha                 66.8630
_cell_angle_beta                  86.9950
_cell_angle_gamma                 76.5820
loop_
_atom_site_label
_atom_site_type_symbol
_atom_site_fract_x
_atom_site_fract_y
_atom_site_fract_z
_atom_site_U_iso_or_equiv
_atom_site_adp_type
_atom_site_occupancy
Dy1    Dy    0.76331   0.97386   0.99574   0.01267  Uiso   1.00
Dy2    Dy    0.23669   0.02614   0.00426   0.01267  Uiso   1.00
H1     H     0.98720   0.37500   0.55680   0.01267  Uiso   1.00
H2     H     0.94810   0.26310   0.73220   0.01267  Uiso   1.00
H3     H     0.56240   0.49010   0.68090   0.01267  Uiso   1.00
H4     H     0.69880   0.67470   0.34180   0.01267  Uiso   1.00
H5     H     0.31630   0.90120   0.29320   0.01267  Uiso   1.00
H6     H     0.27840   0.79600   0.47420   0.01267  Uiso   1.00
H7     H     0.68780   0.90810   0.44350   0.01267  Uiso   1.00
H8     H     0.75550   0.93470   0.27230   0.01267  Uiso   1.00
H9     H     0.09370   0.03250   0.33980   0.01267  Uiso   1.00
H10    H     0.01280   0.62500   0.44320   0.01267  Uiso   1.00
H11    H     0.05190   0.73690   0.26780   0.01267  Uiso   1.00
H12    H     0.43760   0.50990   0.31910   0.01267  Uiso   1.00
H13    H     0.30120   0.32530   0.65820   0.01267  Uiso   1.00
H14    H     0.68370   0.09880   0.70680   0.01267  Uiso   1.00
H15    H     0.72160   0.20400   0.52580   0.01267  Uiso   1.00
H16    H     0.31220   0.09190   0.55650   0.01267  Uiso   1.00
H17    H     0.24450   0.06530   0.72770   0.01267  Uiso   1.00
H18    H     0.90630   0.96750   0.66020   0.01267  Uiso   1.00
C1     C     0.71000   0.29130   0.84150   0.01267  Uiso   1.00
C2     C     0.90100   0.39900   0.58280   0.01267  Uiso   1.00
C3     C     0.87900   0.33050   0.68790   0.01267  Uiso   1.00
C4     C     0.74900   0.36500   0.72700   0.01267  Uiso   1.00
C5     C     0.65050   0.46590   0.65750   0.01267  Uiso   1.00
C6     C     0.68540   0.53010   0.55240   0.01267  Uiso   1.00
C7     C     0.58030   0.64210   0.47330   0.01267  Uiso   1.00
C8     C     0.61220   0.70070   0.36640   0.01267  Uiso   1.00
C9     C     0.51150   0.79890   0.29780   0.01267  Uiso   1.00
C10    C     0.38590   0.83520   0.33820   0.01267  Uiso   1.00
C11    C     0.36410   0.77200   0.44730   0.01267  Uiso   1.00
C12    C     0.53400   0.86740   0.18030   0.01267  Uiso   1.00
C13    C     0.98540   0.00580   0.17340   0.01267  Uiso   1.00
C14    C     0.77100   0.93300   0.42230   0.01267  Uiso   1.00
C15    C     0.80970   0.94970   0.31840   0.01267  Uiso   1.00
C16    C     0.93360   0.98940   0.28480   0.01267  Uiso   1.00
C17    C     0.01010   0.00750   0.35860   0.01267  Uiso   1.00
C18    C     0.96080   0.98800   0.46000   0.01267  Uiso   1.00
C19    C     0.29000   0.70870   0.15850   0.01267  Uiso   1.00
C20    C     0.09900   0.60100   0.41720   0.01267  Uiso   1.00
C21    C     0.12100   0.66950   0.31210   0.01267  Uiso   1.00
C22    C     0.25100   0.63500   0.27300   0.01267  Uiso   1.00
C23    C     0.34950   0.53410   0.34250   0.01267  Uiso   1.00
C24    C     0.31460   0.46990   0.44760   0.01267  Uiso   1.00
C25    C     0.41970   0.35790   0.52670   0.01267  Uiso   1.00
C26    C     0.38780   0.29930   0.63360   0.01267  Uiso   1.00
C27    C     0.48850   0.20110   0.70220   0.01267  Uiso   1.00
C28    C     0.61410   0.16480   0.66180   0.01267  Uiso   1.00
C29    C     0.63590   0.22800   0.55270   0.01267  Uiso   1.00
C30    C     0.46600   0.13260   0.81970   0.01267  Uiso   1.00
C31    C     0.01460   0.99420   0.82660   0.01267  Uiso   1.00
C32    C     0.22900   0.06700   0.57770   0.01267  Uiso   1.00
C33    C     0.19030   0.05030   0.68160   0.01267  Uiso   1.00
C34    C     0.06640   0.01060   0.71520   0.01267  Uiso   1.00
C35    C     0.98990   0.99250   0.64140   0.01267  Uiso   1.00
C36    C     0.03920   0.01200   0.54000   0.01267  Uiso   1.00
N1     N     0.80960   0.49700   0.51420   0.01267  Uiso   1.00
N2     N     0.46270   0.67720   0.51550   0.01267  Uiso   1.00
N3     N     0.84010   0.95050   0.49390   0.01267  Uiso   1.00
N4     N     0.19040   0.50300   0.48580   0.01267  Uiso   1.00
N5     N     0.53730   0.32280   0.48450   0.01267  Uiso   1.00
N6     N     0.15990   0.04950   0.50610   0.01267  Uiso   1.00
O1     O     0.60370   0.33620   0.87650   0.01267  Uiso   1.00
O2     O     0.79720   0.18420   0.89270   0.01267  Uiso   1.00
O3     O     0.43080   0.94150   0.12120   0.01267  Uiso   1.00
O4     O     0.65480   0.85410   0.14990   0.01267  Uiso   1.00
O5     O     0.10400   0.02700   0.15560   0.01267  Uiso   1.00
O6     O     0.90950   0.99630   0.10830   0.01267  Uiso   1.00
O7     O     0.39630   0.66380   0.12350   0.01267  Uiso   1.00
O8     O     0.20280   0.81580   0.10730   0.01267  Uiso   1.00
O9     O     0.56920   0.05850   0.87880   0.01267  Uiso   1.00
O10    O     0.34520   0.14590   0.85010   0.01267  Uiso   1.00
O11    O     0.89600   0.97300   0.84440   0.01267  Uiso   1.00
O12    O     0.09050   0.00370   0.89170   0.01267  Uiso   1.00
