data_image0
_cell_length_a       9.2414
_cell_length_b       10.304
_cell_length_c       12.8291
_cell_angle_alpha    76.388
_cell_angle_beta     69.431
_cell_angle_gamma    86.377

_symmetry_space_group_name_H-M    "P 1"
_symmetry_int_tables_number       1

loop_
  _symmetry_equiv_pos_as_xyz
  'x, y, z'

loop_
  _atom_site_label
  _atom_site_occupancy
  _atom_site_fract_x
  _atom_site_fract_y
  _atom_site_fract_z
  _atom_site_thermal_displace_type
  _atom_site_B_iso_or_equiv
  _atom_site_type_symbol
  Dy1      1.0000 0.45968  0.25111  0.99767  Biso   1.000  Dy
  O1       1.0000 0.46030  0.86440  0.14540  Biso   1.000  O
  O2       1.0000 0.58850  0.55120  0.11410  Biso   1.000  O
  O3       1.0000 0.33710  0.05800  0.12440  Biso   1.000  O
  N1       1.0000 0.10030  0.85400  0.54260  Biso   1.000  N
  N2       1.0000 0.37320  0.35700  0.53550  Biso   1.000  N
  C1       1.0000 0.50750  0.44760  0.16840  Biso   1.000  C
  C2       1.0000 0.06670  0.95900  0.47300  Biso   1.000  C
  C3       1.0000 0.15090  0.99530  0.35590  Biso   1.000  C
  H1       1.0000 0.12630  0.07310  0.30910  Biso   1.000  H
  C4       1.0000 0.47070  0.46060  0.46960  Biso   1.000  C
  C5       1.0000 0.21980  0.78040  0.49710  Biso   1.000  C
  H2       1.0000 0.24590  0.70610  0.54650  Biso   1.000  H
  C6       1.0000 0.51450  0.49330  0.35110  Biso   1.000  C
  H3       1.0000 0.58030  0.56860  0.30720  Biso   1.000  H
  C7       1.0000 0.46070  0.41450  0.29790  Biso   1.000  C
  C8       1.0000 0.36320  0.94810  0.18360  Biso   1.000  C
  C9       1.0000 0.27160  0.91470  0.30960  Biso   1.000  C
  C10      1.0000 0.35940  0.30860  0.36480  Biso   1.000  C
  H4       1.0000 0.31880  0.25350  0.33130  Biso   1.000  H
  C11      1.0000 0.31980  0.28630  0.48300  Biso   1.000  C
  H5       1.0000 0.24910  0.21500  0.52920  Biso   1.000  H
  C12      1.0000 0.30900  0.80700  0.38010  Biso   1.000  C
  H6       1.0000 0.39270  0.75190  0.35090  Biso   1.000  H
  O4       1.0000 0.22550  0.21800  0.95870  Biso   1.000  O
  O5       1.0000 0.18720  0.30250  0.10270  Biso   1.000  O
  N3       1.0000 0.13130  0.25810  0.04290  Biso   1.000  N
  O6       1.0000 0.98950  0.25330  0.06250  Biso   1.000  O
  O7       1.0000 0.46200  0.36680  0.12740  Biso   1.000  O
  Dy2      1.0000 0.54032  0.74889  0.00233  Biso   1.000  Dy
  O8       1.0000 0.53970  0.13560  0.85460  Biso   1.000  O
  O9       1.0000 0.41150  0.44880  0.88590  Biso   1.000  O
  O10      1.0000 0.66290  0.94200  0.87560  Biso   1.000  O
  N4       1.0000 0.89970  0.14600  0.45740  Biso   1.000  N
  N5       1.0000 0.62680  0.64300  0.46450  Biso   1.000  N
  C13      1.0000 0.49250  0.55240  0.83160  Biso   1.000  C
  C14      1.0000 0.93330  0.04100  0.52700  Biso   1.000  C
  C15      1.0000 0.84910  0.00470  0.64410  Biso   1.000  C
  H7       1.0000 0.87370  0.92690  0.69090  Biso   1.000  H
  C16      1.0000 0.52930  0.53940  0.53040  Biso   1.000  C
  C17      1.0000 0.78020  0.21960  0.50290  Biso   1.000  C
  H8       1.0000 0.75410  0.29390  0.45350  Biso   1.000  H
  C18      1.0000 0.48550  0.50670  0.64890  Biso   1.000  C
  H9       1.0000 0.41970  0.43140  0.69280  Biso   1.000  H
  C19      1.0000 0.53930  0.58550  0.70210  Biso   1.000  C
  C20      1.0000 0.63680  0.05190  0.81640  Biso   1.000  C
  C21      1.0000 0.72840  0.08530  0.69040  Biso   1.000  C
  C22      1.0000 0.64060  0.69140  0.63520  Biso   1.000  C
  H10      1.0000 0.68120  0.74650  0.66870  Biso   1.000  H
  C23      1.0000 0.68020  0.71370  0.51700  Biso   1.000  C
  H11      1.0000 0.75090  0.78500  0.47080  Biso   1.000  H
  C24      1.0000 0.69100  0.19300  0.61990  Biso   1.000  C
  H12      1.0000 0.60730  0.24810  0.64910  Biso   1.000  H
  O11      1.0000 0.77450  0.78200  0.04130  Biso   1.000  O
  O12      1.0000 0.81280  0.69750  0.89730  Biso   1.000  O
  N6       1.0000 0.86870  0.74190  0.95710  Biso   1.000  N
  O13      1.0000 0.01050  0.74670  0.93750  Biso   1.000  O
  O14      1.0000 0.53800  0.63320  0.87260  Biso   1.000  O
