data_image0
_cell_length_a       24.402
_cell_length_b       9.3439
_cell_length_c       10.3469
_cell_angle_alpha    90
_cell_angle_beta     97.371
_cell_angle_gamma    90

_symmetry_space_group_name_H-M    "P 1"
_symmetry_int_tables_number       1

loop_
  _symmetry_equiv_pos_as_xyz
  'x, y, z'

loop_
  _atom_site_label
  _atom_site_occupancy
  _atom_site_fract_x
  _atom_site_fract_y
  _atom_site_fract_z
  _atom_site_thermal_displace_type
  _atom_site_B_iso_or_equiv
  _atom_site_type_symbol
  C1       1.0000 0.17754  0.17840  0.99290  Biso   1.000  C
  H1       1.0000 0.16160  0.21670  0.91400  Biso   1.000  H
  O1       1.0000 0.06999  0.09560  0.90450  Biso   1.000  O
  C2       1.0000 0.23275  0.20420  0.03740  Biso   1.000  C
  C3       1.0000 0.14656  0.09630  0.06580  Biso   1.000  C
  C4       1.0000 0.08608  0.06980  0.02010  Biso   1.000  C
  C5       1.0000 0.17140  0.04060  0.18180  Biso   1.000  C
  H2       1.0000 0.15130  0.98640  0.23470  Biso   1.000  H
  N1       1.0000 0.25764  0.14830  0.14860  Biso   1.000  N
  C6       1.0000 0.22700  0.06740  0.21750  Biso   1.000  C
  H3       1.0000 0.24400  0.02660  0.29430  Biso   1.000  H
  O2       1.0000 0.05726  0.02310  0.10010  Biso   1.000  O
  O3       1.0000 0.03070  0.25090  0.68300  Biso   1.000  O
  O4       1.0000 0.02490  0.44700  0.75700  Biso   1.000  O
  C7       1.0000 0.67754  0.67840  0.99290  Biso   1.000  C
  H4       1.0000 0.66160  0.71670  0.91400  Biso   1.000  H
  O5       1.0000 0.56999  0.59560  0.90450  Biso   1.000  O
  C8       1.0000 0.73275  0.70420  0.03740  Biso   1.000  C
  C9       1.0000 0.64656  0.59630  0.06580  Biso   1.000  C
  C10      1.0000 0.58608  0.56980  0.02010  Biso   1.000  C
  C11      1.0000 0.67140  0.54060  0.18180  Biso   1.000  C
  H5       1.0000 0.65130  0.48640  0.23470  Biso   1.000  H
  N2       1.0000 0.75764  0.64830  0.14860  Biso   1.000  N
  C12      1.0000 0.72700  0.56740  0.21750  Biso   1.000  C
  H6       1.0000 0.74400  0.52660  0.29430  Biso   1.000  H
  O6       1.0000 0.55726  0.52310  0.10010  Biso   1.000  O
  O7       1.0000 0.53070  0.75090  0.68300  Biso   1.000  O
  O8       1.0000 0.52490  0.94700  0.75700  Biso   1.000  O
  C13      1.0000 0.82246  0.17840  0.50710  Biso   1.000  C
  H7       1.0000 0.83840  0.21670  0.58600  Biso   1.000  H
  O9       1.0000 0.93001  0.09560  0.59550  Biso   1.000  O
  C14      1.0000 0.76725  0.20420  0.46260  Biso   1.000  C
  C15      1.0000 0.85344  0.09630  0.43420  Biso   1.000  C
  C16      1.0000 0.91392  0.06980  0.47990  Biso   1.000  C
  C17      1.0000 0.82860  0.04060  0.31820  Biso   1.000  C
  H8       1.0000 0.84870  0.98640  0.26530  Biso   1.000  H
  N3       1.0000 0.74236  0.14830  0.35140  Biso   1.000  N
  C18      1.0000 0.77300  0.06740  0.28250  Biso   1.000  C
  H9       1.0000 0.75600  0.02660  0.20570  Biso   1.000  H
  O10      1.0000 0.94274  0.02310  0.39990  Biso   1.000  O
  O11      1.0000 0.96930  0.25090  0.81700  Biso   1.000  O
  O12      1.0000 0.97510  0.44700  0.74300  Biso   1.000  O
  C19      1.0000 0.32246  0.67840  0.50710  Biso   1.000  C
  H10      1.0000 0.33840  0.71670  0.58600  Biso   1.000  H
  O13      1.0000 0.43001  0.59560  0.59550  Biso   1.000  O
  C20      1.0000 0.26725  0.70420  0.46260  Biso   1.000  C
  C21      1.0000 0.35344  0.59630  0.43420  Biso   1.000  C
  C22      1.0000 0.41392  0.56980  0.47990  Biso   1.000  C
  C23      1.0000 0.32860  0.54060  0.31820  Biso   1.000  C
  H11      1.0000 0.34870  0.48640  0.26530  Biso   1.000  H
  N4       1.0000 0.24236  0.64830  0.35140  Biso   1.000  N
  C24      1.0000 0.27300  0.56740  0.28250  Biso   1.000  C
  H12      1.0000 0.25600  0.52660  0.20570  Biso   1.000  H
  O14      1.0000 0.44274  0.52310  0.39990  Biso   1.000  O
  O15      1.0000 0.46930  0.75090  0.81700  Biso   1.000  O
  O16      1.0000 0.47510  0.94700  0.74300  Biso   1.000  O
  C25      1.0000 0.82246  0.82160  0.00710  Biso   1.000  C
  H13      1.0000 0.83840  0.78330  0.08600  Biso   1.000  H
  O17      1.0000 0.93001  0.90440  0.09550  Biso   1.000  O
  C26      1.0000 0.76725  0.79580  0.96260  Biso   1.000  C
  C27      1.0000 0.85344  0.90370  0.93420  Biso   1.000  C
  C28      1.0000 0.91392  0.93020  0.97990  Biso   1.000  C
  C29      1.0000 0.82860  0.95940  0.81820  Biso   1.000  C
  H14      1.0000 0.84870  0.01360  0.76530  Biso   1.000  H
  N5       1.0000 0.74236  0.85170  0.85140  Biso   1.000  N
  C30      1.0000 0.77300  0.93260  0.78250  Biso   1.000  C
  H15      1.0000 0.75600  0.97340  0.70570  Biso   1.000  H
  O18      1.0000 0.94274  0.97690  0.89990  Biso   1.000  O
  O19      1.0000 0.96930  0.74910  0.31700  Biso   1.000  O
  O20      1.0000 0.97510  0.55300  0.24300  Biso   1.000  O
  C31      1.0000 0.32246  0.32160  0.00710  Biso   1.000  C
  H16      1.0000 0.33840  0.28330  0.08600  Biso   1.000  H
  O21      1.0000 0.43001  0.40440  0.09550  Biso   1.000  O
  C32      1.0000 0.26725  0.29580  0.96260  Biso   1.000  C
  C33      1.0000 0.35344  0.40370  0.93420  Biso   1.000  C
  C34      1.0000 0.41392  0.43020  0.97990  Biso   1.000  C
  C35      1.0000 0.32860  0.45940  0.81820  Biso   1.000  C
  H17      1.0000 0.34870  0.51360  0.76530  Biso   1.000  H
  N6       1.0000 0.24236  0.35170  0.85140  Biso   1.000  N
  C36      1.0000 0.27300  0.43260  0.78250  Biso   1.000  C
  H18      1.0000 0.25600  0.47340  0.70570  Biso   1.000  H
  O22      1.0000 0.44274  0.47690  0.89990  Biso   1.000  O
  O23      1.0000 0.46930  0.24910  0.31700  Biso   1.000  O
  O24      1.0000 0.47510  0.05300  0.24300  Biso   1.000  O
  C37      1.0000 0.17754  0.82160  0.49290  Biso   1.000  C
  H19      1.0000 0.16160  0.78330  0.41400  Biso   1.000  H
  O25      1.0000 0.06999  0.90440  0.40450  Biso   1.000  O
  C38      1.0000 0.23275  0.79580  0.53740  Biso   1.000  C
  C39      1.0000 0.14656  0.90370  0.56580  Biso   1.000  C
  C40      1.0000 0.08608  0.93020  0.52010  Biso   1.000  C
  C41      1.0000 0.17140  0.95940  0.68180  Biso   1.000  C
  H20      1.0000 0.15130  0.01360  0.73470  Biso   1.000  H
  N7       1.0000 0.25764  0.85170  0.64860  Biso   1.000  N
  C42      1.0000 0.22700  0.93260  0.71750  Biso   1.000  C
  H21      1.0000 0.24400  0.97340  0.79430  Biso   1.000  H
  O26      1.0000 0.05726  0.97690  0.60010  Biso   1.000  O
  O27      1.0000 0.03070  0.74910  0.18300  Biso   1.000  O
  O28      1.0000 0.02490  0.55300  0.25700  Biso   1.000  O
  C43      1.0000 0.67754  0.32160  0.49290  Biso   1.000  C
  H22      1.0000 0.66160  0.28330  0.41400  Biso   1.000  H
  O29      1.0000 0.56999  0.40440  0.40450  Biso   1.000  O
  C44      1.0000 0.73275  0.29580  0.53740  Biso   1.000  C
  C45      1.0000 0.64656  0.40370  0.56580  Biso   1.000  C
  C46      1.0000 0.58608  0.43020  0.52010  Biso   1.000  C
  C47      1.0000 0.67140  0.45940  0.68180  Biso   1.000  C
  H23      1.0000 0.65130  0.51360  0.73470  Biso   1.000  H
  N8       1.0000 0.75764  0.35170  0.64860  Biso   1.000  N
  C48      1.0000 0.72700  0.43260  0.71750  Biso   1.000  C
  H24      1.0000 0.74400  0.47340  0.79430  Biso   1.000  H
  O30      1.0000 0.55726  0.47690  0.60010  Biso   1.000  O
  O31      1.0000 0.53070  0.24910  0.18300  Biso   1.000  O
  O32      1.0000 0.52490  0.05300  0.25700  Biso   1.000  O
  Dy1      1.0000 0.00000  0.01310  0.75000  Biso   1.000  Dy
  N9       1.0000 0.00000  0.31430  0.75000  Biso   1.000  N
  Dy2      1.0000 0.50000  0.51310  0.75000  Biso   1.000  Dy
  N10      1.0000 0.50000  0.81430  0.75000  Biso   1.000  N
  Dy3      1.0000 0.00000  0.98690  0.25000  Biso   1.000  Dy
  N11      1.0000 0.00000  0.68570  0.25000  Biso   1.000  N
  Dy4      1.0000 0.50000  0.48690  0.25000  Biso   1.000  Dy
  N12      1.0000 0.50000  0.18570  0.25000  Biso   1.000  N
