data_ZEZQAY_clean
_audit_creation_date              2014-07-02
_audit_creation_method            'Materials Studio'
_symmetry_space_group_name_H-M    'P1'
_symmetry_Int_Tables_number       1
_symmetry_cell_setting            triclinic
loop_
_symmetry_equiv_pos_as_xyz
  x,y,z
_cell_length_a                    9.9640
_cell_length_b                    11.5700
_cell_length_c                    13.3200
_cell_angle_alpha                 67.7000
_cell_angle_beta                  87.1800
_cell_angle_gamma                 76.6800
loop_
_atom_site_label
_atom_site_type_symbol
_atom_site_fract_x
_atom_site_fract_y
_atom_site_fract_z
_atom_site_U_iso_or_equiv
_atom_site_adp_type
_atom_site_occupancy
Tb1    Tb    0.76337   0.47407   0.99498   0.01267  Uiso   1.00
Tb2    Tb    0.23663   0.52593   0.00502   0.01267  Uiso   1.00
H1     H     0.01220   0.12440   0.44320   0.01267  Uiso   1.00
H2     H     0.05610   0.23540   0.26570   0.01267  Uiso   1.00
H3     H     0.43750   0.00920   0.32030   0.01267  Uiso   1.00
H4     H     0.30470   0.82630   0.65940   0.01267  Uiso   1.00
H5     H     0.68510   0.59960   0.70560   0.01267  Uiso   1.00
H6     H     0.71560   0.69900   0.52300   0.01267  Uiso   1.00
H7     H     0.09110   0.53140   0.33930   0.01267  Uiso   1.00
H8     H     0.76210   0.42930   0.27250   0.01267  Uiso   1.00
H9     H     0.69000   0.40560   0.44480   0.01267  Uiso   1.00
H10    H     0.98780   0.87560   0.55680   0.01267  Uiso   1.00
H11    H     0.94390   0.76460   0.73430   0.01267  Uiso   1.00
H12    H     0.56250   0.99080   0.67970   0.01267  Uiso   1.00
H13    H     0.69530   0.17370   0.34060   0.01267  Uiso   1.00
H14    H     0.31490   0.40040   0.29440   0.01267  Uiso   1.00
H15    H     0.28440   0.30100   0.47700   0.01267  Uiso   1.00
H16    H     0.90890   0.46860   0.66070   0.01267  Uiso   1.00
H17    H     0.23790   0.57070   0.72750   0.01267  Uiso   1.00
H18    H     0.31000   0.59440   0.55520   0.01267  Uiso   1.00
C1     C     0.28810   0.20960   0.15890   0.01267  Uiso   1.00
C2     C     0.09820   0.10040   0.41730   0.01267  Uiso   1.00
C3     C     0.12400   0.16850   0.31090   0.01267  Uiso   1.00
C4     C     0.25230   0.13520   0.27320   0.01267  Uiso   1.00
C5     C     0.34960   0.03320   0.34340   0.01267  Uiso   1.00
C6     C     0.31430   0.96850   0.44690   0.01267  Uiso   1.00
C7     C     0.41610   0.85980   0.52420   0.01267  Uiso   1.00
C8     C     0.38950   0.79980   0.63310   0.01267  Uiso   1.00
C9     C     0.48850   0.70150   0.70150   0.01267  Uiso   1.00
C10    C     0.61490   0.66410   0.66090   0.01267  Uiso   1.00
C11    C     0.63280   0.72610   0.55170   0.01267  Uiso   1.00
C12    C     0.46570   0.63170   0.82010   0.01267  Uiso   1.00
C13    C     0.98640   0.50310   0.17580   0.01267  Uiso   1.00
C14    C     0.96080   0.48990   0.45930   0.01267  Uiso   1.00
C15    C     0.00830   0.50630   0.35870   0.01267  Uiso   1.00
C16    C     0.93450   0.48590   0.28610   0.01267  Uiso   1.00
C17    C     0.81450   0.44580   0.31920   0.01267  Uiso   1.00
C18    C     0.77270   0.43040   0.42390   0.01267  Uiso   1.00
C19    C     0.71190   0.79040   0.84110   0.01267  Uiso   1.00
C20    C     0.90180   0.89960   0.58270   0.01267  Uiso   1.00
C21    C     0.87600   0.83150   0.68910   0.01267  Uiso   1.00
C22    C     0.74770   0.86480   0.72680   0.01267  Uiso   1.00
C23    C     0.65040   0.96680   0.65660   0.01267  Uiso   1.00
C24    C     0.68570   0.03150   0.55310   0.01267  Uiso   1.00
C25    C     0.58390   0.14020   0.47580   0.01267  Uiso   1.00
C26    C     0.61050   0.20020   0.36690   0.01267  Uiso   1.00
C27    C     0.51150   0.29850   0.29850   0.01267  Uiso   1.00
C28    C     0.38510   0.33590   0.33910   0.01267  Uiso   1.00
C29    C     0.36720   0.27390   0.44830   0.01267  Uiso   1.00
C30    C     0.53430   0.36830   0.17990   0.01267  Uiso   1.00
C31    C     0.01360   0.49690   0.82420   0.01267  Uiso   1.00
C32    C     0.03920   0.51010   0.54070   0.01267  Uiso   1.00
C33    C     0.99170   0.49370   0.64130   0.01267  Uiso   1.00
C34    C     0.06550   0.51410   0.71390   0.01267  Uiso   1.00
C35    C     0.18550   0.55420   0.68080   0.01267  Uiso   1.00
C36    C     0.22730   0.56960   0.57610   0.01267  Uiso   1.00
N1     N     0.19120   0.00160   0.48500   0.01267  Uiso   1.00
N2     N     0.53690   0.82360   0.48430   0.01267  Uiso   1.00
N3     N     0.84330   0.44860   0.49450   0.01267  Uiso   1.00
N4     N     0.80880   0.99840   0.51500   0.01267  Uiso   1.00
N5     N     0.46310   0.17640   0.51570   0.01267  Uiso   1.00
N6     N     0.15670   0.55140   0.50550   0.01267  Uiso   1.00
O1     O     0.20420   0.31460   0.10660   0.01267  Uiso   1.00
O2     O     0.39650   0.16430   0.12330   0.01267  Uiso   1.00
O3     O     0.34400   0.64770   0.85050   0.01267  Uiso   1.00
O4     O     0.56930   0.55810   0.87890   0.01267  Uiso   1.00
O5     O     0.10480   0.52570   0.15700   0.01267  Uiso   1.00
O6     O     0.90990   0.49450   0.10960   0.01267  Uiso   1.00
O7     O     0.79580   0.68540   0.89340   0.01267  Uiso   1.00
O8     O     0.60350   0.83570   0.87670   0.01267  Uiso   1.00
O9     O     0.65600   0.35230   0.14950   0.01267  Uiso   1.00
O10    O     0.43070   0.44190   0.12110   0.01267  Uiso   1.00
O11    O     0.89520   0.47430   0.84300   0.01267  Uiso   1.00
O12    O     0.09010   0.50550   0.89040   0.01267  Uiso   1.00
