data_ZEZQEC_clean
_audit_creation_date              2014-07-02
_audit_creation_method            'Materials Studio'
_symmetry_space_group_name_H-M    'P1'
_symmetry_Int_Tables_number       1
_symmetry_cell_setting            triclinic
loop_
_symmetry_equiv_pos_as_xyz
  x,y,z
_cell_length_a                    9.9008
_cell_length_b                    11.6556
_cell_length_c                    13.4354
_cell_angle_alpha                 66.8320
_cell_angle_beta                  87.0190
_cell_angle_gamma                 76.3770
loop_
_atom_site_label
_atom_site_type_symbol
_atom_site_fract_x
_atom_site_fract_y
_atom_site_fract_z
_atom_site_U_iso_or_equiv
_atom_site_adp_type
_atom_site_occupancy
Gd1    Gd    0.76372   0.97369   0.99516   0.01267  Uiso   1.00
Gd2    Gd    0.23628   0.02631   0.00484   0.01267  Uiso   1.00
H1     H     0.98550   0.37260   0.55660   0.01267  Uiso   1.00
H2     H     0.94520   0.26660   0.73400   0.01267  Uiso   1.00
H3     H     0.56240   0.49340   0.68020   0.01267  Uiso   1.00
H4     H     0.69560   0.67410   0.34320   0.01267  Uiso   1.00
H5     H     0.31560   0.90050   0.29430   0.01267  Uiso   1.00
H6     H     0.28130   0.80020   0.47410   0.01267  Uiso   1.00
H7     H     0.68820   0.90640   0.44370   0.01267  Uiso   1.00
H8     H     0.76260   0.92550   0.27600   0.01267  Uiso   1.00
H9     H     0.09280   0.03010   0.33890   0.01267  Uiso   1.00
H10    H     0.01450   0.62740   0.44340   0.01267  Uiso   1.00
H11    H     0.05480   0.73340   0.26600   0.01267  Uiso   1.00
H12    H     0.43760   0.50660   0.31980   0.01267  Uiso   1.00
H13    H     0.30440   0.32590   0.65680   0.01267  Uiso   1.00
H14    H     0.68440   0.09950   0.70570   0.01267  Uiso   1.00
H15    H     0.71870   0.19980   0.52590   0.01267  Uiso   1.00
H16    H     0.31180   0.09360   0.55630   0.01267  Uiso   1.00
H17    H     0.23740   0.07450   0.72400   0.01267  Uiso   1.00
H18    H     0.90720   0.96990   0.66110   0.01267  Uiso   1.00
C1     C     0.71010   0.28960   0.84150   0.01267  Uiso   1.00
C2     C     0.90020   0.39890   0.58290   0.01267  Uiso   1.00
C3     C     0.87560   0.33270   0.68850   0.01267  Uiso   1.00
C4     C     0.74930   0.36430   0.72630   0.01267  Uiso   1.00
C5     C     0.64970   0.46750   0.65630   0.01267  Uiso   1.00
C6     C     0.68260   0.52870   0.55360   0.01267  Uiso   1.00
C7     C     0.58020   0.64070   0.47520   0.01267  Uiso   1.00
C8     C     0.60920   0.70060   0.36780   0.01267  Uiso   1.00
C9     C     0.51070   0.79860   0.29810   0.01267  Uiso   1.00
C10    C     0.38600   0.83490   0.33920   0.01267  Uiso   1.00
C11    C     0.36620   0.77360   0.44730   0.01267  Uiso   1.00
C12    C     0.53510   0.86730   0.17920   0.01267  Uiso   1.00
C13    C     0.77220   0.92970   0.42330   0.01267  Uiso   1.00
C14    C     0.81410   0.94380   0.32140   0.01267  Uiso   1.00
C15    C     0.93540   0.98610   0.28680   0.01267  Uiso   1.00
C16    C     0.00940   0.00530   0.35840   0.01267  Uiso   1.00
C17    C     0.96030   0.98780   0.46210   0.01267  Uiso   1.00
C18    C     0.98840   0.00330   0.17740   0.01267  Uiso   1.00
C19    C     0.28990   0.71040   0.15850   0.01267  Uiso   1.00
C20    C     0.09980   0.60110   0.41710   0.01267  Uiso   1.00
C21    C     0.12440   0.66730   0.31150   0.01267  Uiso   1.00
C22    C     0.25070   0.63570   0.27370   0.01267  Uiso   1.00
C23    C     0.35030   0.53250   0.34370   0.01267  Uiso   1.00
C24    C     0.31740   0.47130   0.44640   0.01267  Uiso   1.00
C25    C     0.41980   0.35930   0.52480   0.01267  Uiso   1.00
C26    C     0.39080   0.29940   0.63220   0.01267  Uiso   1.00
C27    C     0.48930   0.20140   0.70190   0.01267  Uiso   1.00
C28    C     0.61400   0.16510   0.66080   0.01267  Uiso   1.00
C29    C     0.63380   0.22640   0.55270   0.01267  Uiso   1.00
C30    C     0.46490   0.13270   0.82080   0.01267  Uiso   1.00
C31    C     0.22780   0.07030   0.57670   0.01267  Uiso   1.00
C32    C     0.18590   0.05620   0.67860   0.01267  Uiso   1.00
C33    C     0.06460   0.01390   0.71320   0.01267  Uiso   1.00
C34    C     0.99060   0.99470   0.64160   0.01267  Uiso   1.00
C35    C     0.03970   0.01220   0.53790   0.01267  Uiso   1.00
C36    C     0.01160   0.99670   0.82260   0.01267  Uiso   1.00
N1     N     0.46150   0.67840   0.51600   0.01267  Uiso   1.00
N2     N     0.80800   0.49910   0.51580   0.01267  Uiso   1.00
N3     N     0.84340   0.94700   0.49510   0.01267  Uiso   1.00
N4     N     0.53850   0.32160   0.48400   0.01267  Uiso   1.00
N5     N     0.19200   0.50090   0.48420   0.01267  Uiso   1.00
N6     N     0.15660   0.05300   0.50490   0.01267  Uiso   1.00
O1     O     0.60380   0.33500   0.87810   0.01267  Uiso   1.00
O2     O     0.79500   0.18610   0.89260   0.01267  Uiso   1.00
O3     O     0.43280   0.94100   0.12130   0.01267  Uiso   1.00
O4     O     0.65750   0.85030   0.15020   0.01267  Uiso   1.00
O5     O     0.10560   0.02770   0.15800   0.01267  Uiso   1.00
O6     O     0.91020   0.99360   0.11110   0.01267  Uiso   1.00
O7     O     0.39620   0.66500   0.12190   0.01267  Uiso   1.00
O8     O     0.20500   0.81390   0.10740   0.01267  Uiso   1.00
O9     O     0.56720   0.05900   0.87870   0.01267  Uiso   1.00
O10    O     0.34250   0.14970   0.84980   0.01267  Uiso   1.00
O11    O     0.89440   0.97230   0.84200   0.01267  Uiso   1.00
O12    O     0.08980   0.00640   0.88890   0.01267  Uiso   1.00
