data_image0
_cell_length_a       22.26
_cell_length_b       22.26
_cell_length_c       22.26
_cell_angle_alpha    90
_cell_angle_beta     90
_cell_angle_gamma    90

_symmetry_space_group_name_H-M    "P 1"
_symmetry_int_tables_number       1

loop_
  _symmetry_equiv_pos_as_xyz
  'x, y, z'

loop_
  _atom_site_label
  _atom_site_occupancy
  _atom_site_fract_x
  _atom_site_fract_y
  _atom_site_fract_z
  _atom_site_thermal_displace_type
  _atom_site_B_iso_or_equiv
  _atom_site_type_symbol
  Cd1      1.0000 0.23760  0.23760  0.76240  Biso   1.000  Cd
  Cd2      1.0000 0.20820  0.20820  0.79180  Biso   1.000  Cd
  Cd3      1.0000 0.76240  0.76240  0.76240  Biso   1.000  Cd
  Cd4      1.0000 0.79180  0.79180  0.79180  Biso   1.000  Cd
  Cd5      1.0000 0.76240  0.23760  0.23760  Biso   1.000  Cd
  Cd6      1.0000 0.79180  0.20820  0.20820  Biso   1.000  Cd
  Cd7      1.0000 0.23760  0.76240  0.23760  Biso   1.000  Cd
  Cd8      1.0000 0.20820  0.79180  0.20820  Biso   1.000  Cd
  Cd9      1.0000 0.23760  0.23760  0.23760  Biso   1.000  Cd
  Cd10     1.0000 0.20820  0.20820  0.20820  Biso   1.000  Cd
  Cd11     1.0000 0.76240  0.76240  0.23760  Biso   1.000  Cd
  Cd12     1.0000 0.79180  0.79180  0.20820  Biso   1.000  Cd
  Cd13     1.0000 0.23760  0.76240  0.76240  Biso   1.000  Cd
  Cd14     1.0000 0.20820  0.79180  0.79180  Biso   1.000  Cd
  Cd15     1.0000 0.76240  0.23760  0.76240  Biso   1.000  Cd
  Cd16     1.0000 0.79180  0.20820  0.79180  Biso   1.000  Cd
  Co1      1.0000 0.50000  0.00000  0.50000  Biso   1.000  Co
  Co2      1.0000 0.50000  0.50000  0.00000  Biso   1.000  Co
  Co3      1.0000 0.00000  0.50000  0.50000  Biso   1.000  Co
  N1       1.0000 0.40590  0.00000  0.50000  Biso   1.000  N
  N2       1.0000 0.59410  0.00000  0.50000  Biso   1.000  N
  N3       1.0000 0.50000  0.40590  0.00000  Biso   1.000  N
  N4       1.0000 0.50000  0.59410  0.00000  Biso   1.000  N
  N5       1.0000 0.00000  0.50000  0.40590  Biso   1.000  N
  N6       1.0000 0.00000  0.50000  0.59410  Biso   1.000  N
  N7       1.0000 0.00000  0.40590  0.50000  Biso   1.000  N
  N8       1.0000 0.00000  0.59410  0.50000  Biso   1.000  N
  N9       1.0000 0.40590  0.50000  0.00000  Biso   1.000  N
  N10      1.0000 0.59410  0.50000  0.00000  Biso   1.000  N
  N11      1.0000 0.50000  0.00000  0.59410  Biso   1.000  N
  N12      1.0000 0.50000  0.00000  0.40590  Biso   1.000  N
  C1       1.0000 0.30960  0.00000  0.53030  Biso   1.000  C
  H1       1.0000 0.27500  0.00000  0.55530  Biso   1.000  H
  C2       1.0000 0.37040  0.00000  0.55040  Biso   1.000  C
  C3       1.0000 0.69040  0.00000  0.53030  Biso   1.000  C
  H2       1.0000 0.72500  0.00000  0.55530  Biso   1.000  H
  C4       1.0000 0.62960  0.00000  0.55040  Biso   1.000  C
  C5       1.0000 0.69040  0.00000  0.46970  Biso   1.000  C
  H3       1.0000 0.72500  0.00000  0.44470  Biso   1.000  H
  C6       1.0000 0.62960  0.00000  0.44960  Biso   1.000  C
  C7       1.0000 0.30960  0.00000  0.46970  Biso   1.000  C
  H4       1.0000 0.27500  0.00000  0.44470  Biso   1.000  H
  C8       1.0000 0.37040  0.00000  0.44960  Biso   1.000  C
  C9       1.0000 0.53030  0.30960  0.00000  Biso   1.000  C
  H5       1.0000 0.55530  0.27500  0.00000  Biso   1.000  H
  C10      1.0000 0.55040  0.37040  0.00000  Biso   1.000  C
  C11      1.0000 0.53030  0.69040  0.00000  Biso   1.000  C
  H6       1.0000 0.55530  0.72500  0.00000  Biso   1.000  H
  C12      1.0000 0.55040  0.62960  0.00000  Biso   1.000  C
  C13      1.0000 0.46970  0.69040  0.00000  Biso   1.000  C
  H7       1.0000 0.44470  0.72500  0.00000  Biso   1.000  H
  C14      1.0000 0.44960  0.62960  0.00000  Biso   1.000  C
  C15      1.0000 0.46970  0.30960  0.00000  Biso   1.000  C
  H8       1.0000 0.44470  0.27500  0.00000  Biso   1.000  H
  C16      1.0000 0.44960  0.37040  0.00000  Biso   1.000  C
  C17      1.0000 0.00000  0.53030  0.30960  Biso   1.000  C
  H9       1.0000 0.00000  0.55530  0.27500  Biso   1.000  H
  C18      1.0000 0.00000  0.55040  0.37040  Biso   1.000  C
  C19      1.0000 0.00000  0.53030  0.69040  Biso   1.000  C
  H10      1.0000 0.00000  0.55530  0.72500  Biso   1.000  H
  C20      1.0000 0.00000  0.55040  0.62960  Biso   1.000  C
  C21      1.0000 0.00000  0.46970  0.69040  Biso   1.000  C
  H11      1.0000 0.00000  0.44470  0.72500  Biso   1.000  H
  C22      1.0000 0.00000  0.44960  0.62960  Biso   1.000  C
  C23      1.0000 0.00000  0.46970  0.30960  Biso   1.000  C
  H12      1.0000 0.00000  0.44470  0.27500  Biso   1.000  H
  C24      1.0000 0.00000  0.44960  0.37040  Biso   1.000  C
  C25      1.0000 0.00000  0.30960  0.46970  Biso   1.000  C
  H13      1.0000 0.00000  0.27500  0.44470  Biso   1.000  H
  C26      1.0000 0.00000  0.37040  0.44960  Biso   1.000  C
  C27      1.0000 0.00000  0.69040  0.46970  Biso   1.000  C
  H14      1.0000 0.00000  0.72500  0.44470  Biso   1.000  H
  C28      1.0000 0.00000  0.62960  0.44960  Biso   1.000  C
  C29      1.0000 0.00000  0.69040  0.53030  Biso   1.000  C
  H15      1.0000 0.00000  0.72500  0.55530  Biso   1.000  H
  C30      1.0000 0.00000  0.62960  0.55040  Biso   1.000  C
  C31      1.0000 0.00000  0.30960  0.53030  Biso   1.000  C
  H16      1.0000 0.00000  0.27500  0.55530  Biso   1.000  H
  C32      1.0000 0.00000  0.37040  0.55040  Biso   1.000  C
  C33      1.0000 0.30960  0.53030  0.00000  Biso   1.000  C
  H17      1.0000 0.27500  0.55530  0.00000  Biso   1.000  H
  C34      1.0000 0.37040  0.55040  0.00000  Biso   1.000  C
  C35      1.0000 0.69040  0.53030  0.00000  Biso   1.000  C
  H18      1.0000 0.72500  0.55530  0.00000  Biso   1.000  H
  C36      1.0000 0.62960  0.55040  0.00000  Biso   1.000  C
  C37      1.0000 0.69040  0.46970  0.00000  Biso   1.000  C
  H19      1.0000 0.72500  0.44470  0.00000  Biso   1.000  H
  C38      1.0000 0.62960  0.44960  0.00000  Biso   1.000  C
  C39      1.0000 0.30960  0.46970  0.00000  Biso   1.000  C
  H20      1.0000 0.27500  0.44470  0.00000  Biso   1.000  H
  C40      1.0000 0.37040  0.44960  0.00000  Biso   1.000  C
  C41      1.0000 0.53030  0.00000  0.69040  Biso   1.000  C
  H21      1.0000 0.55530  0.00000  0.72500  Biso   1.000  H
  C42      1.0000 0.55040  0.00000  0.62960  Biso   1.000  C
  C43      1.0000 0.53030  0.00000  0.30960  Biso   1.000  C
  H22      1.0000 0.55530  0.00000  0.27500  Biso   1.000  H
  C44      1.0000 0.55040  0.00000  0.37040  Biso   1.000  C
  C45      1.0000 0.46970  0.00000  0.30960  Biso   1.000  C
  H23      1.0000 0.44470  0.00000  0.27500  Biso   1.000  H
  C46      1.0000 0.44960  0.00000  0.37040  Biso   1.000  C
  C47      1.0000 0.46970  0.00000  0.69040  Biso   1.000  C
  H24      1.0000 0.44470  0.00000  0.72500  Biso   1.000  H
  C48      1.0000 0.44960  0.00000  0.62960  Biso   1.000  C
  C49      1.0000 0.25620  0.00000  0.74380  Biso   1.000  C
  H25      1.0000 0.22600  0.00000  0.77400  Biso   1.000  H
  C50      1.0000 0.39080  0.00000  0.60920  Biso   1.000  C
  C51      1.0000 0.34340  0.00000  0.65660  Biso   1.000  C
  C52      1.0000 0.74380  0.00000  0.74380  Biso   1.000  C
  H26      1.0000 0.77400  0.00000  0.77400  Biso   1.000  H
  C53      1.0000 0.60920  0.00000  0.60920  Biso   1.000  C
  C54      1.0000 0.65660  0.00000  0.65660  Biso   1.000  C
  C55      1.0000 0.74380  0.00000  0.25620  Biso   1.000  C
  H27      1.0000 0.77400  0.00000  0.22600  Biso   1.000  H
  C56      1.0000 0.60920  0.00000  0.39080  Biso   1.000  C
  C57      1.0000 0.65660  0.00000  0.34340  Biso   1.000  C
  C58      1.0000 0.25620  0.00000  0.25620  Biso   1.000  C
  H28      1.0000 0.22600  0.00000  0.22600  Biso   1.000  H
  C59      1.0000 0.39080  0.00000  0.39080  Biso   1.000  C
  C60      1.0000 0.34340  0.00000  0.34340  Biso   1.000  C
  C61      1.0000 0.74380  0.25620  0.00000  Biso   1.000  C
  H29      1.0000 0.77400  0.22600  0.00000  Biso   1.000  H
  C62      1.0000 0.60920  0.39080  0.00000  Biso   1.000  C
  C63      1.0000 0.65660  0.34340  0.00000  Biso   1.000  C
  C64      1.0000 0.74380  0.74380  0.00000  Biso   1.000  C
  H30      1.0000 0.77400  0.77400  0.00000  Biso   1.000  H
  C65      1.0000 0.60920  0.60920  0.00000  Biso   1.000  C
  C66      1.0000 0.65660  0.65660  0.00000  Biso   1.000  C
  C67      1.0000 0.25620  0.74380  0.00000  Biso   1.000  C
  H31      1.0000 0.22600  0.77400  0.00000  Biso   1.000  H
  C68      1.0000 0.39080  0.60920  0.00000  Biso   1.000  C
  C69      1.0000 0.34340  0.65660  0.00000  Biso   1.000  C
  C70      1.0000 0.25620  0.25620  0.00000  Biso   1.000  C
  H32      1.0000 0.22600  0.22600  0.00000  Biso   1.000  H
  C71      1.0000 0.39080  0.39080  0.00000  Biso   1.000  C
  C72      1.0000 0.34340  0.34340  0.00000  Biso   1.000  C
  C73      1.0000 0.00000  0.74380  0.25620  Biso   1.000  C
  H33      1.0000 0.00000  0.77400  0.22600  Biso   1.000  H
  C74      1.0000 0.00000  0.60920  0.39080  Biso   1.000  C
  C75      1.0000 0.00000  0.65660  0.34340  Biso   1.000  C
  C76      1.0000 0.00000  0.74380  0.74380  Biso   1.000  C
  H34      1.0000 0.00000  0.77400  0.77400  Biso   1.000  H
  C77      1.0000 0.00000  0.60920  0.60920  Biso   1.000  C
  C78      1.0000 0.00000  0.65660  0.65660  Biso   1.000  C
  C79      1.0000 0.00000  0.25620  0.74380  Biso   1.000  C
  H35      1.0000 0.00000  0.22600  0.77400  Biso   1.000  H
  C80      1.0000 0.00000  0.39080  0.60920  Biso   1.000  C
  C81      1.0000 0.00000  0.34340  0.65660  Biso   1.000  C
  C82      1.0000 0.00000  0.25620  0.25620  Biso   1.000  C
  H36      1.0000 0.00000  0.22600  0.22600  Biso   1.000  H
  C83      1.0000 0.00000  0.39080  0.39080  Biso   1.000  C
  C84      1.0000 0.00000  0.34340  0.34340  Biso   1.000  C
  C85      1.0000 0.25830  0.11130  0.74170  Biso   1.000  C
  C86      1.0000 0.32190  0.05380  0.67810  Biso   1.000  C
  H37      1.0000 0.33700  0.09070  0.66300  Biso   1.000  H
  O1       1.0000 0.21940  0.11170  0.78060  Biso   1.000  O
  O2       1.0000 0.27630  0.15860  0.72370  Biso   1.000  O
  C87      1.0000 0.27820  0.05330  0.72180  Biso   1.000  C
  C88      1.0000 0.74170  0.88870  0.74170  Biso   1.000  C
  C89      1.0000 0.67810  0.94620  0.67810  Biso   1.000  C
  H38      1.0000 0.66300  0.90930  0.66300  Biso   1.000  H
  O3       1.0000 0.78060  0.88830  0.78060  Biso   1.000  O
  O4       1.0000 0.72370  0.84140  0.72370  Biso   1.000  O
  C90      1.0000 0.72180  0.94670  0.72180  Biso   1.000  C
  C91      1.0000 0.74170  0.11130  0.25830  Biso   1.000  C
  C92      1.0000 0.67810  0.05380  0.32190  Biso   1.000  C
  H39      1.0000 0.66300  0.09070  0.33700  Biso   1.000  H
  O5       1.0000 0.78060  0.11170  0.21940  Biso   1.000  O
  O6       1.0000 0.72370  0.15860  0.27630  Biso   1.000  O
  C93      1.0000 0.72180  0.05330  0.27820  Biso   1.000  C
  C94      1.0000 0.25830  0.88870  0.25830  Biso   1.000  C
  C95      1.0000 0.32190  0.94620  0.32190  Biso   1.000  C
  H40      1.0000 0.33700  0.90930  0.33700  Biso   1.000  H
  O7       1.0000 0.21940  0.88830  0.21940  Biso   1.000  O
  O8       1.0000 0.27630  0.84140  0.27630  Biso   1.000  O
  C96      1.0000 0.27820  0.94670  0.27820  Biso   1.000  C
  C97      1.0000 0.74170  0.25830  0.11130  Biso   1.000  C
  C98      1.0000 0.67810  0.32190  0.05380  Biso   1.000  C
  H41      1.0000 0.66300  0.33700  0.09070  Biso   1.000  H
  O9       1.0000 0.78060  0.21940  0.11170  Biso   1.000  O
  O10      1.0000 0.72370  0.27630  0.15860  Biso   1.000  O
  C99      1.0000 0.72180  0.27820  0.05330  Biso   1.000  C
  C100     1.0000 0.74170  0.74170  0.88870  Biso   1.000  C
  C101     1.0000 0.67810  0.67810  0.94620  Biso   1.000  C
  H42      1.0000 0.66300  0.66300  0.90930  Biso   1.000  H
  O11      1.0000 0.78060  0.78060  0.88830  Biso   1.000  O
  O12      1.0000 0.72370  0.72370  0.84140  Biso   1.000  O
  C102     1.0000 0.72180  0.72180  0.94670  Biso   1.000  C
  C103     1.0000 0.25830  0.74170  0.11130  Biso   1.000  C
  C104     1.0000 0.32190  0.67810  0.05380  Biso   1.000  C
  H43      1.0000 0.33700  0.66300  0.09070  Biso   1.000  H
  O13      1.0000 0.21940  0.78060  0.11170  Biso   1.000  O
  O14      1.0000 0.27630  0.72370  0.15860  Biso   1.000  O
  C105     1.0000 0.27820  0.72180  0.05330  Biso   1.000  C
  C106     1.0000 0.25830  0.25830  0.88870  Biso   1.000  C
  C107     1.0000 0.32190  0.32190  0.94620  Biso   1.000  C
  H44      1.0000 0.33700  0.33700  0.90930  Biso   1.000  H
  O15      1.0000 0.21940  0.21940  0.88830  Biso   1.000  O
  O16      1.0000 0.27630  0.27630  0.84140  Biso   1.000  O
  C108     1.0000 0.27820  0.27820  0.94670  Biso   1.000  C
  C109     1.0000 0.11130  0.74170  0.25830  Biso   1.000  C
  C110     1.0000 0.05380  0.67810  0.32190  Biso   1.000  C
  H45      1.0000 0.09070  0.66300  0.33700  Biso   1.000  H
  O17      1.0000 0.11170  0.78060  0.21940  Biso   1.000  O
  O18      1.0000 0.15860  0.72370  0.27630  Biso   1.000  O
  C111     1.0000 0.05330  0.72180  0.27820  Biso   1.000  C
  C112     1.0000 0.88870  0.74170  0.74170  Biso   1.000  C
  C113     1.0000 0.94620  0.67810  0.67810  Biso   1.000  C
  H46      1.0000 0.90930  0.66300  0.66300  Biso   1.000  H
  O19      1.0000 0.88830  0.78060  0.78060  Biso   1.000  O
  O20      1.0000 0.84140  0.72370  0.72370  Biso   1.000  O
  C114     1.0000 0.94670  0.72180  0.72180  Biso   1.000  C
  C115     1.0000 0.11130  0.25830  0.74170  Biso   1.000  C
  C116     1.0000 0.05380  0.32190  0.67810  Biso   1.000  C
  H47      1.0000 0.09070  0.33700  0.66300  Biso   1.000  H
  O21      1.0000 0.11170  0.21940  0.78060  Biso   1.000  O
  O22      1.0000 0.15860  0.27630  0.72370  Biso   1.000  O
  C117     1.0000 0.05330  0.27820  0.72180  Biso   1.000  C
  C118     1.0000 0.88870  0.25830  0.25830  Biso   1.000  C
  C119     1.0000 0.94620  0.32190  0.32190  Biso   1.000  C
  H48      1.0000 0.90930  0.33700  0.33700  Biso   1.000  H
  O23      1.0000 0.88830  0.21940  0.21940  Biso   1.000  O
  O24      1.0000 0.84140  0.27630  0.27630  Biso   1.000  O
  C120     1.0000 0.94670  0.27820  0.27820  Biso   1.000  C
  C121     1.0000 0.11130  0.25830  0.25830  Biso   1.000  C
  C122     1.0000 0.05380  0.32190  0.32190  Biso   1.000  C
  H49      1.0000 0.09070  0.33700  0.33700  Biso   1.000  H
  O25      1.0000 0.11170  0.21940  0.21940  Biso   1.000  O
  O26      1.0000 0.15860  0.27630  0.27630  Biso   1.000  O
  C123     1.0000 0.05330  0.27820  0.27820  Biso   1.000  C
  C124     1.0000 0.88870  0.74170  0.25830  Biso   1.000  C
  C125     1.0000 0.94620  0.67810  0.32190  Biso   1.000  C
  H50      1.0000 0.90930  0.66300  0.33700  Biso   1.000  H
  O27      1.0000 0.88830  0.78060  0.21940  Biso   1.000  O
  O28      1.0000 0.84140  0.72370  0.27630  Biso   1.000  O
  C126     1.0000 0.94670  0.72180  0.27820  Biso   1.000  C
  C127     1.0000 0.11130  0.74170  0.74170  Biso   1.000  C
  C128     1.0000 0.05380  0.67810  0.67810  Biso   1.000  C
  H51      1.0000 0.09070  0.66300  0.66300  Biso   1.000  H
  O29      1.0000 0.11170  0.78060  0.78060  Biso   1.000  O
  O30      1.0000 0.15860  0.72370  0.72370  Biso   1.000  O
  C129     1.0000 0.05330  0.72180  0.72180  Biso   1.000  C
  C130     1.0000 0.88870  0.25830  0.74170  Biso   1.000  C
  C131     1.0000 0.94620  0.32190  0.67810  Biso   1.000  C
  H52      1.0000 0.90930  0.33700  0.66300  Biso   1.000  H
  O31      1.0000 0.88830  0.21940  0.78060  Biso   1.000  O
  O32      1.0000 0.84140  0.27630  0.72370  Biso   1.000  O
  C132     1.0000 0.94670  0.27820  0.72180  Biso   1.000  C
  C133     1.0000 0.25830  0.74170  0.88870  Biso   1.000  C
  C134     1.0000 0.32190  0.67810  0.94620  Biso   1.000  C
  H53      1.0000 0.33700  0.66300  0.90930  Biso   1.000  H
  O33      1.0000 0.21940  0.78060  0.88830  Biso   1.000  O
  O34      1.0000 0.27630  0.72370  0.84140  Biso   1.000  O
  C135     1.0000 0.27820  0.72180  0.94670  Biso   1.000  C
  C136     1.0000 0.74170  0.74170  0.11130  Biso   1.000  C
  C137     1.0000 0.67810  0.67810  0.05380  Biso   1.000  C
  H54      1.0000 0.66300  0.66300  0.09070  Biso   1.000  H
  O35      1.0000 0.78060  0.78060  0.11170  Biso   1.000  O
  O36      1.0000 0.72370  0.72370  0.15860  Biso   1.000  O
  C138     1.0000 0.72180  0.72180  0.05330  Biso   1.000  C
  C139     1.0000 0.74170  0.25830  0.88870  Biso   1.000  C
  C140     1.0000 0.67810  0.32190  0.94620  Biso   1.000  C
  H55      1.0000 0.66300  0.33700  0.90930  Biso   1.000  H
  O37      1.0000 0.78060  0.21940  0.88830  Biso   1.000  O
  O38      1.0000 0.72370  0.27630  0.84140  Biso   1.000  O
  C141     1.0000 0.72180  0.27820  0.94670  Biso   1.000  C
  C142     1.0000 0.25830  0.25830  0.11130  Biso   1.000  C
  C143     1.0000 0.32190  0.32190  0.05380  Biso   1.000  C
  H56      1.0000 0.33700  0.33700  0.09070  Biso   1.000  H
  O39      1.0000 0.21940  0.21940  0.11170  Biso   1.000  O
  O40      1.0000 0.27630  0.27630  0.15860  Biso   1.000  O
  C144     1.0000 0.27820  0.27820  0.05330  Biso   1.000  C
  C145     1.0000 0.74170  0.11130  0.74170  Biso   1.000  C
  C146     1.0000 0.67810  0.05380  0.67810  Biso   1.000  C
  H57      1.0000 0.66300  0.09070  0.66300  Biso   1.000  H
  O41      1.0000 0.78060  0.11170  0.78060  Biso   1.000  O
  O42      1.0000 0.72370  0.15860  0.72370  Biso   1.000  O
  C147     1.0000 0.72180  0.05330  0.72180  Biso   1.000  C
  C148     1.0000 0.74170  0.88870  0.25830  Biso   1.000  C
  C149     1.0000 0.67810  0.94620  0.32190  Biso   1.000  C
  H58      1.0000 0.66300  0.90930  0.33700  Biso   1.000  H
  O43      1.0000 0.78060  0.88830  0.21940  Biso   1.000  O
  O44      1.0000 0.72370  0.84140  0.27630  Biso   1.000  O
  C150     1.0000 0.72180  0.94670  0.27820  Biso   1.000  C
  C151     1.0000 0.25830  0.11130  0.25830  Biso   1.000  C
  C152     1.0000 0.32190  0.05380  0.32190  Biso   1.000  C
  H59      1.0000 0.33700  0.09070  0.33700  Biso   1.000  H
  O45      1.0000 0.21940  0.11170  0.21940  Biso   1.000  O
  O46      1.0000 0.27630  0.15860  0.27630  Biso   1.000  O
  C153     1.0000 0.27820  0.05330  0.27820  Biso   1.000  C
  C154     1.0000 0.25830  0.88870  0.74170  Biso   1.000  C
  C155     1.0000 0.32190  0.94620  0.67810  Biso   1.000  C
  H60      1.0000 0.33700  0.90930  0.66300  Biso   1.000  H
  O47      1.0000 0.21940  0.88830  0.78060  Biso   1.000  O
  O48      1.0000 0.27630  0.84140  0.72370  Biso   1.000  O
  C156     1.0000 0.27820  0.94670  0.72180  Biso   1.000  C
