data_image0
_cell_length_a       12.774
_cell_length_b       19.299
_cell_length_c       11.056
_cell_angle_alpha    90
_cell_angle_beta     98.752
_cell_angle_gamma    90

_symmetry_space_group_name_H-M    "P 1"
_symmetry_int_tables_number       1

loop_
  _symmetry_equiv_pos_as_xyz
  'x, y, z'

loop_
  _atom_site_label
  _atom_site_occupancy
  _atom_site_fract_x
  _atom_site_fract_y
  _atom_site_fract_z
  _atom_site_thermal_displace_type
  _atom_site_B_iso_or_equiv
  _atom_site_type_symbol
  C1       1.0000 0.00000  0.36300  0.25200  Biso   1.000  C
  H1       1.0000 0.92950  0.37680  0.23510  Biso   1.000  H
  C2       1.0000 0.14660  0.32120  0.22900  Biso   1.000  C
  H2       1.0000 0.20250  0.30070  0.19740  Biso   1.000  H
  C3       1.0000 0.24070  0.34570  0.44420  Biso   1.000  C
  H3       1.0000 0.23850  0.38820  0.49060  Biso   1.000  H
  H4       1.0000 0.30660  0.34500  0.41070  Biso   1.000  H
  C4       1.0000 0.23630  0.28340  0.52860  Biso   1.000  C
  H5       1.0000 0.28510  0.29080  0.60360  Biso   1.000  H
  H6       1.0000 0.16550  0.27970  0.54980  Biso   1.000  H
  N1       1.0000 0.05100  0.33240  0.16760  Biso   1.000  N
  N2       1.0000 0.05690  0.37150  0.35790  Biso   1.000  N
  N3       1.0000 0.15040  0.34390  0.34350  Biso   1.000  N
  C5       1.0000 0.50000  0.86300  0.25200  Biso   1.000  C
  H7       1.0000 0.42950  0.87680  0.23510  Biso   1.000  H
  C6       1.0000 0.64660  0.82120  0.22900  Biso   1.000  C
  H8       1.0000 0.70250  0.80070  0.19740  Biso   1.000  H
  C7       1.0000 0.74070  0.84570  0.44420  Biso   1.000  C
  H9       1.0000 0.73850  0.88820  0.49060  Biso   1.000  H
  H10      1.0000 0.80660  0.84500  0.41070  Biso   1.000  H
  C8       1.0000 0.73630  0.78340  0.52860  Biso   1.000  C
  H11      1.0000 0.78510  0.79080  0.60360  Biso   1.000  H
  H12      1.0000 0.66550  0.77970  0.54980  Biso   1.000  H
  N4       1.0000 0.55100  0.83240  0.16760  Biso   1.000  N
  N5       1.0000 0.55690  0.87150  0.35790  Biso   1.000  N
  N6       1.0000 0.65040  0.84390  0.34350  Biso   1.000  N
  C9       1.0000 0.00000  0.36300  0.74800  Biso   1.000  C
  H13      1.0000 0.07050  0.37680  0.76490  Biso   1.000  H
  C10      1.0000 0.85340  0.32120  0.77100  Biso   1.000  C
  H14      1.0000 0.79750  0.30070  0.80260  Biso   1.000  H
  C11      1.0000 0.75930  0.34570  0.55580  Biso   1.000  C
  H15      1.0000 0.76150  0.38820  0.50940  Biso   1.000  H
  H16      1.0000 0.69340  0.34500  0.58930  Biso   1.000  H
  C12      1.0000 0.76370  0.28340  0.47140  Biso   1.000  C
  H17      1.0000 0.71490  0.29080  0.39640  Biso   1.000  H
  H18      1.0000 0.83450  0.27970  0.45020  Biso   1.000  H
  N7       1.0000 0.94900  0.33240  0.83240  Biso   1.000  N
  N8       1.0000 0.94310  0.37150  0.64210  Biso   1.000  N
  N9       1.0000 0.84960  0.34390  0.65650  Biso   1.000  N
  C13      1.0000 0.50000  0.86300  0.74800  Biso   1.000  C
  H19      1.0000 0.57050  0.87680  0.76490  Biso   1.000  H
  C14      1.0000 0.35340  0.82120  0.77100  Biso   1.000  C
  H20      1.0000 0.29750  0.80070  0.80260  Biso   1.000  H
  C15      1.0000 0.25930  0.84570  0.55580  Biso   1.000  C
  H21      1.0000 0.26150  0.88820  0.50940  Biso   1.000  H
  H22      1.0000 0.19340  0.84500  0.58930  Biso   1.000  H
  C16      1.0000 0.26370  0.78340  0.47140  Biso   1.000  C
  H23      1.0000 0.21490  0.79080  0.39640  Biso   1.000  H
  H24      1.0000 0.33450  0.77970  0.45020  Biso   1.000  H
  N10      1.0000 0.44900  0.83240  0.83240  Biso   1.000  N
  N11      1.0000 0.44310  0.87150  0.64210  Biso   1.000  N
  N12      1.0000 0.34960  0.84390  0.65650  Biso   1.000  N
  C17      1.0000 0.00000  0.63700  0.74800  Biso   1.000  C
  H25      1.0000 0.07050  0.62320  0.76490  Biso   1.000  H
  C18      1.0000 0.85340  0.67880  0.77100  Biso   1.000  C
  H26      1.0000 0.79750  0.69930  0.80260  Biso   1.000  H
  C19      1.0000 0.75930  0.65430  0.55580  Biso   1.000  C
  H27      1.0000 0.76150  0.61180  0.50940  Biso   1.000  H
  H28      1.0000 0.69340  0.65500  0.58930  Biso   1.000  H
  C20      1.0000 0.76370  0.71660  0.47140  Biso   1.000  C
  H29      1.0000 0.71490  0.70920  0.39640  Biso   1.000  H
  H30      1.0000 0.83450  0.72030  0.45020  Biso   1.000  H
  N13      1.0000 0.94900  0.66760  0.83240  Biso   1.000  N
  N14      1.0000 0.94310  0.62850  0.64210  Biso   1.000  N
  N15      1.0000 0.84960  0.65610  0.65650  Biso   1.000  N
  C21      1.0000 0.50000  0.13700  0.74800  Biso   1.000  C
  H31      1.0000 0.57050  0.12320  0.76490  Biso   1.000  H
  C22      1.0000 0.35340  0.17880  0.77100  Biso   1.000  C
  H32      1.0000 0.29750  0.19930  0.80260  Biso   1.000  H
  C23      1.0000 0.25930  0.15430  0.55580  Biso   1.000  C
  H33      1.0000 0.26150  0.11180  0.50940  Biso   1.000  H
  H34      1.0000 0.19340  0.15500  0.58930  Biso   1.000  H
  C24      1.0000 0.26370  0.21660  0.47140  Biso   1.000  C
  H35      1.0000 0.21490  0.20920  0.39640  Biso   1.000  H
  H36      1.0000 0.33450  0.22030  0.45020  Biso   1.000  H
  N16      1.0000 0.44900  0.16760  0.83240  Biso   1.000  N
  N17      1.0000 0.44310  0.12850  0.64210  Biso   1.000  N
  N18      1.0000 0.34960  0.15610  0.65650  Biso   1.000  N
  C25      1.0000 0.00000  0.63700  0.25200  Biso   1.000  C
  H37      1.0000 0.92950  0.62320  0.23510  Biso   1.000  H
  C26      1.0000 0.14660  0.67880  0.22900  Biso   1.000  C
  H38      1.0000 0.20250  0.69930  0.19740  Biso   1.000  H
  C27      1.0000 0.24070  0.65430  0.44420  Biso   1.000  C
  H39      1.0000 0.23850  0.61180  0.49060  Biso   1.000  H
  H40      1.0000 0.30660  0.65500  0.41070  Biso   1.000  H
  C28      1.0000 0.23630  0.71660  0.52860  Biso   1.000  C
  H41      1.0000 0.28510  0.70920  0.60360  Biso   1.000  H
  H42      1.0000 0.16550  0.72030  0.54980  Biso   1.000  H
  N19      1.0000 0.05100  0.66760  0.16760  Biso   1.000  N
  N20      1.0000 0.05690  0.62850  0.35790  Biso   1.000  N
  N21      1.0000 0.15040  0.65610  0.34350  Biso   1.000  N
  C29      1.0000 0.50000  0.13700  0.25200  Biso   1.000  C
  H43      1.0000 0.42950  0.12320  0.23510  Biso   1.000  H
  C30      1.0000 0.64660  0.17880  0.22900  Biso   1.000  C
  H44      1.0000 0.70250  0.19930  0.19740  Biso   1.000  H
  C31      1.0000 0.74070  0.15430  0.44420  Biso   1.000  C
  H45      1.0000 0.73850  0.11180  0.49060  Biso   1.000  H
  H46      1.0000 0.80660  0.15500  0.41070  Biso   1.000  H
  C32      1.0000 0.73630  0.21660  0.52860  Biso   1.000  C
  H47      1.0000 0.78510  0.20920  0.60360  Biso   1.000  H
  H48      1.0000 0.66550  0.22030  0.54980  Biso   1.000  H
  N22      1.0000 0.55100  0.16760  0.16760  Biso   1.000  N
  N23      1.0000 0.55690  0.12850  0.35790  Biso   1.000  N
  N24      1.0000 0.65040  0.15610  0.34350  Biso   1.000  N
  Cu1      1.0000 0.00000  0.32289  0.00000  Biso   1.000  Cu
  Cu2      1.0000 0.50000  0.82289  0.00000  Biso   1.000  Cu
  Cu3      1.0000 0.00000  0.67711  0.00000  Biso   1.000  Cu
  Cu4      1.0000 0.50000  0.17711  0.00000  Biso   1.000  Cu
  Cu5      1.0000 0.00000  0.41010  0.50000  Biso   1.000  Cu
  Cu6      1.0000 0.50000  0.91010  0.50000  Biso   1.000  Cu
  Cu7      1.0000 0.00000  0.58990  0.50000  Biso   1.000  Cu
  Cu8      1.0000 0.50000  0.08990  0.50000  Biso   1.000  Cu
  O1       1.0000 0.00000  0.50000  0.50000  Biso   1.000  O
  O2       1.0000 0.50000  0.00000  0.50000  Biso   1.000  O
