data_ZIDVAL_clean
_audit_creation_date              2014-07-02
_audit_creation_method            'Materials Studio'
_symmetry_space_group_name_H-M    'P1'
_symmetry_Int_Tables_number       1
_symmetry_cell_setting            triclinic
loop_
_symmetry_equiv_pos_as_xyz
  x,y,z
_cell_length_a                    12.7810
_cell_length_b                    14.1690
_cell_length_c                    21.5860
_cell_angle_alpha                 90.0000
_cell_angle_beta                  90.0000
_cell_angle_gamma                 114.1730
loop_
_atom_site_label
_atom_site_type_symbol
_atom_site_fract_x
_atom_site_fract_y
_atom_site_fract_z
_atom_site_U_iso_or_equiv
_atom_site_adp_type
_atom_site_occupancy
Mn1    Mn    0.69482   0.79978   0.51313   0.01267  Uiso   1.00
Mn2    Mn    0.80518   0.20022   0.01313   0.01267  Uiso   1.00
Mn3    Mn    0.30518   0.20022   0.48687   0.01267  Uiso   1.00
Mn4    Mn    0.19482   0.79978   0.98687   0.01267  Uiso   1.00
Mn5    Mn    0.00000   0.00000   0.50000   0.01267  Uiso   1.00
Mn6    Mn    0.50000   0.00000   0.00000   0.01267  Uiso   1.00
H1     H     0.51800   0.88590   0.43730   0.01267  Uiso   1.00
H2     H     0.43400   0.65790   0.31620   0.01267  Uiso   1.00
H3     H     0.56650   0.64040   0.39220   0.01267  Uiso   1.00
H4     H     0.35440   0.90330   0.40840   0.01267  Uiso   1.00
H5     H     0.26120   0.98880   0.35710   0.01267  Uiso   1.00
H6     H     0.28240   0.85040   0.19880   0.01267  Uiso   1.00
H7     H     0.38670   0.77320   0.24860   0.01267  Uiso   1.00
H8     H     0.11720   0.00460   0.31640   0.01267  Uiso   1.00
H9     H     0.02630   0.09630   0.27000   0.01267  Uiso   1.00
H10    H     0.16910   0.07900   0.10720   0.01267  Uiso   1.00
H11    H     0.25830   0.98530   0.15400   0.01267  Uiso   1.00
H12    H     0.01970   0.25040   0.22380   0.01267  Uiso   1.00
H13    H     0.90250   0.29540   0.15030   0.01267  Uiso   1.00
H14    H     0.99440   0.09560   0.06840   0.01267  Uiso   1.00
H15    H     0.75520   0.60700   0.37840   0.01267  Uiso   1.00
H16    H     0.79460   0.49540   0.31320   0.01267  Uiso   1.00
H17    H     0.12830   0.68770   0.31540   0.01267  Uiso   1.00
H18    H     0.08680   0.79970   0.37960   0.01267  Uiso   1.00
H19    H     0.85530   0.31100   0.31570   0.01267  Uiso   1.00
H20    H     0.89360   0.19050   0.37360   0.01267  Uiso   1.00
H21    H     0.23060   0.36050   0.35590   0.01267  Uiso   1.00
H22    H     0.19330   0.48360   0.30020   0.01267  Uiso   1.00
H23    H     0.98200   0.11410   0.93730   0.01267  Uiso   1.00
H24    H     0.06600   0.34210   0.81620   0.01267  Uiso   1.00
H25    H     0.93350   0.35960   0.89220   0.01267  Uiso   1.00
H26    H     0.14560   0.09670   0.90840   0.01267  Uiso   1.00
H27    H     0.23880   0.01120   0.85710   0.01267  Uiso   1.00
H28    H     0.21760   0.14960   0.69880   0.01267  Uiso   1.00
H29    H     0.11330   0.22680   0.74860   0.01267  Uiso   1.00
H30    H     0.38280   0.99540   0.81640   0.01267  Uiso   1.00
H31    H     0.47370   0.90370   0.77000   0.01267  Uiso   1.00
H32    H     0.33090   0.92100   0.60720   0.01267  Uiso   1.00
H33    H     0.24170   0.01470   0.65400   0.01267  Uiso   1.00
H34    H     0.48030   0.74960   0.72380   0.01267  Uiso   1.00
H35    H     0.59750   0.70460   0.65030   0.01267  Uiso   1.00
H36    H     0.50560   0.90440   0.56840   0.01267  Uiso   1.00
H37    H     0.74480   0.39300   0.87840   0.01267  Uiso   1.00
H38    H     0.70540   0.50460   0.81320   0.01267  Uiso   1.00
H39    H     0.37170   0.31230   0.81540   0.01267  Uiso   1.00
H40    H     0.41320   0.20030   0.87960   0.01267  Uiso   1.00
H41    H     0.64470   0.68900   0.81570   0.01267  Uiso   1.00
H42    H     0.60640   0.80950   0.87360   0.01267  Uiso   1.00
H43    H     0.26940   0.63950   0.85590   0.01267  Uiso   1.00
H44    H     0.30670   0.51640   0.80020   0.01267  Uiso   1.00
H45    H     0.48200   0.11410   0.56270   0.01267  Uiso   1.00
H46    H     0.56600   0.34210   0.68380   0.01267  Uiso   1.00
H47    H     0.43350   0.35960   0.60780   0.01267  Uiso   1.00
H48    H     0.64560   0.09670   0.59160   0.01267  Uiso   1.00
H49    H     0.73880   0.01120   0.64290   0.01267  Uiso   1.00
H50    H     0.71760   0.14960   0.80120   0.01267  Uiso   1.00
H51    H     0.61330   0.22680   0.75140   0.01267  Uiso   1.00
H52    H     0.88280   0.99540   0.68360   0.01267  Uiso   1.00
H53    H     0.97370   0.90370   0.73000   0.01267  Uiso   1.00
H54    H     0.83090   0.92100   0.89280   0.01267  Uiso   1.00
H55    H     0.74170   0.01470   0.84600   0.01267  Uiso   1.00
H56    H     0.98030   0.74960   0.77620   0.01267  Uiso   1.00
H57    H     0.09750   0.70460   0.84970   0.01267  Uiso   1.00
H58    H     0.00560   0.90440   0.93160   0.01267  Uiso   1.00
H59    H     0.24480   0.39300   0.62160   0.01267  Uiso   1.00
H60    H     0.20540   0.50460   0.68680   0.01267  Uiso   1.00
H61    H     0.87170   0.31230   0.68460   0.01267  Uiso   1.00
H62    H     0.91320   0.20030   0.62040   0.01267  Uiso   1.00
H63    H     0.14470   0.68900   0.68430   0.01267  Uiso   1.00
H64    H     0.10640   0.80950   0.62640   0.01267  Uiso   1.00
H65    H     0.76940   0.63950   0.64410   0.01267  Uiso   1.00
H66    H     0.80670   0.51640   0.69980   0.01267  Uiso   1.00
H67    H     0.01800   0.88590   0.06270   0.01267  Uiso   1.00
H68    H     0.93400   0.65790   0.18380   0.01267  Uiso   1.00
H69    H     0.06650   0.64040   0.10780   0.01267  Uiso   1.00
H70    H     0.85440   0.90330   0.09160   0.01267  Uiso   1.00
H71    H     0.76120   0.98880   0.14290   0.01267  Uiso   1.00
H72    H     0.78240   0.85040   0.30120   0.01267  Uiso   1.00
H73    H     0.88670   0.77320   0.25140   0.01267  Uiso   1.00
H74    H     0.61720   0.00460   0.18360   0.01267  Uiso   1.00
H75    H     0.52630   0.09630   0.23000   0.01267  Uiso   1.00
H76    H     0.66910   0.07900   0.39280   0.01267  Uiso   1.00
H77    H     0.75830   0.98530   0.34600   0.01267  Uiso   1.00
H78    H     0.51970   0.25040   0.27620   0.01267  Uiso   1.00
H79    H     0.40250   0.29540   0.34970   0.01267  Uiso   1.00
H80    H     0.49440   0.09560   0.43160   0.01267  Uiso   1.00
H81    H     0.25520   0.60700   0.12160   0.01267  Uiso   1.00
H82    H     0.29460   0.49540   0.18680   0.01267  Uiso   1.00
H83    H     0.62830   0.68770   0.18460   0.01267  Uiso   1.00
H84    H     0.58680   0.79970   0.12040   0.01267  Uiso   1.00
H85    H     0.35530   0.31100   0.18430   0.01267  Uiso   1.00
H86    H     0.39360   0.19050   0.12640   0.01267  Uiso   1.00
H87    H     0.73060   0.36050   0.14410   0.01267  Uiso   1.00
H88    H     0.69330   0.48360   0.19980   0.01267  Uiso   1.00
C1     C     0.51400   0.82680   0.41680   0.01267  Uiso   1.00
C2     C     0.46670   0.70170   0.34955   0.01267  Uiso   1.00
C3     C     0.53990   0.69240   0.39183   0.01267  Uiso   1.00
C4     C     0.38360   0.83280   0.33315   0.01267  Uiso   1.00
C5     C     0.34290   0.89510   0.36581   0.01267  Uiso   1.00
C6     C     0.28510   0.94480   0.33510   0.01267  Uiso   1.00
C7     C     0.26190   0.93060   0.27196   0.01267  Uiso   1.00
C8     C     0.29930   0.86340   0.24063   0.01267  Uiso   1.00
C9     C     0.36090   0.81600   0.27048   0.01267  Uiso   1.00
C10    C     0.19990   0.98620   0.24074   0.01267  Uiso   1.00
C11    C     0.12840   0.01980   0.27432   0.01267  Uiso   1.00
C12    C     0.07400   0.07490   0.24676   0.01267  Uiso   1.00
C13    C     0.09060   0.09850   0.18393   0.01267  Uiso   1.00
C14    C     0.15900   0.06440   0.14937   0.01267  Uiso   1.00
C15    C     0.21270   0.00850   0.17765   0.01267  Uiso   1.00
C16    C     0.00060   0.22460   0.18377   0.01267  Uiso   1.00
C17    C     0.93610   0.24930   0.14292   0.01267  Uiso   1.00
C18    C     0.98590   0.14000   0.09782   0.01267  Uiso   1.00
C19    C     0.89180   0.78780   0.42731   0.01267  Uiso   1.00
C20    C     0.91770   0.71487   0.38528   0.01267  Uiso   1.00
C21    C     0.83010   0.62350   0.36549   0.01267  Uiso   1.00
C22    C     0.85340   0.55640   0.32666   0.01267  Uiso   1.00
C23    C     0.96510   0.58170   0.30839   0.01267  Uiso   1.00
C24    C     0.05330   0.67180   0.32782   0.01267  Uiso   1.00
C25    C     0.02800   0.73840   0.36644   0.01267  Uiso   1.00
C26    C     0.02140   0.40880   0.30315   0.01267  Uiso   1.00
C27    C     0.93060   0.32130   0.32427   0.01267  Uiso   1.00
C28    C     0.95390   0.24900   0.35851   0.01267  Uiso   1.00
C29    C     0.06570   0.26310   0.37036   0.01267  Uiso   1.00
C30    C     0.15520   0.35070   0.34826   0.01267  Uiso   1.00
C31    C     0.13310   0.42440   0.31471   0.01267  Uiso   1.00
C32    C     0.09130   0.18360   0.40664   0.01267  Uiso   1.00
C33    C     0.98600   0.17320   0.91680   0.01267  Uiso   1.00
C34    C     0.03330   0.29830   0.84955   0.01267  Uiso   1.00
C35    C     0.96010   0.30760   0.89183   0.01267  Uiso   1.00
C36    C     0.11640   0.16720   0.83315   0.01267  Uiso   1.00
C37    C     0.15710   0.10490   0.86581   0.01267  Uiso   1.00
C38    C     0.21490   0.05520   0.83510   0.01267  Uiso   1.00
C39    C     0.23810   0.06940   0.77196   0.01267  Uiso   1.00
C40    C     0.20070   0.13660   0.74063   0.01267  Uiso   1.00
C41    C     0.13910   0.18400   0.77048   0.01267  Uiso   1.00
C42    C     0.30010   0.01380   0.74074   0.01267  Uiso   1.00
C43    C     0.37160   0.98020   0.77432   0.01267  Uiso   1.00
C44    C     0.42600   0.92510   0.74676   0.01267  Uiso   1.00
C45    C     0.40940   0.90150   0.68393   0.01267  Uiso   1.00
C46    C     0.34100   0.93560   0.64937   0.01267  Uiso   1.00
C47    C     0.28730   0.99150   0.67765   0.01267  Uiso   1.00
C48    C     0.49940   0.77540   0.68377   0.01267  Uiso   1.00
C49    C     0.56390   0.75070   0.64292   0.01267  Uiso   1.00
C50    C     0.51410   0.86000   0.59782   0.01267  Uiso   1.00
C51    C     0.60820   0.21220   0.92731   0.01267  Uiso   1.00
C52    C     0.58230   0.28513   0.88528   0.01267  Uiso   1.00
C53    C     0.66990   0.37650   0.86549   0.01267  Uiso   1.00
C54    C     0.64660   0.44360   0.82666   0.01267  Uiso   1.00
C55    C     0.53490   0.41830   0.80839   0.01267  Uiso   1.00
C56    C     0.44670   0.32820   0.82782   0.01267  Uiso   1.00
C57    C     0.47200   0.26160   0.86644   0.01267  Uiso   1.00
C58    C     0.47860   0.59120   0.80315   0.01267  Uiso   1.00
C59    C     0.56940   0.67870   0.82427   0.01267  Uiso   1.00
C60    C     0.54610   0.75100   0.85851   0.01267  Uiso   1.00
C61    C     0.43430   0.73690   0.87036   0.01267  Uiso   1.00
C62    C     0.34480   0.64930   0.84826   0.01267  Uiso   1.00
C63    C     0.36690   0.57560   0.81471   0.01267  Uiso   1.00
C64    C     0.40870   0.81640   0.90664   0.01267  Uiso   1.00
C65    C     0.48600   0.17320   0.58320   0.01267  Uiso   1.00
C66    C     0.53330   0.29830   0.65045   0.01267  Uiso   1.00
C67    C     0.46010   0.30760   0.60817   0.01267  Uiso   1.00
C68    C     0.61640   0.16720   0.66685   0.01267  Uiso   1.00
C69    C     0.65710   0.10490   0.63419   0.01267  Uiso   1.00
C70    C     0.71490   0.05520   0.66490   0.01267  Uiso   1.00
C71    C     0.73810   0.06940   0.72804   0.01267  Uiso   1.00
C72    C     0.70070   0.13660   0.75937   0.01267  Uiso   1.00
C73    C     0.63910   0.18400   0.72952   0.01267  Uiso   1.00
C74    C     0.80010   0.01380   0.75926   0.01267  Uiso   1.00
C75    C     0.87160   0.98020   0.72568   0.01267  Uiso   1.00
C76    C     0.92600   0.92510   0.75324   0.01267  Uiso   1.00
C77    C     0.90940   0.90150   0.81607   0.01267  Uiso   1.00
C78    C     0.84100   0.93560   0.85063   0.01267  Uiso   1.00
C79    C     0.78730   0.99150   0.82235   0.01267  Uiso   1.00
C80    C     0.99940   0.77540   0.81623   0.01267  Uiso   1.00
C81    C     0.06390   0.75070   0.85708   0.01267  Uiso   1.00
C82    C     0.01410   0.86000   0.90218   0.01267  Uiso   1.00
C83    C     0.10820   0.21220   0.57269   0.01267  Uiso   1.00
C84    C     0.08230   0.28513   0.61472   0.01267  Uiso   1.00
C85    C     0.16990   0.37650   0.63451   0.01267  Uiso   1.00
C86    C     0.14660   0.44360   0.67334   0.01267  Uiso   1.00
C87    C     0.03490   0.41830   0.69161   0.01267  Uiso   1.00
C88    C     0.94670   0.32820   0.67218   0.01267  Uiso   1.00
C89    C     0.97200   0.26160   0.63356   0.01267  Uiso   1.00
C90    C     0.97860   0.59120   0.69685   0.01267  Uiso   1.00
C91    C     0.06940   0.67870   0.67573   0.01267  Uiso   1.00
C92    C     0.04610   0.75100   0.64149   0.01267  Uiso   1.00
C93    C     0.93430   0.73690   0.62964   0.01267  Uiso   1.00
C94    C     0.84480   0.64930   0.65174   0.01267  Uiso   1.00
C95    C     0.86690   0.57560   0.68529   0.01267  Uiso   1.00
C96    C     0.90870   0.81640   0.59336   0.01267  Uiso   1.00
C97    C     0.01400   0.82680   0.08320   0.01267  Uiso   1.00
C98    C     0.96670   0.70170   0.15045   0.01267  Uiso   1.00
C99    C     0.03990   0.69240   0.10817   0.01267  Uiso   1.00
C100   C     0.88360   0.83280   0.16685   0.01267  Uiso   1.00
C101   C     0.84290   0.89510   0.13419   0.01267  Uiso   1.00
C102   C     0.78510   0.94480   0.16490   0.01267  Uiso   1.00
C103   C     0.76190   0.93060   0.22804   0.01267  Uiso   1.00
C104   C     0.79930   0.86340   0.25937   0.01267  Uiso   1.00
C105   C     0.86090   0.81600   0.22952   0.01267  Uiso   1.00
C106   C     0.69990   0.98620   0.25926   0.01267  Uiso   1.00
C107   C     0.62840   0.01980   0.22568   0.01267  Uiso   1.00
C108   C     0.57400   0.07490   0.25324   0.01267  Uiso   1.00
C109   C     0.59060   0.09850   0.31607   0.01267  Uiso   1.00
C110   C     0.65900   0.06440   0.35063   0.01267  Uiso   1.00
C111   C     0.71270   0.00850   0.32235   0.01267  Uiso   1.00
C112   C     0.50060   0.22460   0.31623   0.01267  Uiso   1.00
C113   C     0.43610   0.24930   0.35708   0.01267  Uiso   1.00
C114   C     0.48590   0.14000   0.40218   0.01267  Uiso   1.00
C115   C     0.39180   0.78780   0.07269   0.01267  Uiso   1.00
C116   C     0.41770   0.71487   0.11472   0.01267  Uiso   1.00
C117   C     0.33010   0.62350   0.13451   0.01267  Uiso   1.00
C118   C     0.35340   0.55640   0.17334   0.01267  Uiso   1.00
C119   C     0.46510   0.58170   0.19161   0.01267  Uiso   1.00
C120   C     0.55330   0.67180   0.17218   0.01267  Uiso   1.00
C121   C     0.52800   0.73840   0.13356   0.01267  Uiso   1.00
C122   C     0.52140   0.40880   0.19685   0.01267  Uiso   1.00
C123   C     0.43060   0.32130   0.17573   0.01267  Uiso   1.00
C124   C     0.45390   0.24900   0.14149   0.01267  Uiso   1.00
C125   C     0.56570   0.26310   0.12964   0.01267  Uiso   1.00
C126   C     0.65520   0.35070   0.15174   0.01267  Uiso   1.00
C127   C     0.63310   0.42440   0.18529   0.01267  Uiso   1.00
C128   C     0.59130   0.18360   0.09336   0.01267  Uiso   1.00
S1     S     0.99511   0.49940   0.25616   0.01267  Uiso   1.00
S2     S     0.50489   0.50060   0.75616   0.01267  Uiso   1.00
S3     S     0.00489   0.50060   0.74384   0.01267  Uiso   1.00
S4     S     0.49511   0.49940   0.24384   0.01267  Uiso   1.00
N1     N     0.56910   0.77170   0.43422   0.01267  Uiso   1.00
N2     N     0.45010   0.78809   0.36531   0.01267  Uiso   1.00
N3     N     0.03280   0.15430   0.15512   0.01267  Uiso   1.00
N4     N     0.92740   0.19561   0.08853   0.01267  Uiso   1.00
N5     N     0.77340   0.03380   0.49904   0.01267  Uiso   1.00
N6     N     0.93090   0.22830   0.93422   0.01267  Uiso   1.00
N7     N     0.04990   0.21191   0.86531   0.01267  Uiso   1.00
N8     N     0.46720   0.84570   0.65512   0.01267  Uiso   1.00
N9     N     0.57260   0.80439   0.58853   0.01267  Uiso   1.00
N10    N     0.72660   0.96620   0.99904   0.01267  Uiso   1.00
N11    N     0.43090   0.22830   0.56578   0.01267  Uiso   1.00
N12    N     0.54990   0.21191   0.63469   0.01267  Uiso   1.00
N13    N     0.96720   0.84570   0.84488   0.01267  Uiso   1.00
N14    N     0.07260   0.80439   0.91147   0.01267  Uiso   1.00
N15    N     0.22660   0.96620   0.50096   0.01267  Uiso   1.00
N16    N     0.06910   0.77170   0.06578   0.01267  Uiso   1.00
N17    N     0.95010   0.78809   0.13469   0.01267  Uiso   1.00
N18    N     0.53280   0.15430   0.34488   0.01267  Uiso   1.00
N19    N     0.42740   0.19561   0.41147   0.01267  Uiso   1.00
N20    N     0.27340   0.03380   0.00096   0.01267  Uiso   1.00
O1     O     0.79471   0.75449   0.45012   0.01267  Uiso   1.00
O2     O     0.97110   0.87538   0.43553   0.01267  Uiso   1.00
O3     O     0.89220   0.44417   0.22183   0.01267  Uiso   1.00
O4     O     0.09950   0.55977   0.22429   0.01267  Uiso   1.00
O5     O     0.00838   0.10681   0.42603   0.01267  Uiso   1.00
O6     O     0.19419   0.20125   0.41231   0.01267  Uiso   1.00
O7     O     0.80955   0.96377   0.50230   0.01267  Uiso   1.00
O8     O     0.67265   0.02205   0.49745   0.01267  Uiso   1.00
O9     O     0.70529   0.24551   0.95012   0.01267  Uiso   1.00
O10    O     0.52890   0.12462   0.93553   0.01267  Uiso   1.00
O11    O     0.60780   0.55583   0.72183   0.01267  Uiso   1.00
O12    O     0.40050   0.44023   0.72429   0.01267  Uiso   1.00
O13    O     0.49162   0.89319   0.92603   0.01267  Uiso   1.00
O14    O     0.30581   0.79875   0.91231   0.01267  Uiso   1.00
O15    O     0.69045   0.03623   0.00230   0.01267  Uiso   1.00
O16    O     0.82735   0.97795   0.99745   0.01267  Uiso   1.00
O17    O     0.20529   0.24551   0.54988   0.01267  Uiso   1.00
O18    O     0.02890   0.12462   0.56447   0.01267  Uiso   1.00
O19    O     0.10780   0.55583   0.77817   0.01267  Uiso   1.00
O20    O     0.90050   0.44023   0.77571   0.01267  Uiso   1.00
O21    O     0.99162   0.89319   0.57397   0.01267  Uiso   1.00
O22    O     0.80581   0.79875   0.58769   0.01267  Uiso   1.00
O23    O     0.19045   0.03623   0.49770   0.01267  Uiso   1.00
O24    O     0.32735   0.97795   0.50255   0.01267  Uiso   1.00
O25    O     0.29471   0.75449   0.04988   0.01267  Uiso   1.00
O26    O     0.47110   0.87538   0.06447   0.01267  Uiso   1.00
O27    O     0.39220   0.44417   0.27817   0.01267  Uiso   1.00
O28    O     0.59950   0.55977   0.27571   0.01267  Uiso   1.00
O29    O     0.50838   0.10681   0.07397   0.01267  Uiso   1.00
O30    O     0.69419   0.20125   0.08769   0.01267  Uiso   1.00
O31    O     0.30955   0.96377   0.99770   0.01267  Uiso   1.00
O32    O     0.17265   0.02205   0.00255   0.01267  Uiso   1.00
