data_image0
_cell_length_a       24.272
_cell_length_b       24.272
_cell_length_c       4.937
_cell_angle_alpha    90
_cell_angle_beta     90
_cell_angle_gamma    90

_symmetry_space_group_name_H-M    "P 1"
_symmetry_int_tables_number       1

loop_
  _symmetry_equiv_pos_as_xyz
  'x, y, z'

loop_
  _atom_site_label
  _atom_site_occupancy
  _atom_site_fract_x
  _atom_site_fract_y
  _atom_site_fract_z
  _atom_site_thermal_displace_type
  _atom_site_B_iso_or_equiv
  _atom_site_type_symbol
  N1       1.0000 0.92970  0.47100  0.51780  Biso   1.000  N
  C1       1.0000 0.85530  0.46530  0.88190  Biso   1.000  C
  C2       1.0000 0.83560  0.51330  0.97600  Biso   1.000  C
  C3       1.0000 0.79230  0.51340  0.17000  Biso   1.000  C
  C4       1.0000 0.77180  0.46450  0.27320  Biso   1.000  C
  C5       1.0000 0.79590  0.41470  0.16600  Biso   1.000  C
  C6       1.0000 0.83470  0.41570  0.98500  Biso   1.000  C
  C7       1.0000 0.89660  0.46820  0.67670  Biso   1.000  C
  H1       1.0000 0.85020  0.54650  0.91500  Biso   1.000  H
  H2       1.0000 0.77750  0.54670  0.22800  Biso   1.000  H
  H3       1.0000 0.78310  0.38080  0.22800  Biso   1.000  H
  H4       1.0000 0.84920  0.38250  0.92200  Biso   1.000  H
  N2       1.0000 0.42970  0.97100  0.01780  Biso   1.000  N
  C8       1.0000 0.35530  0.96530  0.38190  Biso   1.000  C
  C9       1.0000 0.33560  0.01330  0.47600  Biso   1.000  C
  C10      1.0000 0.29230  0.01340  0.67000  Biso   1.000  C
  C11      1.0000 0.27180  0.96450  0.77320  Biso   1.000  C
  C12      1.0000 0.29590  0.91470  0.66600  Biso   1.000  C
  C13      1.0000 0.33470  0.91570  0.48500  Biso   1.000  C
  C14      1.0000 0.39660  0.96820  0.17670  Biso   1.000  C
  H5       1.0000 0.35020  0.04650  0.41500  Biso   1.000  H
  H6       1.0000 0.27750  0.04670  0.72800  Biso   1.000  H
  H7       1.0000 0.28310  0.88080  0.72800  Biso   1.000  H
  H8       1.0000 0.34920  0.88250  0.42200  Biso   1.000  H
  N3       1.0000 0.07030  0.52900  0.51780  Biso   1.000  N
  C15      1.0000 0.14470  0.53470  0.88190  Biso   1.000  C
  C16      1.0000 0.16440  0.48670  0.97600  Biso   1.000  C
  C17      1.0000 0.20770  0.48660  0.17000  Biso   1.000  C
  C18      1.0000 0.22820  0.53550  0.27320  Biso   1.000  C
  C19      1.0000 0.20410  0.58530  0.16600  Biso   1.000  C
  C20      1.0000 0.16530  0.58430  0.98500  Biso   1.000  C
  C21      1.0000 0.10340  0.53180  0.67670  Biso   1.000  C
  H9       1.0000 0.14980  0.45350  0.91500  Biso   1.000  H
  H10      1.0000 0.22250  0.45330  0.22800  Biso   1.000  H
  H11      1.0000 0.21690  0.61920  0.22800  Biso   1.000  H
  H12      1.0000 0.15080  0.61750  0.92200  Biso   1.000  H
  N4       1.0000 0.57030  0.02900  0.01780  Biso   1.000  N
  C22      1.0000 0.64470  0.03470  0.38190  Biso   1.000  C
  C23      1.0000 0.66440  0.98670  0.47600  Biso   1.000  C
  C24      1.0000 0.70770  0.98660  0.67000  Biso   1.000  C
  C25      1.0000 0.72820  0.03550  0.77320  Biso   1.000  C
  C26      1.0000 0.70410  0.08530  0.66600  Biso   1.000  C
  C27      1.0000 0.66530  0.08430  0.48500  Biso   1.000  C
  C28      1.0000 0.60340  0.03180  0.17670  Biso   1.000  C
  H13      1.0000 0.64980  0.95350  0.41500  Biso   1.000  H
  H14      1.0000 0.72250  0.95330  0.72800  Biso   1.000  H
  H15      1.0000 0.71690  0.11920  0.72800  Biso   1.000  H
  H16      1.0000 0.65080  0.11750  0.42200  Biso   1.000  H
  N5       1.0000 0.47100  0.07030  0.48220  Biso   1.000  N
  C29      1.0000 0.46530  0.14470  0.11810  Biso   1.000  C
  C30      1.0000 0.51330  0.16440  0.02400  Biso   1.000  C
  C31      1.0000 0.51340  0.20770  0.83000  Biso   1.000  C
  C32      1.0000 0.46450  0.22820  0.72680  Biso   1.000  C
  C33      1.0000 0.41470  0.20410  0.83400  Biso   1.000  C
  C34      1.0000 0.41570  0.16530  0.01500  Biso   1.000  C
  C35      1.0000 0.46820  0.10340  0.32330  Biso   1.000  C
  H17      1.0000 0.54650  0.14980  0.08500  Biso   1.000  H
  H18      1.0000 0.54670  0.22250  0.77200  Biso   1.000  H
  H19      1.0000 0.38080  0.21690  0.77200  Biso   1.000  H
  H20      1.0000 0.38250  0.15080  0.07800  Biso   1.000  H
  N6       1.0000 0.97100  0.57030  0.98220  Biso   1.000  N
  C36      1.0000 0.96530  0.64470  0.61810  Biso   1.000  C
  C37      1.0000 0.01330  0.66440  0.52400  Biso   1.000  C
  C38      1.0000 0.01340  0.70770  0.33000  Biso   1.000  C
  C39      1.0000 0.96450  0.72820  0.22680  Biso   1.000  C
  C40      1.0000 0.91470  0.70410  0.33400  Biso   1.000  C
  C41      1.0000 0.91570  0.66530  0.51500  Biso   1.000  C
  C42      1.0000 0.96820  0.60340  0.82330  Biso   1.000  C
  H21      1.0000 0.04650  0.64980  0.58500  Biso   1.000  H
  H22      1.0000 0.04670  0.72250  0.27200  Biso   1.000  H
  H23      1.0000 0.88080  0.71690  0.27200  Biso   1.000  H
  H24      1.0000 0.88250  0.65080  0.57800  Biso   1.000  H
  N7       1.0000 0.52900  0.92970  0.48220  Biso   1.000  N
  C43      1.0000 0.53470  0.85530  0.11810  Biso   1.000  C
  C44      1.0000 0.48670  0.83560  0.02400  Biso   1.000  C
  C45      1.0000 0.48660  0.79230  0.83000  Biso   1.000  C
  C46      1.0000 0.53550  0.77180  0.72680  Biso   1.000  C
  C47      1.0000 0.58530  0.79590  0.83400  Biso   1.000  C
  C48      1.0000 0.58430  0.83470  0.01500  Biso   1.000  C
  C49      1.0000 0.53180  0.89660  0.32330  Biso   1.000  C
  H25      1.0000 0.45350  0.85020  0.08500  Biso   1.000  H
  H26      1.0000 0.45330  0.77750  0.77200  Biso   1.000  H
  H27      1.0000 0.61920  0.78310  0.77200  Biso   1.000  H
  H28      1.0000 0.61750  0.84920  0.07800  Biso   1.000  H
  N8       1.0000 0.02900  0.42970  0.98220  Biso   1.000  N
  C50      1.0000 0.03470  0.35530  0.61810  Biso   1.000  C
  C51      1.0000 0.98670  0.33560  0.52400  Biso   1.000  C
  C52      1.0000 0.98660  0.29230  0.33000  Biso   1.000  C
  C53      1.0000 0.03550  0.27180  0.22680  Biso   1.000  C
  C54      1.0000 0.08530  0.29590  0.33400  Biso   1.000  C
  C55      1.0000 0.08430  0.33470  0.51500  Biso   1.000  C
  C56      1.0000 0.03180  0.39660  0.82330  Biso   1.000  C
  H29      1.0000 0.95350  0.35020  0.58500  Biso   1.000  H
  H30      1.0000 0.95330  0.27750  0.27200  Biso   1.000  H
  H31      1.0000 0.11920  0.28310  0.27200  Biso   1.000  H
  H32      1.0000 0.11750  0.34920  0.57800  Biso   1.000  H
  N9       1.0000 0.57030  0.47100  0.23220  Biso   1.000  N
  C57      1.0000 0.64470  0.46530  0.86810  Biso   1.000  C
  C58      1.0000 0.66440  0.51330  0.77400  Biso   1.000  C
  C59      1.0000 0.70770  0.51340  0.58000  Biso   1.000  C
  C60      1.0000 0.72820  0.46450  0.47680  Biso   1.000  C
  C61      1.0000 0.70410  0.41470  0.58400  Biso   1.000  C
  C62      1.0000 0.66530  0.41570  0.76500  Biso   1.000  C
  C63      1.0000 0.60340  0.46820  0.07330  Biso   1.000  C
  H33      1.0000 0.64980  0.54650  0.83500  Biso   1.000  H
  H34      1.0000 0.72250  0.54670  0.52200  Biso   1.000  H
  H35      1.0000 0.71690  0.38080  0.52200  Biso   1.000  H
  H36      1.0000 0.65080  0.38250  0.82800  Biso   1.000  H
  N10      1.0000 0.07030  0.97100  0.73220  Biso   1.000  N
  C64      1.0000 0.14470  0.96530  0.36810  Biso   1.000  C
  C65      1.0000 0.16440  0.01330  0.27400  Biso   1.000  C
  C66      1.0000 0.20770  0.01340  0.08000  Biso   1.000  C
  C67      1.0000 0.22820  0.96450  0.97680  Biso   1.000  C
  C68      1.0000 0.20410  0.91470  0.08400  Biso   1.000  C
  C69      1.0000 0.16530  0.91570  0.26500  Biso   1.000  C
  C70      1.0000 0.10340  0.96820  0.57330  Biso   1.000  C
  H37      1.0000 0.14980  0.04650  0.33500  Biso   1.000  H
  H38      1.0000 0.22250  0.04670  0.02200  Biso   1.000  H
  H39      1.0000 0.21690  0.88080  0.02200  Biso   1.000  H
  H40      1.0000 0.15080  0.88250  0.32800  Biso   1.000  H
  N11      1.0000 0.42970  0.52900  0.23220  Biso   1.000  N
  C71      1.0000 0.35530  0.53470  0.86810  Biso   1.000  C
  C72      1.0000 0.33560  0.48670  0.77400  Biso   1.000  C
  C73      1.0000 0.29230  0.48660  0.58000  Biso   1.000  C
  C74      1.0000 0.27180  0.53550  0.47680  Biso   1.000  C
  C75      1.0000 0.29590  0.58530  0.58400  Biso   1.000  C
  C76      1.0000 0.33470  0.58430  0.76500  Biso   1.000  C
  C77      1.0000 0.39660  0.53180  0.07330  Biso   1.000  C
  H41      1.0000 0.35020  0.45350  0.83500  Biso   1.000  H
  H42      1.0000 0.27750  0.45330  0.52200  Biso   1.000  H
  H43      1.0000 0.28310  0.61920  0.52200  Biso   1.000  H
  H44      1.0000 0.34920  0.61750  0.82800  Biso   1.000  H
  N12      1.0000 0.92970  0.02900  0.73220  Biso   1.000  N
  C78      1.0000 0.85530  0.03470  0.36810  Biso   1.000  C
  C79      1.0000 0.83560  0.98670  0.27400  Biso   1.000  C
  C80      1.0000 0.79230  0.98660  0.08000  Biso   1.000  C
  C81      1.0000 0.77180  0.03550  0.97680  Biso   1.000  C
  C82      1.0000 0.79590  0.08530  0.08400  Biso   1.000  C
  C83      1.0000 0.83470  0.08430  0.26500  Biso   1.000  C
  C84      1.0000 0.89660  0.03180  0.57330  Biso   1.000  C
  H45      1.0000 0.85020  0.95350  0.33500  Biso   1.000  H
  H46      1.0000 0.77750  0.95330  0.02200  Biso   1.000  H
  H47      1.0000 0.78310  0.11920  0.02200  Biso   1.000  H
  H48      1.0000 0.84920  0.11750  0.32800  Biso   1.000  H
  N13      1.0000 0.02900  0.07030  0.26780  Biso   1.000  N
  C85      1.0000 0.03470  0.14470  0.63190  Biso   1.000  C
  C86      1.0000 0.98670  0.16440  0.72600  Biso   1.000  C
  C87      1.0000 0.98660  0.20770  0.92000  Biso   1.000  C
  C88      1.0000 0.03550  0.22820  0.02320  Biso   1.000  C
  C89      1.0000 0.08530  0.20410  0.91600  Biso   1.000  C
  C90      1.0000 0.08430  0.16530  0.73500  Biso   1.000  C
  C91      1.0000 0.03180  0.10340  0.42670  Biso   1.000  C
  H49      1.0000 0.95350  0.14980  0.66500  Biso   1.000  H
  H50      1.0000 0.95330  0.22250  0.97800  Biso   1.000  H
  H51      1.0000 0.11920  0.21690  0.97800  Biso   1.000  H
  H52      1.0000 0.11750  0.15080  0.67200  Biso   1.000  H
  N14      1.0000 0.52900  0.57030  0.76780  Biso   1.000  N
  C92      1.0000 0.53470  0.64470  0.13190  Biso   1.000  C
  C93      1.0000 0.48670  0.66440  0.22600  Biso   1.000  C
  C94      1.0000 0.48660  0.70770  0.42000  Biso   1.000  C
  C95      1.0000 0.53550  0.72820  0.52320  Biso   1.000  C
  C96      1.0000 0.58530  0.70410  0.41600  Biso   1.000  C
  C97      1.0000 0.58430  0.66530  0.23500  Biso   1.000  C
  C98      1.0000 0.53180  0.60340  0.92670  Biso   1.000  C
  H53      1.0000 0.45350  0.64980  0.16500  Biso   1.000  H
  H54      1.0000 0.45330  0.72250  0.47800  Biso   1.000  H
  H55      1.0000 0.61920  0.71690  0.47800  Biso   1.000  H
  H56      1.0000 0.61750  0.65080  0.17200  Biso   1.000  H
  N15      1.0000 0.97100  0.92970  0.26780  Biso   1.000  N
  C99      1.0000 0.96530  0.85530  0.63190  Biso   1.000  C
  C100     1.0000 0.01330  0.83560  0.72600  Biso   1.000  C
  C101     1.0000 0.01340  0.79230  0.92000  Biso   1.000  C
  C102     1.0000 0.96450  0.77180  0.02320  Biso   1.000  C
  C103     1.0000 0.91470  0.79590  0.91600  Biso   1.000  C
  C104     1.0000 0.91570  0.83470  0.73500  Biso   1.000  C
  C105     1.0000 0.96820  0.89660  0.42670  Biso   1.000  C
  H57      1.0000 0.04650  0.85020  0.66500  Biso   1.000  H
  H58      1.0000 0.04670  0.77750  0.97800  Biso   1.000  H
  H59      1.0000 0.88080  0.78310  0.97800  Biso   1.000  H
  H60      1.0000 0.88250  0.84920  0.67200  Biso   1.000  H
  N16      1.0000 0.47100  0.42970  0.76780  Biso   1.000  N
  C106     1.0000 0.46530  0.35530  0.13190  Biso   1.000  C
  C107     1.0000 0.51330  0.33560  0.22600  Biso   1.000  C
  C108     1.0000 0.51340  0.29230  0.42000  Biso   1.000  C
  C109     1.0000 0.46450  0.27180  0.52320  Biso   1.000  C
  C110     1.0000 0.41470  0.29590  0.41600  Biso   1.000  C
  C111     1.0000 0.41570  0.33470  0.23500  Biso   1.000  C
  C112     1.0000 0.46820  0.39660  0.92670  Biso   1.000  C
  H61      1.0000 0.54650  0.35020  0.16500  Biso   1.000  H
  H62      1.0000 0.54670  0.27750  0.47800  Biso   1.000  H
  H63      1.0000 0.38080  0.28310  0.47800  Biso   1.000  H
  H64      1.0000 0.38250  0.34920  0.17200  Biso   1.000  H
  Ag1      1.0000 0.00000  0.50000  0.25000  Biso   1.000  Ag
  Ag2      1.0000 0.50000  0.00000  0.75000  Biso   1.000  Ag
  Ag3      1.0000 0.50000  0.50000  0.50000  Biso   1.000  Ag
  Ag4      1.0000 0.00000  0.00000  0.00000  Biso   1.000  Ag
