data_image0
_cell_length_a       24.552
_cell_length_b       24.552
_cell_length_c       4.845
_cell_angle_alpha    90
_cell_angle_beta     90
_cell_angle_gamma    90

_symmetry_space_group_name_H-M    "P 1"
_symmetry_int_tables_number       1

loop_
  _symmetry_equiv_pos_as_xyz
  'x, y, z'

loop_
  _atom_site_label
  _atom_site_occupancy
  _atom_site_fract_x
  _atom_site_fract_y
  _atom_site_fract_z
  _atom_site_thermal_displace_type
  _atom_site_B_iso_or_equiv
  _atom_site_type_symbol
  N1       1.0000 0.96820  0.56920  0.48260  Biso   1.000  N
  C1       1.0000 0.96240  0.64210  0.11840  Biso   1.000  C
  C2       1.0000 0.91470  0.66290  0.01840  Biso   1.000  C
  C3       1.0000 0.91370  0.70330  0.82490  Biso   1.000  C
  C4       1.0000 0.96120  0.72800  0.72470  Biso   1.000  C
  C5       1.0000 0.01110  0.70780  0.82460  Biso   1.000  C
  C6       1.0000 0.00970  0.66430  0.02690  Biso   1.000  C
  C7       1.0000 0.96560  0.60230  0.31790  Biso   1.000  C
  H1       1.0000 0.88190  0.64910  0.08420  Biso   1.000  H
  H2       1.0000 0.88020  0.71480  0.75700  Biso   1.000  H
  H3       1.0000 0.04410  0.72200  0.76260  Biso   1.000  H
  H4       1.0000 0.04250  0.65110  0.09660  Biso   1.000  H
  N2       1.0000 0.46820  0.06920  0.98260  Biso   1.000  N
  C8       1.0000 0.46240  0.14210  0.61840  Biso   1.000  C
  C9       1.0000 0.41470  0.16290  0.51840  Biso   1.000  C
  C10      1.0000 0.41370  0.20330  0.32490  Biso   1.000  C
  C11      1.0000 0.46120  0.22800  0.22470  Biso   1.000  C
  C12      1.0000 0.51110  0.20780  0.32460  Biso   1.000  C
  C13      1.0000 0.50970  0.16430  0.52690  Biso   1.000  C
  C14      1.0000 0.46560  0.10230  0.81790  Biso   1.000  C
  H5       1.0000 0.38190  0.14910  0.58420  Biso   1.000  H
  H6       1.0000 0.38020  0.21480  0.25700  Biso   1.000  H
  H7       1.0000 0.54410  0.22200  0.26260  Biso   1.000  H
  H8       1.0000 0.54250  0.15110  0.59660  Biso   1.000  H
  N3       1.0000 0.03180  0.43080  0.48260  Biso   1.000  N
  C15      1.0000 0.03760  0.35790  0.11840  Biso   1.000  C
  C16      1.0000 0.08530  0.33710  0.01840  Biso   1.000  C
  C17      1.0000 0.08630  0.29670  0.82490  Biso   1.000  C
  C18      1.0000 0.03880  0.27200  0.72470  Biso   1.000  C
  C19      1.0000 0.98890  0.29220  0.82460  Biso   1.000  C
  C20      1.0000 0.99030  0.33570  0.02690  Biso   1.000  C
  C21      1.0000 0.03440  0.39770  0.31790  Biso   1.000  C
  H9       1.0000 0.11810  0.35090  0.08420  Biso   1.000  H
  H10      1.0000 0.11980  0.28520  0.75700  Biso   1.000  H
  H11      1.0000 0.95590  0.27800  0.76260  Biso   1.000  H
  H12      1.0000 0.95750  0.34890  0.09660  Biso   1.000  H
  N4       1.0000 0.53180  0.93080  0.98260  Biso   1.000  N
  C22      1.0000 0.53760  0.85790  0.61840  Biso   1.000  C
  C23      1.0000 0.58530  0.83710  0.51840  Biso   1.000  C
  C24      1.0000 0.58630  0.79670  0.32490  Biso   1.000  C
  C25      1.0000 0.53880  0.77200  0.22470  Biso   1.000  C
  C26      1.0000 0.48890  0.79220  0.32460  Biso   1.000  C
  C27      1.0000 0.49030  0.83570  0.52690  Biso   1.000  C
  C28      1.0000 0.53440  0.89770  0.81790  Biso   1.000  C
  H13      1.0000 0.61810  0.85090  0.58420  Biso   1.000  H
  H14      1.0000 0.61980  0.78520  0.25700  Biso   1.000  H
  H15      1.0000 0.45590  0.77800  0.26260  Biso   1.000  H
  H16      1.0000 0.45750  0.84890  0.59660  Biso   1.000  H
  N5       1.0000 0.56920  0.03180  0.51740  Biso   1.000  N
  C29      1.0000 0.64210  0.03760  0.88160  Biso   1.000  C
  C30      1.0000 0.66290  0.08530  0.98160  Biso   1.000  C
  C31      1.0000 0.70330  0.08630  0.17510  Biso   1.000  C
  C32      1.0000 0.72800  0.03880  0.27530  Biso   1.000  C
  C33      1.0000 0.70780  0.98890  0.17540  Biso   1.000  C
  C34      1.0000 0.66430  0.99030  0.97310  Biso   1.000  C
  C35      1.0000 0.60230  0.03440  0.68210  Biso   1.000  C
  H17      1.0000 0.64910  0.11810  0.91580  Biso   1.000  H
  H18      1.0000 0.71480  0.11980  0.24300  Biso   1.000  H
  H19      1.0000 0.72200  0.95590  0.23740  Biso   1.000  H
  H20      1.0000 0.65110  0.95750  0.90340  Biso   1.000  H
  N6       1.0000 0.06920  0.53180  0.01740  Biso   1.000  N
  C36      1.0000 0.14210  0.53760  0.38160  Biso   1.000  C
  C37      1.0000 0.16290  0.58530  0.48160  Biso   1.000  C
  C38      1.0000 0.20330  0.58630  0.67510  Biso   1.000  C
  C39      1.0000 0.22800  0.53880  0.77530  Biso   1.000  C
  C40      1.0000 0.20780  0.48890  0.67540  Biso   1.000  C
  C41      1.0000 0.16430  0.49030  0.47310  Biso   1.000  C
  C42      1.0000 0.10230  0.53440  0.18210  Biso   1.000  C
  H21      1.0000 0.14910  0.61810  0.41580  Biso   1.000  H
  H22      1.0000 0.21480  0.61980  0.74300  Biso   1.000  H
  H23      1.0000 0.22200  0.45590  0.73740  Biso   1.000  H
  H24      1.0000 0.15110  0.45750  0.40340  Biso   1.000  H
  N7       1.0000 0.43080  0.96820  0.51740  Biso   1.000  N
  C43      1.0000 0.35790  0.96240  0.88160  Biso   1.000  C
  C44      1.0000 0.33710  0.91470  0.98160  Biso   1.000  C
  C45      1.0000 0.29670  0.91370  0.17510  Biso   1.000  C
  C46      1.0000 0.27200  0.96120  0.27530  Biso   1.000  C
  C47      1.0000 0.29220  0.01110  0.17540  Biso   1.000  C
  C48      1.0000 0.33570  0.00970  0.97310  Biso   1.000  C
  C49      1.0000 0.39770  0.96560  0.68210  Biso   1.000  C
  H25      1.0000 0.35090  0.88190  0.91580  Biso   1.000  H
  H26      1.0000 0.28520  0.88020  0.24300  Biso   1.000  H
  H27      1.0000 0.27800  0.04410  0.23740  Biso   1.000  H
  H28      1.0000 0.34890  0.04250  0.90340  Biso   1.000  H
  N8       1.0000 0.93080  0.46820  0.01740  Biso   1.000  N
  C50      1.0000 0.85790  0.46240  0.38160  Biso   1.000  C
  C51      1.0000 0.83710  0.41470  0.48160  Biso   1.000  C
  C52      1.0000 0.79670  0.41370  0.67510  Biso   1.000  C
  C53      1.0000 0.77200  0.46120  0.77530  Biso   1.000  C
  C54      1.0000 0.79220  0.51110  0.67540  Biso   1.000  C
  C55      1.0000 0.83570  0.50970  0.47310  Biso   1.000  C
  C56      1.0000 0.89770  0.46560  0.18210  Biso   1.000  C
  H29      1.0000 0.85090  0.38190  0.41580  Biso   1.000  H
  H30      1.0000 0.78520  0.38020  0.74300  Biso   1.000  H
  H31      1.0000 0.77800  0.54410  0.73740  Biso   1.000  H
  H32      1.0000 0.84890  0.54250  0.40340  Biso   1.000  H
  N9       1.0000 0.53180  0.56920  0.26740  Biso   1.000  N
  C57      1.0000 0.53760  0.64210  0.63160  Biso   1.000  C
  C58      1.0000 0.58530  0.66290  0.73160  Biso   1.000  C
  C59      1.0000 0.58630  0.70330  0.92510  Biso   1.000  C
  C60      1.0000 0.53880  0.72800  0.02530  Biso   1.000  C
  C61      1.0000 0.48890  0.70780  0.92540  Biso   1.000  C
  C62      1.0000 0.49030  0.66430  0.72310  Biso   1.000  C
  C63      1.0000 0.53440  0.60230  0.43210  Biso   1.000  C
  H33      1.0000 0.61810  0.64910  0.66580  Biso   1.000  H
  H34      1.0000 0.61980  0.71480  0.99300  Biso   1.000  H
  H35      1.0000 0.45590  0.72200  0.98740  Biso   1.000  H
  H36      1.0000 0.45750  0.65110  0.65340  Biso   1.000  H
  N10      1.0000 0.03180  0.06920  0.76740  Biso   1.000  N
  C64      1.0000 0.03760  0.14210  0.13160  Biso   1.000  C
  C65      1.0000 0.08530  0.16290  0.23160  Biso   1.000  C
  C66      1.0000 0.08630  0.20330  0.42510  Biso   1.000  C
  C67      1.0000 0.03880  0.22800  0.52530  Biso   1.000  C
  C68      1.0000 0.98890  0.20780  0.42540  Biso   1.000  C
  C69      1.0000 0.99030  0.16430  0.22310  Biso   1.000  C
  C70      1.0000 0.03440  0.10230  0.93210  Biso   1.000  C
  H37      1.0000 0.11810  0.14910  0.16580  Biso   1.000  H
  H38      1.0000 0.11980  0.21480  0.49300  Biso   1.000  H
  H39      1.0000 0.95590  0.22200  0.48740  Biso   1.000  H
  H40      1.0000 0.95750  0.15110  0.15340  Biso   1.000  H
  N11      1.0000 0.46820  0.43080  0.26740  Biso   1.000  N
  C71      1.0000 0.46240  0.35790  0.63160  Biso   1.000  C
  C72      1.0000 0.41470  0.33710  0.73160  Biso   1.000  C
  C73      1.0000 0.41370  0.29670  0.92510  Biso   1.000  C
  C74      1.0000 0.46120  0.27200  0.02530  Biso   1.000  C
  C75      1.0000 0.51110  0.29220  0.92540  Biso   1.000  C
  C76      1.0000 0.50970  0.33570  0.72310  Biso   1.000  C
  C77      1.0000 0.46560  0.39770  0.43210  Biso   1.000  C
  H41      1.0000 0.38190  0.35090  0.66580  Biso   1.000  H
  H42      1.0000 0.38020  0.28520  0.99300  Biso   1.000  H
  H43      1.0000 0.54410  0.27800  0.98740  Biso   1.000  H
  H44      1.0000 0.54250  0.34890  0.65340  Biso   1.000  H
  N12      1.0000 0.96820  0.93080  0.76740  Biso   1.000  N
  C78      1.0000 0.96240  0.85790  0.13160  Biso   1.000  C
  C79      1.0000 0.91470  0.83710  0.23160  Biso   1.000  C
  C80      1.0000 0.91370  0.79670  0.42510  Biso   1.000  C
  C81      1.0000 0.96120  0.77200  0.52530  Biso   1.000  C
  C82      1.0000 0.01110  0.79220  0.42540  Biso   1.000  C
  C83      1.0000 0.00970  0.83570  0.22310  Biso   1.000  C
  C84      1.0000 0.96560  0.89770  0.93210  Biso   1.000  C
  H45      1.0000 0.88190  0.85090  0.16580  Biso   1.000  H
  H46      1.0000 0.88020  0.78520  0.49300  Biso   1.000  H
  H47      1.0000 0.04410  0.77800  0.48740  Biso   1.000  H
  H48      1.0000 0.04250  0.84890  0.15340  Biso   1.000  H
  N13      1.0000 0.93080  0.03180  0.23260  Biso   1.000  N
  C85      1.0000 0.85790  0.03760  0.86840  Biso   1.000  C
  C86      1.0000 0.83710  0.08530  0.76840  Biso   1.000  C
  C87      1.0000 0.79670  0.08630  0.57490  Biso   1.000  C
  C88      1.0000 0.77200  0.03880  0.47470  Biso   1.000  C
  C89      1.0000 0.79220  0.98890  0.57460  Biso   1.000  C
  C90      1.0000 0.83570  0.99030  0.77690  Biso   1.000  C
  C91      1.0000 0.89770  0.03440  0.06790  Biso   1.000  C
  H49      1.0000 0.85090  0.11810  0.83420  Biso   1.000  H
  H50      1.0000 0.78520  0.11980  0.50700  Biso   1.000  H
  H51      1.0000 0.77800  0.95590  0.51260  Biso   1.000  H
  H52      1.0000 0.84890  0.95750  0.84660  Biso   1.000  H
  N14      1.0000 0.43080  0.53180  0.73260  Biso   1.000  N
  C92      1.0000 0.35790  0.53760  0.36840  Biso   1.000  C
  C93      1.0000 0.33710  0.58530  0.26840  Biso   1.000  C
  C94      1.0000 0.29670  0.58630  0.07490  Biso   1.000  C
  C95      1.0000 0.27200  0.53880  0.97470  Biso   1.000  C
  C96      1.0000 0.29220  0.48890  0.07460  Biso   1.000  C
  C97      1.0000 0.33570  0.49030  0.27690  Biso   1.000  C
  C98      1.0000 0.39770  0.53440  0.56790  Biso   1.000  C
  H53      1.0000 0.35090  0.61810  0.33420  Biso   1.000  H
  H54      1.0000 0.28520  0.61980  0.00700  Biso   1.000  H
  H55      1.0000 0.27800  0.45590  0.01260  Biso   1.000  H
  H56      1.0000 0.34890  0.45750  0.34660  Biso   1.000  H
  N15      1.0000 0.06920  0.96820  0.23260  Biso   1.000  N
  C99      1.0000 0.14210  0.96240  0.86840  Biso   1.000  C
  C100     1.0000 0.16290  0.91470  0.76840  Biso   1.000  C
  C101     1.0000 0.20330  0.91370  0.57490  Biso   1.000  C
  C102     1.0000 0.22800  0.96120  0.47470  Biso   1.000  C
  C103     1.0000 0.20780  0.01110  0.57460  Biso   1.000  C
  C104     1.0000 0.16430  0.00970  0.77690  Biso   1.000  C
  C105     1.0000 0.10230  0.96560  0.06790  Biso   1.000  C
  H57      1.0000 0.14910  0.88190  0.83420  Biso   1.000  H
  H58      1.0000 0.21480  0.88020  0.50700  Biso   1.000  H
  H59      1.0000 0.22200  0.04410  0.51260  Biso   1.000  H
  H60      1.0000 0.15110  0.04250  0.84660  Biso   1.000  H
  N16      1.0000 0.56920  0.46820  0.73260  Biso   1.000  N
  C106     1.0000 0.64210  0.46240  0.36840  Biso   1.000  C
  C107     1.0000 0.66290  0.41470  0.26840  Biso   1.000  C
  C108     1.0000 0.70330  0.41370  0.07490  Biso   1.000  C
  C109     1.0000 0.72800  0.46120  0.97470  Biso   1.000  C
  C110     1.0000 0.70780  0.51110  0.07460  Biso   1.000  C
  C111     1.0000 0.66430  0.50970  0.27690  Biso   1.000  C
  C112     1.0000 0.60230  0.46560  0.56790  Biso   1.000  C
  H61      1.0000 0.64910  0.38190  0.33420  Biso   1.000  H
  H62      1.0000 0.71480  0.38020  0.00700  Biso   1.000  H
  H63      1.0000 0.72200  0.54410  0.01260  Biso   1.000  H
  H64      1.0000 0.65110  0.54250  0.34660  Biso   1.000  H
  Ag1      1.0000 0.00000  0.50000  0.75000  Biso   1.000  Ag
  Ag2      1.0000 0.50000  0.00000  0.25000  Biso   1.000  Ag
  Ag3      1.0000 0.50000  0.50000  0.00000  Biso   1.000  Ag
  Ag4      1.0000 0.00000  0.00000  0.50000  Biso   1.000  Ag
