data_ZIHTEP_clean
_audit_creation_date              2014-07-02
_audit_creation_method            'Materials Studio'
_symmetry_space_group_name_H-M    'P1'
_symmetry_Int_Tables_number       1
_symmetry_cell_setting            triclinic
loop_
_symmetry_equiv_pos_as_xyz
  x,y,z
_cell_length_a                    8.1180
_cell_length_b                    11.5680
_cell_length_c                    14.2440
_cell_angle_alpha                 94.6400
_cell_angle_beta                  97.4400
_cell_angle_gamma                 103.0000
loop_
_atom_site_label
_atom_site_type_symbol
_atom_site_fract_x
_atom_site_fract_y
_atom_site_fract_z
_atom_site_U_iso_or_equiv
_atom_site_adp_type
_atom_site_occupancy
Li1    Li    0.46100   0.92100   0.41400   0.01267  Uiso   1.00
Li2    Li    0.84200   0.41300   0.22800   0.01267  Uiso   1.00
Li3    Li    0.93100   0.23900   0.10600   0.01267  Uiso   1.00
Li4    Li    0.53900   0.07900   0.58600   0.01267  Uiso   1.00
Li5    Li    0.15800   0.58700   0.77200   0.01267  Uiso   1.00
Li6    Li    0.06900   0.76100   0.89400   0.01267  Uiso   1.00
Co1    Co    0.88690   0.83290   0.20570   0.01267  Uiso   1.00
Co2    Co    0.11310   0.16710   0.79430   0.01267  Uiso   1.00
H1     H     0.66490   0.11220   0.19340   0.01267  Uiso   1.00
H2     H     0.36900   0.99230   0.19490   0.01267  Uiso   1.00
H3     H     0.25740   0.98290   0.09630   0.01267  Uiso   1.00
H4     H     0.43100   0.94670   0.10340   0.01267  Uiso   1.00
H5     H     0.42970   0.20670   0.01150   0.01267  Uiso   1.00
H6     H     0.25850   0.14540   0.04310   0.01267  Uiso   1.00
H7     H     0.37370   0.26050   0.10200   0.01267  Uiso   1.00
H8     H     0.36100   0.11320   0.33610   0.01267  Uiso   1.00
H9     H     0.58680   0.42500   0.48180   0.01267  Uiso   1.00
H10    H     0.53350   0.32050   0.54180   0.01267  Uiso   1.00
H11    H     0.68900   0.32680   0.48790   0.01267  Uiso   1.00
H12    H     0.41950   0.32370   0.27130   0.01267  Uiso   1.00
H13    H     0.26510   0.31600   0.32630   0.01267  Uiso   1.00
H14    H     0.42300   0.42330   0.35180   0.01267  Uiso   1.00
H15    H     0.13540   0.42220   0.04250   0.01267  Uiso   1.00
H16    H     0.36570   0.68180   0.22930   0.01267  Uiso   1.00
H17    H     0.17240   0.63310   0.23260   0.01267  Uiso   1.00
H18    H     0.30290   0.56090   0.26850   0.01267  Uiso   1.00
H19    H     0.43020   0.57090   0.04830   0.01267  Uiso   1.00
H20    H     0.29360   0.64270   0.02320   0.01267  Uiso   1.00
H21    H     0.43580   0.68860   0.11050   0.01267  Uiso   1.00
H22    H     0.33510   0.88780   0.80660   0.01267  Uiso   1.00
H23    H     0.63100   0.00770   0.80510   0.01267  Uiso   1.00
H24    H     0.74260   0.01710   0.90370   0.01267  Uiso   1.00
H25    H     0.56900   0.05330   0.89660   0.01267  Uiso   1.00
H26    H     0.57030   0.79330   0.98850   0.01267  Uiso   1.00
H27    H     0.74150   0.85460   0.95690   0.01267  Uiso   1.00
H28    H     0.62630   0.73950   0.89800   0.01267  Uiso   1.00
H29    H     0.63900   0.88680   0.66390   0.01267  Uiso   1.00
H30    H     0.41320   0.57500   0.51820   0.01267  Uiso   1.00
H31    H     0.46650   0.67950   0.45820   0.01267  Uiso   1.00
H32    H     0.31100   0.67320   0.51210   0.01267  Uiso   1.00
H33    H     0.58050   0.67630   0.72870   0.01267  Uiso   1.00
H34    H     0.73490   0.68400   0.67370   0.01267  Uiso   1.00
H35    H     0.57700   0.57670   0.64820   0.01267  Uiso   1.00
H36    H     0.86460   0.57780   0.95750   0.01267  Uiso   1.00
H37    H     0.63430   0.31820   0.77070   0.01267  Uiso   1.00
H38    H     0.82760   0.36690   0.76740   0.01267  Uiso   1.00
H39    H     0.69710   0.43910   0.73150   0.01267  Uiso   1.00
H40    H     0.56980   0.42910   0.95170   0.01267  Uiso   1.00
H41    H     0.70640   0.35730   0.97680   0.01267  Uiso   1.00
H42    H     0.56420   0.31140   0.88950   0.01267  Uiso   1.00
C1     C     0.93300   0.99900   0.18460   0.01267  Uiso   1.00
C2     C     0.98600   0.80000   0.09900   0.01267  Uiso   1.00
C3     C     0.81400   0.66500   0.21100   0.01267  Uiso   1.00
C4     C     0.73800   0.86300   0.29320   0.01267  Uiso   1.00
C5     C     0.10100   0.85700   0.29800   0.01267  Uiso   1.00
C6     C     0.61400   0.16400   0.15700   0.01267  Uiso   1.00
C7     C     0.37100   0.00000   0.12900   0.01267  Uiso   1.00
C8     C     0.37300   0.18800   0.06500   0.01267  Uiso   1.00
C9     C     0.43500   0.15500   0.39200   0.01267  Uiso   1.00
C10    C     0.57900   0.34200   0.48600   0.01267  Uiso   1.00
C11    C     0.38600   0.34000   0.33200   0.01267  Uiso   1.00
C12    C     0.14400   0.45800   0.10600   0.01267  Uiso   1.00
C13    C     0.27600   0.61200   0.22300   0.01267  Uiso   1.00
C14    C     0.36300   0.62000   0.07400   0.01267  Uiso   1.00
C15    C     0.06700   0.00100   0.81540   0.01267  Uiso   1.00
C16    C     0.01400   0.20000   0.90100   0.01267  Uiso   1.00
C17    C     0.18600   0.33500   0.78900   0.01267  Uiso   1.00
C18    C     0.26200   0.13700   0.70680   0.01267  Uiso   1.00
C19    C     0.89900   0.14300   0.70200   0.01267  Uiso   1.00
C20    C     0.38600   0.83600   0.84300   0.01267  Uiso   1.00
C21    C     0.62900   0.00000   0.87100   0.01267  Uiso   1.00
C22    C     0.62700   0.81200   0.93500   0.01267  Uiso   1.00
C23    C     0.56500   0.84500   0.60800   0.01267  Uiso   1.00
C24    C     0.42100   0.65800   0.51400   0.01267  Uiso   1.00
C25    C     0.61400   0.66000   0.66800   0.01267  Uiso   1.00
C26    C     0.85600   0.54200   0.89400   0.01267  Uiso   1.00
C27    C     0.72400   0.38800   0.77700   0.01267  Uiso   1.00
C28    C     0.63700   0.38000   0.92600   0.01267  Uiso   1.00
N1     N     0.96600   0.09800   0.16950   0.01267  Uiso   1.00
N2     N     0.03900   0.77800   0.02940   0.01267  Uiso   1.00
N3     N     0.77200   0.56400   0.21340   0.01267  Uiso   1.00
N4     N     0.64300   0.88100   0.34350   0.01267  Uiso   1.00
N5     N     0.22800   0.86800   0.34630   0.01267  Uiso   1.00
N6     N     0.45600   0.12100   0.11900   0.01267  Uiso   1.00
N7     N     0.46600   0.27300   0.40260   0.01267  Uiso   1.00
N8     N     0.25600   0.55300   0.13330   0.01267  Uiso   1.00
N9     N     0.03400   0.90200   0.83050   0.01267  Uiso   1.00
N10    N     0.96100   0.22200   0.97060   0.01267  Uiso   1.00
N11    N     0.22800   0.43600   0.78660   0.01267  Uiso   1.00
N12    N     0.35700   0.11900   0.65650   0.01267  Uiso   1.00
N13    N     0.77200   0.13200   0.65370   0.01267  Uiso   1.00
N14    N     0.54400   0.87900   0.88100   0.01267  Uiso   1.00
N15    N     0.53400   0.72700   0.59740   0.01267  Uiso   1.00
N16    N     0.74400   0.44700   0.86670   0.01267  Uiso   1.00
O1     O     0.70700   0.26240   0.15270   0.01267  Uiso   1.00
O2     O     0.49400   0.09720   0.44850   0.01267  Uiso   1.00
O3     O     0.04000   0.40600   0.16150   0.01267  Uiso   1.00
O4     O     0.29300   0.73760   0.84730   0.01267  Uiso   1.00
O5     O     0.50600   0.90280   0.55150   0.01267  Uiso   1.00
O6     O     0.96000   0.59400   0.83850   0.01267  Uiso   1.00
