data_ZIJVAR_clean
_audit_creation_date              2014-07-02
_audit_creation_method            'Materials Studio'
_symmetry_space_group_name_H-M    'P1'
_symmetry_Int_Tables_number       1
_symmetry_cell_setting            triclinic
loop_
_symmetry_equiv_pos_as_xyz
  x,y,z
_cell_length_a                    13.2793
_cell_length_b                    15.4414
_cell_length_c                    18.4630
_cell_angle_alpha                 105.4830
_cell_angle_beta                  90.0000
_cell_angle_gamma                 115.4670
loop_
_atom_site_label
_atom_site_type_symbol
_atom_site_fract_x
_atom_site_fract_y
_atom_site_fract_z
_atom_site_U_iso_or_equiv
_atom_site_adp_type
_atom_site_occupancy
Co1    Co    0.24305   0.56610   0.96430   0.01267  Uiso   1.00
Co2    Co    0.67695   0.43390   0.53570   0.01267  Uiso   1.00
Co3    Co    0.61416  -0.00000   0.75000   0.01267  Uiso   1.00
H1     H     0.74520   0.25320   0.64110   0.01267  Uiso   1.00
H2     H     0.01850   0.51660   0.71950   0.01267  Uiso   1.00
H3     H     0.95360   0.30280   0.82010   0.01267  Uiso   1.00
H4     H     0.03240   0.61340   0.02500   0.01267  Uiso   1.00
H5     H     0.02900   0.77260   0.03500   0.01267  Uiso   1.00
H6     H     0.32910   0.79560   0.99280   0.01267  Uiso   1.00
H7     H     0.14030   0.96240   0.08850   0.01267  Uiso   1.00
H8     H     0.34890   0.18560   0.00980   0.01267  Uiso   1.00
H9     H     0.33200   0.91060   0.93100   0.01267  Uiso   1.00
H10    H     0.48750   0.98020   0.88770   0.01267  Uiso   1.00
H11    H     0.56020   0.20360   0.80610   0.01267  Uiso   1.00
H12    H     0.43350   0.21420   0.89850   0.01267  Uiso   1.00
H13    H     0.13260   0.07840   0.17910   0.01267  Uiso   1.00
H14    H     0.10930   0.33800   0.22780   0.01267  Uiso   1.00
H15    H     0.24680   0.25640   0.04470   0.01267  Uiso   1.00
H16    H     0.22760   0.50520   0.21930   0.01267  Uiso   1.00
H17    H     0.26010   0.62280   0.14630   0.01267  Uiso   1.00
H18    H     0.19970   0.36440   0.00280   0.01267  Uiso   1.00
H19    H     0.95820   0.02960   0.24750   0.01267  Uiso   1.00
H20    H     0.94410   0.06260   0.38690   0.01267  Uiso   1.00
H21    H     0.13620   0.31640   0.35560   0.01267  Uiso   1.00
H22    H     0.49200   0.74680   0.85890   0.01267  Uiso   1.00
H23    H     0.50190   0.48340   0.78050   0.01267  Uiso   1.00
H24    H     0.65080   0.69720   0.67990   0.01267  Uiso   1.00
H25    H     0.41900   0.38660   0.47500   0.01267  Uiso   1.00
H26    H     0.25640   0.22740   0.46500   0.01267  Uiso   1.00
H27    H     0.53350   0.20440   0.50720   0.01267  Uiso   1.00
H28    H     0.17790   0.03760   0.41150   0.01267  Uiso   1.00
H29    H     0.16330   0.81440   0.49020   0.01267  Uiso   1.00
H30    H     0.42140   0.08940   0.56900   0.01267  Uiso   1.00
H31    H     0.50730   0.01980   0.61230   0.01267  Uiso   1.00
H32    H     0.35660   0.79640   0.69390   0.01267  Uiso   1.00
H33    H     0.21930   0.78580   0.60150   0.01267  Uiso   1.00
H34    H     0.05420   0.92160   0.32090   0.01267  Uiso   1.00
H35    H     0.77130   0.66200   0.27220   0.01267  Uiso   1.00
H36    H     0.99040   0.74360   0.45530   0.01267  Uiso   1.00
H37    H     0.72240   0.49480   0.28070   0.01267  Uiso   1.00
H38    H     0.63730   0.37720   0.35370   0.01267  Uiso   1.00
H39    H     0.83530   0.63560   0.49720   0.01267  Uiso   1.00
H40    H     0.92860   0.97040   0.25250   0.01267  Uiso   1.00
H41    H     0.88150   0.93740   0.11310   0.01267  Uiso   1.00
H42    H     0.81980   0.68360   0.14440   0.01267  Uiso   1.00
C1     C     0.76367   0.15914   0.73640   0.01267  Uiso   1.00
C2     C     0.83854   0.26128   0.73120   0.01267  Uiso   1.00
C3     C     0.80976   0.29532   0.67560   0.01267  Uiso   1.00
C4     C     0.87564   0.39048   0.67100   0.01267  Uiso   1.00
C5     C     0.83727   0.42794   0.61490   0.01267  Uiso   1.00
C6     C     0.97284   0.45268   0.72270   0.01267  Uiso   1.00
C7     C     0.00191   0.42062   0.77850   0.01267  Uiso   1.00
C8     C     0.93429   0.32478   0.78240   0.01267  Uiso   1.00
C9     C     0.10316   0.48872   0.83590   0.01267  Uiso   1.00
C10    C     0.09226   0.67052   0.01940   0.01267  Uiso   1.00
C11    C     0.08968   0.75816   0.02520   0.01267  Uiso   1.00
C12    C     0.25439   0.76938   0.00180   0.01267  Uiso   1.00
C13    C     0.23356   0.92312   0.01280   0.01267  Uiso   1.00
C14    C     0.19416   0.98592   0.05720   0.01267  Uiso   1.00
C15    C     0.23508   0.08456   0.05520   0.01267  Uiso   1.00
C16    C     0.31767   0.11874   0.00950   0.01267  Uiso   1.00
C17    C     0.35355   0.05370   0.96360   0.01267  Uiso   1.00
C18    C     0.31015   0.95490   0.96350   0.01267  Uiso   1.00
C19    C     0.48972   0.03724   0.87830   0.01267  Uiso   1.00
C20    C     0.52902   0.15904   0.83440   0.01267  Uiso   1.00
C21    C     0.45926   0.16552   0.88500   0.01267  Uiso   1.00
C22    C     0.19412   0.15404   0.10270   0.01267  Uiso   1.00
C23    C     0.14438   0.13636   0.16690   0.01267  Uiso   1.00
C24    C     0.11256   0.20392   0.21220   0.01267  Uiso   1.00
C25    C     0.13026   0.29212   0.19650   0.01267  Uiso   1.00
C26    C     0.18008   0.30936   0.13280   0.01267  Uiso   1.00
C27    C     0.21231   0.24242   0.08690   0.01267  Uiso   1.00
C28    C     0.22544   0.49108   0.16700   0.01267  Uiso   1.00
C29    C     0.24335   0.55550   0.12610   0.01267  Uiso   1.00
C30    C     0.21016   0.41452   0.04750   0.01267  Uiso   1.00
C31    C     0.99320   0.09040   0.28570   0.01267  Uiso   1.00
C32    C     0.98520   0.11040   0.36320   0.01267  Uiso   1.00
C33    C     0.09080   0.24780   0.34570   0.01267  Uiso   1.00
C34    C     0.60453   0.84086   0.76360   0.01267  Uiso   1.00
C35    C     0.57726   0.73872   0.76880   0.01267  Uiso   1.00
C36    C     0.51444   0.70468   0.82440   0.01267  Uiso   1.00
C37    C     0.48516   0.60952   0.82900   0.01267  Uiso   1.00
C38    C     0.40933   0.57206   0.88510   0.01267  Uiso   1.00
C39    C     0.52016   0.54732   0.77730   0.01267  Uiso   1.00
C40    C     0.58129   0.57938   0.72150   0.01267  Uiso   1.00
C41    C     0.60951   0.67522   0.71760   0.01267  Uiso   1.00
C42    C     0.61444   0.51128   0.66410   0.01267  Uiso   1.00
C43    C     0.42174   0.32948   0.48060   0.01267  Uiso   1.00
C44    C     0.33152   0.24184   0.47480   0.01267  Uiso   1.00
C45    C     0.48501   0.23062   0.49820   0.01267  Uiso   1.00
C46    C     0.31044   0.07688   0.48720   0.01267  Uiso   1.00
C47    C     0.20824   0.01408   0.44280   0.01267  Uiso   1.00
C48    C     0.15052   0.91544   0.44480   0.01267  Uiso   1.00
C49    C     0.19893   0.88126   0.49050   0.01267  Uiso   1.00
C50    C     0.29985   0.94630   0.53640   0.01267  Uiso   1.00
C51    C     0.35525   0.04510   0.53650   0.01267  Uiso   1.00
C52    C     0.45248   0.96276   0.62170   0.01267  Uiso   1.00
C53    C     0.36998   0.84096   0.66560   0.01267  Uiso   1.00
C54    C     0.29374   0.83448   0.61500   0.01267  Uiso   1.00
C55    C     0.04008   0.84596   0.39730   0.01267  Uiso   1.00
C56    C     0.00802   0.86364   0.33310   0.01267  Uiso   1.00
C57    C     0.90864   0.79608   0.28780   0.01267  Uiso   1.00
C58    C     0.83814   0.70788   0.30350   0.01267  Uiso   1.00
C59    C     0.87072   0.69064   0.36720   0.01267  Uiso   1.00
C60    C     0.96989   0.75758   0.41310   0.01267  Uiso   1.00
C61    C     0.73436   0.50892   0.33300   0.01267  Uiso   1.00
C62    C     0.68785   0.44450   0.37390   0.01267  Uiso   1.00
C63    C     0.79564   0.58548   0.45250   0.01267  Uiso   1.00
C64    C     0.90280   0.90960   0.21430   0.01267  Uiso   1.00
C65    C     0.87480   0.88960   0.13680   0.01267  Uiso   1.00
C66    C     0.84300   0.75220   0.15430   0.01267  Uiso   1.00
N1     N     0.19578   0.67756   0.00400   0.01267  Uiso   1.00
N2     N     0.19374   0.82148   0.01394   0.01267  Uiso   1.00
N3     N     0.43312   0.08624   0.91329   0.01267  Uiso   1.00
N4     N     0.54842   0.07824   0.82965   0.01267  Uiso   1.00
N5     N     0.20330   0.40080   0.11584   0.01267  Uiso   1.00
N6     N     0.23359   0.50778   0.05089   0.01267  Uiso   1.00
N7     N     0.06812   0.18604   0.27978   0.01267  Uiso   1.00
N8     N     0.04540   0.20760   0.39810   0.01267  Uiso   1.00
N9     N     0.51822   0.32244   0.49600   0.01267  Uiso   1.00
N10    N     0.37226   0.17852   0.48606   0.01267  Uiso   1.00
N11    N     0.34688   0.91376   0.58671   0.01267  Uiso   1.00
N12    N     0.47018   0.92176   0.67035   0.01267  Uiso   1.00
N13    N     0.80250   0.59920   0.38416   0.01267  Uiso   1.00
N14    N     0.72581   0.49222   0.44911   0.01267  Uiso   1.00
N15    N     0.88208   0.81396   0.22022   0.01267  Uiso   1.00
N16    N     0.83780   0.79240   0.10190   0.01267  Uiso   1.00
O1     O     0.11329   0.45898   0.89296   0.01267  Uiso   1.00
O2     O     0.17250   0.56800   0.82789   0.01267  Uiso   1.00
O3     O     0.78898   0.12296   0.78214   0.01267  Uiso   1.00
O4     O     0.67153   0.10966   0.69406   0.01267  Uiso   1.00
O5     O     0.75427   0.36314   0.56519   0.01267  Uiso   1.00
O6     O     0.88029   0.51818   0.62080   0.01267  Uiso   1.00
O7     O     0.65431   0.54102   0.60704   0.01267  Uiso   1.00
O8     O     0.60450   0.43200   0.67211   0.01267  Uiso   1.00
O9     O     0.66602   0.87704   0.71786   0.01267  Uiso   1.00
O10    O     0.56187   0.89034   0.80594   0.01267  Uiso   1.00
O11    O     0.39113   0.63686   0.93481   0.01267  Uiso   1.00
O12    O     0.36211   0.48182   0.87920   0.01267  Uiso   1.00
Co4    Co    0.75695   0.43390   0.03570   0.01267  Uiso   1.00
Co5    Co    0.32305   0.56610   0.46430   0.01267  Uiso   1.00
Co6    Co    0.38584  -0.00000   0.25000   0.01267  Uiso   1.00
H43    H     0.25480   0.74680   0.35890   0.01267  Uiso   1.00
H44    H     0.98150   0.48340   0.28050   0.01267  Uiso   1.00
H45    H     0.04640   0.69720   0.17990   0.01267  Uiso   1.00
H46    H     0.96760   0.38660   0.97500   0.01267  Uiso   1.00
H47    H     0.97100   0.22740   0.96500   0.01267  Uiso   1.00
H48    H     0.67090   0.20440   0.00720   0.01267  Uiso   1.00
H49    H     0.85970   0.03760   0.91150   0.01267  Uiso   1.00
H50    H     0.65110   0.81440   0.99020   0.01267  Uiso   1.00
H51    H     0.66800   0.08940   0.06900   0.01267  Uiso   1.00
H52    H     0.51250   0.01980   0.11230   0.01267  Uiso   1.00
H53    H     0.43980   0.79640   0.19390   0.01267  Uiso   1.00
H54    H     0.56650   0.78580   0.10150   0.01267  Uiso   1.00
H55    H     0.86740   0.92160   0.82090   0.01267  Uiso   1.00
H56    H     0.89070   0.66200   0.77220   0.01267  Uiso   1.00
H57    H     0.75320   0.74360   0.95530   0.01267  Uiso   1.00
H58    H     0.77240   0.49480   0.78070   0.01267  Uiso   1.00
H59    H     0.73990   0.37720   0.85370   0.01267  Uiso   1.00
H60    H     0.80030   0.63560   0.99720   0.01267  Uiso   1.00
H61    H     0.04180   0.97040   0.75250   0.01267  Uiso   1.00
H62    H     0.05590   0.93740   0.61310   0.01267  Uiso   1.00
H63    H     0.86380   0.68360   0.64440   0.01267  Uiso   1.00
H64    H     0.50800   0.25320   0.14110   0.01267  Uiso   1.00
H65    H     0.49810   0.51660   0.21950   0.01267  Uiso   1.00
H66    H     0.34920   0.30280   0.32010   0.01267  Uiso   1.00
H67    H     0.58100   0.61340   0.52500   0.01267  Uiso   1.00
H68    H     0.74360   0.77260   0.53500   0.01267  Uiso   1.00
H69    H     0.46650   0.79560   0.49280   0.01267  Uiso   1.00
H70    H     0.82210   0.96240   0.58850   0.01267  Uiso   1.00
H71    H     0.83670   0.18560   0.50980   0.01267  Uiso   1.00
H72    H     0.57860   0.91060   0.43100   0.01267  Uiso   1.00
H73    H     0.49270   0.98020   0.38770   0.01267  Uiso   1.00
H74    H     0.64340   0.20360   0.30610   0.01267  Uiso   1.00
H75    H     0.78070   0.21420   0.39850   0.01267  Uiso   1.00
H76    H     0.94580   0.07840   0.67910   0.01267  Uiso   1.00
H77    H     0.22870   0.33800   0.72780   0.01267  Uiso   1.00
H78    H     0.00960   0.25640   0.54470   0.01267  Uiso   1.00
H79    H     0.27760   0.50520   0.71930   0.01267  Uiso   1.00
H80    H     0.36270   0.62280   0.64630   0.01267  Uiso   1.00
H81    H     0.16470   0.36440   0.50280   0.01267  Uiso   1.00
H82    H     0.07140   0.02960   0.74750   0.01267  Uiso   1.00
H83    H     0.11850   0.06260   0.88690   0.01267  Uiso   1.00
H84    H     0.18020   0.31640   0.85560   0.01267  Uiso   1.00
C67    C     0.23633   0.84086   0.26360   0.01267  Uiso   1.00
C68    C     0.16146   0.73872   0.26880   0.01267  Uiso   1.00
C69    C     0.19024   0.70468   0.32440   0.01267  Uiso   1.00
C70    C     0.12436   0.60952   0.32900   0.01267  Uiso   1.00
C71    C     0.16273   0.57206   0.38510   0.01267  Uiso   1.00
C72    C     0.02716   0.54732   0.27730   0.01267  Uiso   1.00
C73    C     0.99809   0.57938   0.22150   0.01267  Uiso   1.00
C74    C     0.06571   0.67522   0.21760   0.01267  Uiso   1.00
C75    C     0.89684   0.51128   0.16410   0.01267  Uiso   1.00
C76    C     0.90774   0.32948   0.98060   0.01267  Uiso   1.00
C77    C     0.91032   0.24184   0.97480   0.01267  Uiso   1.00
C78    C     0.74561   0.23062   0.99820   0.01267  Uiso   1.00
C79    C     0.76644   0.07688   0.98720   0.01267  Uiso   1.00
C80    C     0.80584   0.01408   0.94280   0.01267  Uiso   1.00
C81    C     0.76492   0.91544   0.94480   0.01267  Uiso   1.00
C82    C     0.68233   0.88126   0.99050   0.01267  Uiso   1.00
C83    C     0.64645   0.94630   0.03640   0.01267  Uiso   1.00
C84    C     0.68985   0.04510   0.03650   0.01267  Uiso   1.00
C85    C     0.51028   0.96276   0.12170   0.01267  Uiso   1.00
C86    C     0.47098   0.84096   0.16560   0.01267  Uiso   1.00
C87    C     0.54074   0.83448   0.11500   0.01267  Uiso   1.00
C88    C     0.80588   0.84596   0.89730   0.01267  Uiso   1.00
C89    C     0.85562   0.86364   0.83310   0.01267  Uiso   1.00
C90    C     0.88744   0.79608   0.78780   0.01267  Uiso   1.00
C91    C     0.86974   0.70788   0.80350   0.01267  Uiso   1.00
C92    C     0.81992   0.69064   0.86720   0.01267  Uiso   1.00
C93    C     0.78769   0.75758   0.91310   0.01267  Uiso   1.00
C94    C     0.77456   0.50892   0.83300   0.01267  Uiso   1.00
C95    C     0.75665   0.44450   0.87390   0.01267  Uiso   1.00
C96    C     0.78984   0.58548   0.95250   0.01267  Uiso   1.00
C97    C     0.00680   0.90960   0.71430   0.01267  Uiso   1.00
C98    C     0.01480   0.88960   0.63680   0.01267  Uiso   1.00
C99    C     0.90920   0.75220   0.65430   0.01267  Uiso   1.00
C100   C     0.39547   0.15914   0.23640   0.01267  Uiso   1.00
C101   C     0.42274   0.26128   0.23120   0.01267  Uiso   1.00
C102   C     0.48556   0.29532   0.17560   0.01267  Uiso   1.00
C103   C     0.51484   0.39048   0.17100   0.01267  Uiso   1.00
C104   C     0.59067   0.42794   0.11490   0.01267  Uiso   1.00
C105   C     0.47984   0.45268   0.22270   0.01267  Uiso   1.00
C106   C     0.41871   0.42062   0.27850   0.01267  Uiso   1.00
C107   C     0.39049   0.32478   0.28240   0.01267  Uiso   1.00
C108   C     0.38556   0.48872   0.33590   0.01267  Uiso   1.00
C109   C     0.57826   0.67052   0.51940   0.01267  Uiso   1.00
C110   C     0.66848   0.75816   0.52520   0.01267  Uiso   1.00
C111   C     0.51499   0.76938   0.50180   0.01267  Uiso   1.00
C112   C     0.68956   0.92312   0.51280   0.01267  Uiso   1.00
C113   C     0.79176   0.98592   0.55720   0.01267  Uiso   1.00
C114   C     0.84948   0.08456   0.55520   0.01267  Uiso   1.00
C115   C     0.80107   0.11874   0.50950   0.01267  Uiso   1.00
C116   C     0.70015   0.05370   0.46360   0.01267  Uiso   1.00
C117   C     0.64475   0.95490   0.46350   0.01267  Uiso   1.00
C118   C     0.54752   0.03724   0.37830   0.01267  Uiso   1.00
C119   C     0.63002   0.15904   0.33440   0.01267  Uiso   1.00
C120   C     0.70626   0.16552   0.38500   0.01267  Uiso   1.00
C121   C     0.95992   0.15404   0.60270   0.01267  Uiso   1.00
C122   C     0.99198   0.13636   0.66690   0.01267  Uiso   1.00
C123   C     0.09136   0.20392   0.71220   0.01267  Uiso   1.00
C124   C     0.16186   0.29212   0.69650   0.01267  Uiso   1.00
C125   C     0.12928   0.30936   0.63280   0.01267  Uiso   1.00
C126   C     0.03011   0.24242   0.58690   0.01267  Uiso   1.00
C127   C     0.26564   0.49108   0.66700   0.01267  Uiso   1.00
C128   C     0.31215   0.55550   0.62610   0.01267  Uiso   1.00
C129   C     0.20436   0.41452   0.54750   0.01267  Uiso   1.00
C130   C     0.09720   0.09040   0.78570   0.01267  Uiso   1.00
C131   C     0.12520   0.11040   0.86320   0.01267  Uiso   1.00
C132   C     0.15700   0.24780   0.84570   0.01267  Uiso   1.00
N17    N     0.80422   0.32244   0.99600   0.01267  Uiso   1.00
N18    N     0.80626   0.17852   0.98606   0.01267  Uiso   1.00
N19    N     0.56688   0.91376   0.08671   0.01267  Uiso   1.00
N20    N     0.45158   0.92176   0.17035   0.01267  Uiso   1.00
N21    N     0.79670   0.59920   0.88416   0.01267  Uiso   1.00
N22    N     0.76641   0.49222   0.94911   0.01267  Uiso   1.00
N23    N     0.93188   0.81396   0.72022   0.01267  Uiso   1.00
N24    N     0.95460   0.79240   0.60190   0.01267  Uiso   1.00
N25    N     0.48178   0.67756   0.50400   0.01267  Uiso   1.00
N26    N     0.62774   0.82148   0.51394   0.01267  Uiso   1.00
N27    N     0.65312   0.08624   0.41329   0.01267  Uiso   1.00
N28    N     0.52982   0.07824   0.32965   0.01267  Uiso   1.00
N29    N     0.19750   0.40080   0.61584   0.01267  Uiso   1.00
N30    N     0.27419   0.50778   0.55089   0.01267  Uiso   1.00
N31    N     0.11792   0.18604   0.77978   0.01267  Uiso   1.00
N32    N     0.16220   0.20760   0.89810   0.01267  Uiso   1.00
O13    O     0.88671   0.54102   0.10704   0.01267  Uiso   1.00
O14    O     0.82750   0.43200   0.17211   0.01267  Uiso   1.00
O15    O     0.21102   0.87704   0.21786   0.01267  Uiso   1.00
O16    O     0.32847   0.89034   0.30594   0.01267  Uiso   1.00
O17    O     0.24573   0.63686   0.43481   0.01267  Uiso   1.00
O18    O     0.11971   0.48182   0.37920   0.01267  Uiso   1.00
O19    O     0.34569   0.45898   0.39296   0.01267  Uiso   1.00
O20    O     0.39550   0.56800   0.32789   0.01267  Uiso   1.00
O21    O     0.33398   0.12296   0.28214   0.01267  Uiso   1.00
O22    O     0.43813   0.10966   0.19406   0.01267  Uiso   1.00
O23    O     0.60887   0.36314   0.06519   0.01267  Uiso   1.00
O24    O     0.63789   0.51818   0.12080   0.01267  Uiso   1.00
