data_image0
_cell_length_a       28.157
_cell_length_b       16.659
_cell_length_c       14.5584
_cell_angle_alpha    90
_cell_angle_beta     93.284
_cell_angle_gamma    90

_symmetry_space_group_name_H-M    "P 1"
_symmetry_int_tables_number       1

loop_
  _symmetry_equiv_pos_as_xyz
  'x, y, z'

loop_
  _atom_site_label
  _atom_site_occupancy
  _atom_site_fract_x
  _atom_site_fract_y
  _atom_site_fract_z
  _atom_site_thermal_displace_type
  _atom_site_B_iso_or_equiv
  _atom_site_type_symbol
  Zn1      1.0000 0.30158  0.14792  0.64098  Biso   1.000  Zn
  Zn2      1.0000 0.21144  0.24730  0.57495  Biso   1.000  Zn
  O1       1.0000 0.25858  0.07850  0.70480  Biso   1.000  O
  O2       1.0000 0.19425  0.15504  0.67630  Biso   1.000  O
  O3       1.0000 0.17581  0.74023  0.78720  Biso   1.000  O
  O4       1.0000 0.24227  0.80793  0.82580  Biso   1.000  O
  O5       1.0000 0.83645  0.81120  0.51340  Biso   1.000  O
  O6       1.0000 0.80497  0.93380  0.51570  Biso   1.000  O
  O7       1.0000 0.03772  0.07060  0.64720  Biso   1.000  O
  N1       1.0000 0.86187  0.58330  0.63420  Biso   1.000  N
  N2       1.0000 0.15495  0.32020  0.61550  Biso   1.000  N
  N3       1.0000 0.06046  0.94130  0.65800  Biso   1.000  N
  H1       1.0000 0.05000  0.89300  0.65130  Biso   1.000  H
  C1       1.0000 0.97939  0.96950  0.60920  Biso   1.000  C
  C2       1.0000 0.97070  0.89070  0.58710  Biso   1.000  C
  H2       1.0000 0.99570  0.85420  0.59010  Biso   1.000  H
  C3       1.0000 0.92520  0.86430  0.56040  Biso   1.000  C
  H3       1.0000 0.91990  0.81040  0.54660  Biso   1.000  H
  C4       1.0000 0.88796  0.91760  0.55430  Biso   1.000  C
  C5       1.0000 0.89696  0.99660  0.57370  Biso   1.000  C
  H4       1.0000 0.87220  0.03350  0.56850  Biso   1.000  H
  C6       1.0000 0.94232  0.02250  0.60100  Biso   1.000  C
  H5       1.0000 0.94760  0.07660  0.61390  Biso   1.000  H
  C7       1.0000 0.10918  0.94770  0.68690  Biso   1.000  C
  C8       1.0000 0.13558  0.01770  0.68150  Biso   1.000  C
  H6       1.0000 0.12140  0.06470  0.65910  Biso   1.000  H
  C9       1.0000 0.18373  0.01670  0.71000  Biso   1.000  C
  C10      1.0000 0.20480  0.94810  0.74470  Biso   1.000  C
  H7       1.0000 0.23680  0.94870  0.76410  Biso   1.000  H
  C11      1.0000 0.17877  0.87760  0.75110  Biso   1.000  C
  C12      1.0000 0.13079  0.87850  0.72110  Biso   1.000  C
  H8       1.0000 0.11300  0.83160  0.72410  Biso   1.000  H
  C13      1.0000 0.21370  0.08940  0.69560  Biso   1.000  C
  C14      1.0000 0.20108  0.80390  0.79130  Biso   1.000  C
  C15      1.0000 0.83888  0.88640  0.52520  Biso   1.000  C
  C16      1.0000 0.02824  0.99910  0.63960  Biso   1.000  C
  C17      1.0000 0.90408  0.61910  0.63150  Biso   1.000  C
  H9       1.0000 0.90550  0.67490  0.63170  Biso   1.000  H
  C18      1.0000 0.94580  0.57590  0.62840  Biso   1.000  C
  H10      1.0000 0.97480  0.60270  0.62730  Biso   1.000  H
  C19      1.0000 0.94470  0.49370  0.62710  Biso   1.000  C
  C20      1.0000 0.90120  0.45690  0.62830  Biso   1.000  C
  H11      1.0000 0.89900  0.40120  0.62770  Biso   1.000  H
  C21      1.0000 0.86060  0.50340  0.63050  Biso   1.000  C
  H12      1.0000 0.83120  0.47790  0.62940  Biso   1.000  H
  C22      1.0000 0.11260  0.28760  0.62820  Biso   1.000  C
  H13      1.0000 0.11050  0.23210  0.63350  Biso   1.000  H
  C23      1.0000 0.07190  0.33250  0.63370  Biso   1.000  C
  H14      1.0000 0.04310  0.30730  0.64250  Biso   1.000  H
  C24      1.0000 0.07391  0.41610  0.62600  Biso   1.000  C
  C25      1.0000 0.11830  0.44930  0.61720  Biso   1.000  C
  H15      1.0000 0.12190  0.50470  0.61460  Biso   1.000  H
  C26      1.0000 0.15702  0.39980  0.61220  Biso   1.000  C
  H16      1.0000 0.18660  0.42350  0.60630  Biso   1.000  H
  C27      1.0000 0.98750  0.44270  0.62530  Biso   1.000  C
  H17      1.0000 0.98270  0.38750  0.62320  Biso   1.000  H
  C28      1.0000 0.03200  0.46790  0.62630  Biso   1.000  C
  H18      1.0000 0.03710  0.52310  0.62740  Biso   1.000  H
  O8       1.0000 0.26709  0.17449  0.52700  Biso   1.000  O
  Zn3      1.0000 0.80158  0.64792  0.64098  Biso   1.000  Zn
  Zn4      1.0000 0.71144  0.74730  0.57495  Biso   1.000  Zn
  O9       1.0000 0.75858  0.57850  0.70480  Biso   1.000  O
  O10      1.0000 0.69425  0.65504  0.67630  Biso   1.000  O
  O11      1.0000 0.67581  0.24023  0.78720  Biso   1.000  O
  O12      1.0000 0.74227  0.30793  0.82580  Biso   1.000  O
  O13      1.0000 0.33645  0.31120  0.51340  Biso   1.000  O
  O14      1.0000 0.30497  0.43380  0.51570  Biso   1.000  O
  O15      1.0000 0.53772  0.57060  0.64720  Biso   1.000  O
  N4       1.0000 0.36187  0.08330  0.63420  Biso   1.000  N
  N5       1.0000 0.65495  0.82020  0.61550  Biso   1.000  N
  N6       1.0000 0.56046  0.44130  0.65800  Biso   1.000  N
  H19      1.0000 0.55000  0.39300  0.65130  Biso   1.000  H
  C29      1.0000 0.47939  0.46950  0.60920  Biso   1.000  C
  C30      1.0000 0.47070  0.39070  0.58710  Biso   1.000  C
  H20      1.0000 0.49570  0.35420  0.59010  Biso   1.000  H
  C31      1.0000 0.42520  0.36430  0.56040  Biso   1.000  C
  H21      1.0000 0.41990  0.31040  0.54660  Biso   1.000  H
  C32      1.0000 0.38796  0.41760  0.55430  Biso   1.000  C
  C33      1.0000 0.39696  0.49660  0.57370  Biso   1.000  C
  H22      1.0000 0.37220  0.53350  0.56850  Biso   1.000  H
  C34      1.0000 0.44232  0.52250  0.60100  Biso   1.000  C
  H23      1.0000 0.44760  0.57660  0.61390  Biso   1.000  H
  C35      1.0000 0.60918  0.44770  0.68690  Biso   1.000  C
  C36      1.0000 0.63558  0.51770  0.68150  Biso   1.000  C
  H24      1.0000 0.62140  0.56470  0.65910  Biso   1.000  H
  C37      1.0000 0.68373  0.51670  0.71000  Biso   1.000  C
  C38      1.0000 0.70480  0.44810  0.74470  Biso   1.000  C
  H25      1.0000 0.73680  0.44870  0.76410  Biso   1.000  H
  C39      1.0000 0.67877  0.37760  0.75110  Biso   1.000  C
  C40      1.0000 0.63079  0.37850  0.72110  Biso   1.000  C
  H26      1.0000 0.61300  0.33160  0.72410  Biso   1.000  H
  C41      1.0000 0.71370  0.58940  0.69560  Biso   1.000  C
  C42      1.0000 0.70108  0.30390  0.79130  Biso   1.000  C
  C43      1.0000 0.33888  0.38640  0.52520  Biso   1.000  C
  C44      1.0000 0.52824  0.49910  0.63960  Biso   1.000  C
  C45      1.0000 0.40408  0.11910  0.63150  Biso   1.000  C
  H27      1.0000 0.40550  0.17490  0.63170  Biso   1.000  H
  C46      1.0000 0.44580  0.07590  0.62840  Biso   1.000  C
  H28      1.0000 0.47480  0.10270  0.62730  Biso   1.000  H
  C47      1.0000 0.44470  0.99370  0.62710  Biso   1.000  C
  C48      1.0000 0.40120  0.95690  0.62830  Biso   1.000  C
  H29      1.0000 0.39900  0.90120  0.62770  Biso   1.000  H
  C49      1.0000 0.36060  0.00340  0.63050  Biso   1.000  C
  H30      1.0000 0.33120  0.97790  0.62940  Biso   1.000  H
  C50      1.0000 0.61260  0.78760  0.62820  Biso   1.000  C
  H31      1.0000 0.61050  0.73210  0.63350  Biso   1.000  H
  C51      1.0000 0.57190  0.83250  0.63370  Biso   1.000  C
  H32      1.0000 0.54310  0.80730  0.64250  Biso   1.000  H
  C52      1.0000 0.57391  0.91610  0.62600  Biso   1.000  C
  C53      1.0000 0.61830  0.94930  0.61720  Biso   1.000  C
  H33      1.0000 0.62190  0.00470  0.61460  Biso   1.000  H
  C54      1.0000 0.65702  0.89980  0.61220  Biso   1.000  C
  H34      1.0000 0.68660  0.92350  0.60630  Biso   1.000  H
  C55      1.0000 0.48750  0.94270  0.62530  Biso   1.000  C
  H35      1.0000 0.48270  0.88750  0.62320  Biso   1.000  H
  C56      1.0000 0.53200  0.96790  0.62630  Biso   1.000  C
  H36      1.0000 0.53710  0.02310  0.62740  Biso   1.000  H
  O16      1.0000 0.76709  0.67449  0.52700  Biso   1.000  O
  Zn5      1.0000 0.69842  0.14792  0.85902  Biso   1.000  Zn
  Zn6      1.0000 0.78856  0.24730  0.92505  Biso   1.000  Zn
  O17      1.0000 0.74142  0.07850  0.79520  Biso   1.000  O
  O18      1.0000 0.80575  0.15504  0.82370  Biso   1.000  O
  O19      1.0000 0.82419  0.74023  0.71280  Biso   1.000  O
  O20      1.0000 0.75773  0.80793  0.67420  Biso   1.000  O
  O21      1.0000 0.16355  0.81120  0.98660  Biso   1.000  O
  O22      1.0000 0.19503  0.93380  0.98430  Biso   1.000  O
  O23      1.0000 0.96228  0.07060  0.85280  Biso   1.000  O
  N7       1.0000 0.13813  0.58330  0.86580  Biso   1.000  N
  N8       1.0000 0.84505  0.32020  0.88450  Biso   1.000  N
  N9       1.0000 0.93954  0.94130  0.84200  Biso   1.000  N
  H37      1.0000 0.95000  0.89300  0.84870  Biso   1.000  H
  C57      1.0000 0.02061  0.96950  0.89080  Biso   1.000  C
  C58      1.0000 0.02930  0.89070  0.91290  Biso   1.000  C
  H38      1.0000 0.00430  0.85420  0.90990  Biso   1.000  H
  C59      1.0000 0.07480  0.86430  0.93960  Biso   1.000  C
  H39      1.0000 0.08010  0.81040  0.95340  Biso   1.000  H
  C60      1.0000 0.11204  0.91760  0.94570  Biso   1.000  C
  C61      1.0000 0.10304  0.99660  0.92630  Biso   1.000  C
  H40      1.0000 0.12780  0.03350  0.93150  Biso   1.000  H
  C62      1.0000 0.05768  0.02250  0.89900  Biso   1.000  C
  H41      1.0000 0.05240  0.07660  0.88610  Biso   1.000  H
  C63      1.0000 0.89082  0.94770  0.81310  Biso   1.000  C
  C64      1.0000 0.86442  0.01770  0.81850  Biso   1.000  C
  H42      1.0000 0.87860  0.06470  0.84090  Biso   1.000  H
  C65      1.0000 0.81627  0.01670  0.79000  Biso   1.000  C
  C66      1.0000 0.79520  0.94810  0.75530  Biso   1.000  C
  H43      1.0000 0.76320  0.94870  0.73590  Biso   1.000  H
  C67      1.0000 0.82123  0.87760  0.74890  Biso   1.000  C
  C68      1.0000 0.86921  0.87850  0.77890  Biso   1.000  C
  H44      1.0000 0.88700  0.83160  0.77590  Biso   1.000  H
  C69      1.0000 0.78630  0.08940  0.80440  Biso   1.000  C
  C70      1.0000 0.79892  0.80390  0.70870  Biso   1.000  C
  C71      1.0000 0.16112  0.88640  0.97480  Biso   1.000  C
  C72      1.0000 0.97176  0.99910  0.86040  Biso   1.000  C
  C73      1.0000 0.09592  0.61910  0.86850  Biso   1.000  C
  H45      1.0000 0.09450  0.67490  0.86830  Biso   1.000  H
  C74      1.0000 0.05420  0.57590  0.87160  Biso   1.000  C
  H46      1.0000 0.02520  0.60270  0.87270  Biso   1.000  H
  C75      1.0000 0.05530  0.49370  0.87290  Biso   1.000  C
  C76      1.0000 0.09880  0.45690  0.87170  Biso   1.000  C
  H47      1.0000 0.10100  0.40120  0.87230  Biso   1.000  H
  C77      1.0000 0.13940  0.50340  0.86950  Biso   1.000  C
  H48      1.0000 0.16880  0.47790  0.87060  Biso   1.000  H
  C78      1.0000 0.88740  0.28760  0.87180  Biso   1.000  C
  H49      1.0000 0.88950  0.23210  0.86650  Biso   1.000  H
  C79      1.0000 0.92810  0.33250  0.86630  Biso   1.000  C
  H50      1.0000 0.95690  0.30730  0.85750  Biso   1.000  H
  C80      1.0000 0.92609  0.41610  0.87400  Biso   1.000  C
  C81      1.0000 0.88170  0.44930  0.88280  Biso   1.000  C
  H51      1.0000 0.87810  0.50470  0.88540  Biso   1.000  H
  C82      1.0000 0.84298  0.39980  0.88780  Biso   1.000  C
  H52      1.0000 0.81340  0.42350  0.89370  Biso   1.000  H
  C83      1.0000 0.01250  0.44270  0.87470  Biso   1.000  C
  H53      1.0000 0.01730  0.38750  0.87680  Biso   1.000  H
  C84      1.0000 0.96800  0.46790  0.87370  Biso   1.000  C
  H54      1.0000 0.96290  0.52310  0.87260  Biso   1.000  H
  O24      1.0000 0.73291  0.17449  0.97300  Biso   1.000  O
  Zn7      1.0000 0.19842  0.64792  0.85902  Biso   1.000  Zn
  Zn8      1.0000 0.28856  0.74730  0.92505  Biso   1.000  Zn
  O25      1.0000 0.24142  0.57850  0.79520  Biso   1.000  O
  O26      1.0000 0.30575  0.65504  0.82370  Biso   1.000  O
  O27      1.0000 0.32419  0.24023  0.71280  Biso   1.000  O
  O28      1.0000 0.25773  0.30793  0.67420  Biso   1.000  O
  O29      1.0000 0.66355  0.31120  0.98660  Biso   1.000  O
  O30      1.0000 0.69503  0.43380  0.98430  Biso   1.000  O
  O31      1.0000 0.46228  0.57060  0.85280  Biso   1.000  O
  N10      1.0000 0.63813  0.08330  0.86580  Biso   1.000  N
  N11      1.0000 0.34505  0.82020  0.88450  Biso   1.000  N
  N12      1.0000 0.43954  0.44130  0.84200  Biso   1.000  N
  H55      1.0000 0.45000  0.39300  0.84870  Biso   1.000  H
  C85      1.0000 0.52061  0.46950  0.89080  Biso   1.000  C
  C86      1.0000 0.52930  0.39070  0.91290  Biso   1.000  C
  H56      1.0000 0.50430  0.35420  0.90990  Biso   1.000  H
  C87      1.0000 0.57480  0.36430  0.93960  Biso   1.000  C
  H57      1.0000 0.58010  0.31040  0.95340  Biso   1.000  H
  C88      1.0000 0.61204  0.41760  0.94570  Biso   1.000  C
  C89      1.0000 0.60304  0.49660  0.92630  Biso   1.000  C
  H58      1.0000 0.62780  0.53350  0.93150  Biso   1.000  H
  C90      1.0000 0.55768  0.52250  0.89900  Biso   1.000  C
  H59      1.0000 0.55240  0.57660  0.88610  Biso   1.000  H
  C91      1.0000 0.39082  0.44770  0.81310  Biso   1.000  C
  C92      1.0000 0.36442  0.51770  0.81850  Biso   1.000  C
  H60      1.0000 0.37860  0.56470  0.84090  Biso   1.000  H
  C93      1.0000 0.31627  0.51670  0.79000  Biso   1.000  C
  C94      1.0000 0.29520  0.44810  0.75530  Biso   1.000  C
  H61      1.0000 0.26320  0.44870  0.73590  Biso   1.000  H
  C95      1.0000 0.32123  0.37760  0.74890  Biso   1.000  C
  C96      1.0000 0.36921  0.37850  0.77890  Biso   1.000  C
  H62      1.0000 0.38700  0.33160  0.77590  Biso   1.000  H
  C97      1.0000 0.28630  0.58940  0.80440  Biso   1.000  C
  C98      1.0000 0.29892  0.30390  0.70870  Biso   1.000  C
  C99      1.0000 0.66112  0.38640  0.97480  Biso   1.000  C
  C100     1.0000 0.47176  0.49910  0.86040  Biso   1.000  C
  C101     1.0000 0.59592  0.11910  0.86850  Biso   1.000  C
  H63      1.0000 0.59450  0.17490  0.86830  Biso   1.000  H
  C102     1.0000 0.55420  0.07590  0.87160  Biso   1.000  C
  H64      1.0000 0.52520  0.10270  0.87270  Biso   1.000  H
  C103     1.0000 0.55530  0.99370  0.87290  Biso   1.000  C
  C104     1.0000 0.59880  0.95690  0.87170  Biso   1.000  C
  H65      1.0000 0.60100  0.90120  0.87230  Biso   1.000  H
  C105     1.0000 0.63940  0.00340  0.86950  Biso   1.000  C
  H66      1.0000 0.66880  0.97790  0.87060  Biso   1.000  H
  C106     1.0000 0.38740  0.78760  0.87180  Biso   1.000  C
  H67      1.0000 0.38950  0.73210  0.86650  Biso   1.000  H
  C107     1.0000 0.42810  0.83250  0.86630  Biso   1.000  C
  H68      1.0000 0.45690  0.80730  0.85750  Biso   1.000  H
  C108     1.0000 0.42609  0.91610  0.87400  Biso   1.000  C
  C109     1.0000 0.38170  0.94930  0.88280  Biso   1.000  C
  H69      1.0000 0.37810  0.00470  0.88540  Biso   1.000  H
  C110     1.0000 0.34298  0.89980  0.88780  Biso   1.000  C
  H70      1.0000 0.31340  0.92350  0.89370  Biso   1.000  H
  C111     1.0000 0.51250  0.94270  0.87470  Biso   1.000  C
  H71      1.0000 0.51730  0.88750  0.87680  Biso   1.000  H
  C112     1.0000 0.46800  0.96790  0.87370  Biso   1.000  C
  H72      1.0000 0.46290  0.02310  0.87260  Biso   1.000  H
  O32      1.0000 0.23291  0.67449  0.97300  Biso   1.000  O
  Zn9      1.0000 0.69842  0.85208  0.35902  Biso   1.000  Zn
  Zn10     1.0000 0.78856  0.75270  0.42505  Biso   1.000  Zn
  O33      1.0000 0.74142  0.92150  0.29520  Biso   1.000  O
  O34      1.0000 0.80575  0.84496  0.32370  Biso   1.000  O
  O35      1.0000 0.82419  0.25977  0.21280  Biso   1.000  O
  O36      1.0000 0.75773  0.19207  0.17420  Biso   1.000  O
  O37      1.0000 0.16355  0.18880  0.48660  Biso   1.000  O
  O38      1.0000 0.19503  0.06620  0.48430  Biso   1.000  O
  O39      1.0000 0.96228  0.92940  0.35280  Biso   1.000  O
  N13      1.0000 0.13813  0.41670  0.36580  Biso   1.000  N
  N14      1.0000 0.84505  0.67980  0.38450  Biso   1.000  N
  N15      1.0000 0.93954  0.05870  0.34200  Biso   1.000  N
  H73      1.0000 0.95000  0.10700  0.34870  Biso   1.000  H
  C113     1.0000 0.02061  0.03050  0.39080  Biso   1.000  C
  C114     1.0000 0.02930  0.10930  0.41290  Biso   1.000  C
  H74      1.0000 0.00430  0.14580  0.40990  Biso   1.000  H
  C115     1.0000 0.07480  0.13570  0.43960  Biso   1.000  C
  H75      1.0000 0.08010  0.18960  0.45340  Biso   1.000  H
  C116     1.0000 0.11204  0.08240  0.44570  Biso   1.000  C
  C117     1.0000 0.10304  0.00340  0.42630  Biso   1.000  C
  H76      1.0000 0.12780  0.96650  0.43150  Biso   1.000  H
  C118     1.0000 0.05768  0.97750  0.39900  Biso   1.000  C
  H77      1.0000 0.05240  0.92340  0.38610  Biso   1.000  H
  C119     1.0000 0.89082  0.05230  0.31310  Biso   1.000  C
  C120     1.0000 0.86442  0.98230  0.31850  Biso   1.000  C
  H78      1.0000 0.87860  0.93530  0.34090  Biso   1.000  H
  C121     1.0000 0.81627  0.98330  0.29000  Biso   1.000  C
  C122     1.0000 0.79520  0.05190  0.25530  Biso   1.000  C
  H79      1.0000 0.76320  0.05130  0.23590  Biso   1.000  H
  C123     1.0000 0.82123  0.12240  0.24890  Biso   1.000  C
  C124     1.0000 0.86921  0.12150  0.27890  Biso   1.000  C
  H80      1.0000 0.88700  0.16840  0.27590  Biso   1.000  H
  C125     1.0000 0.78630  0.91060  0.30440  Biso   1.000  C
  C126     1.0000 0.79892  0.19610  0.20870  Biso   1.000  C
  C127     1.0000 0.16112  0.11360  0.47480  Biso   1.000  C
  C128     1.0000 0.97176  0.00090  0.36040  Biso   1.000  C
  C129     1.0000 0.09592  0.38090  0.36850  Biso   1.000  C
  H81      1.0000 0.09450  0.32510  0.36830  Biso   1.000  H
  C130     1.0000 0.05420  0.42410  0.37160  Biso   1.000  C
  H82      1.0000 0.02520  0.39730  0.37270  Biso   1.000  H
  C131     1.0000 0.05530  0.50630  0.37290  Biso   1.000  C
  C132     1.0000 0.09880  0.54310  0.37170  Biso   1.000  C
  H83      1.0000 0.10100  0.59880  0.37230  Biso   1.000  H
  C133     1.0000 0.13940  0.49660  0.36950  Biso   1.000  C
  H84      1.0000 0.16880  0.52210  0.37060  Biso   1.000  H
  C134     1.0000 0.88740  0.71240  0.37180  Biso   1.000  C
  H85      1.0000 0.88950  0.76790  0.36650  Biso   1.000  H
  C135     1.0000 0.92810  0.66750  0.36630  Biso   1.000  C
  H86      1.0000 0.95690  0.69270  0.35750  Biso   1.000  H
  C136     1.0000 0.92609  0.58390  0.37400  Biso   1.000  C
  C137     1.0000 0.88170  0.55070  0.38280  Biso   1.000  C
  H87      1.0000 0.87810  0.49530  0.38540  Biso   1.000  H
  C138     1.0000 0.84298  0.60020  0.38780  Biso   1.000  C
  H88      1.0000 0.81340  0.57650  0.39370  Biso   1.000  H
  C139     1.0000 0.01250  0.55730  0.37470  Biso   1.000  C
  H89      1.0000 0.01730  0.61250  0.37680  Biso   1.000  H
  C140     1.0000 0.96800  0.53210  0.37370  Biso   1.000  C
  H90      1.0000 0.96290  0.47690  0.37260  Biso   1.000  H
  O40      1.0000 0.73291  0.82551  0.47300  Biso   1.000  O
  Zn11     1.0000 0.19842  0.35208  0.35902  Biso   1.000  Zn
  Zn12     1.0000 0.28856  0.25270  0.42505  Biso   1.000  Zn
  O41      1.0000 0.24142  0.42150  0.29520  Biso   1.000  O
  O42      1.0000 0.30575  0.34496  0.32370  Biso   1.000  O
  O43      1.0000 0.32419  0.75977  0.21280  Biso   1.000  O
  O44      1.0000 0.25773  0.69207  0.17420  Biso   1.000  O
  O45      1.0000 0.66355  0.68880  0.48660  Biso   1.000  O
  O46      1.0000 0.69503  0.56620  0.48430  Biso   1.000  O
  O47      1.0000 0.46228  0.42940  0.35280  Biso   1.000  O
  N16      1.0000 0.63813  0.91670  0.36580  Biso   1.000  N
  N17      1.0000 0.34505  0.17980  0.38450  Biso   1.000  N
  N18      1.0000 0.43954  0.55870  0.34200  Biso   1.000  N
  H91      1.0000 0.45000  0.60700  0.34870  Biso   1.000  H
  C141     1.0000 0.52061  0.53050  0.39080  Biso   1.000  C
  C142     1.0000 0.52930  0.60930  0.41290  Biso   1.000  C
  H92      1.0000 0.50430  0.64580  0.40990  Biso   1.000  H
  C143     1.0000 0.57480  0.63570  0.43960  Biso   1.000  C
  H93      1.0000 0.58010  0.68960  0.45340  Biso   1.000  H
  C144     1.0000 0.61204  0.58240  0.44570  Biso   1.000  C
  C145     1.0000 0.60304  0.50340  0.42630  Biso   1.000  C
  H94      1.0000 0.62780  0.46650  0.43150  Biso   1.000  H
  C146     1.0000 0.55768  0.47750  0.39900  Biso   1.000  C
  H95      1.0000 0.55240  0.42340  0.38610  Biso   1.000  H
  C147     1.0000 0.39082  0.55230  0.31310  Biso   1.000  C
  C148     1.0000 0.36442  0.48230  0.31850  Biso   1.000  C
  H96      1.0000 0.37860  0.43530  0.34090  Biso   1.000  H
  C149     1.0000 0.31627  0.48330  0.29000  Biso   1.000  C
  C150     1.0000 0.29520  0.55190  0.25530  Biso   1.000  C
  H97      1.0000 0.26320  0.55130  0.23590  Biso   1.000  H
  C151     1.0000 0.32123  0.62240  0.24890  Biso   1.000  C
  C152     1.0000 0.36921  0.62150  0.27890  Biso   1.000  C
  H98      1.0000 0.38700  0.66840  0.27590  Biso   1.000  H
  C153     1.0000 0.28630  0.41060  0.30440  Biso   1.000  C
  C154     1.0000 0.29892  0.69610  0.20870  Biso   1.000  C
  C155     1.0000 0.66112  0.61360  0.47480  Biso   1.000  C
  C156     1.0000 0.47176  0.50090  0.36040  Biso   1.000  C
  C157     1.0000 0.59592  0.88090  0.36850  Biso   1.000  C
  H99      1.0000 0.59450  0.82510  0.36830  Biso   1.000  H
  C158     1.0000 0.55420  0.92410  0.37160  Biso   1.000  C
  H100     1.0000 0.52520  0.89730  0.37270  Biso   1.000  H
  C159     1.0000 0.55530  0.00630  0.37290  Biso   1.000  C
  C160     1.0000 0.59880  0.04310  0.37170  Biso   1.000  C
  H101     1.0000 0.60100  0.09880  0.37230  Biso   1.000  H
  C161     1.0000 0.63940  0.99660  0.36950  Biso   1.000  C
  H102     1.0000 0.66880  0.02210  0.37060  Biso   1.000  H
  C162     1.0000 0.38740  0.21240  0.37180  Biso   1.000  C
  H103     1.0000 0.38950  0.26790  0.36650  Biso   1.000  H
  C163     1.0000 0.42810  0.16750  0.36630  Biso   1.000  C
  H104     1.0000 0.45690  0.19270  0.35750  Biso   1.000  H
  C164     1.0000 0.42609  0.08390  0.37400  Biso   1.000  C
  C165     1.0000 0.38170  0.05070  0.38280  Biso   1.000  C
  H105     1.0000 0.37810  0.99530  0.38540  Biso   1.000  H
  C166     1.0000 0.34298  0.10020  0.38780  Biso   1.000  C
  H106     1.0000 0.31340  0.07650  0.39370  Biso   1.000  H
  C167     1.0000 0.51250  0.05730  0.37470  Biso   1.000  C
  H107     1.0000 0.51730  0.11250  0.37680  Biso   1.000  H
  C168     1.0000 0.46800  0.03210  0.37370  Biso   1.000  C
  H108     1.0000 0.46290  0.97690  0.37260  Biso   1.000  H
  O48      1.0000 0.23291  0.32551  0.47300  Biso   1.000  O
  Zn13     1.0000 0.30158  0.85208  0.14098  Biso   1.000  Zn
  Zn14     1.0000 0.21144  0.75270  0.07495  Biso   1.000  Zn
  O49      1.0000 0.25858  0.92150  0.20480  Biso   1.000  O
  O50      1.0000 0.19425  0.84496  0.17630  Biso   1.000  O
  O51      1.0000 0.17581  0.25977  0.28720  Biso   1.000  O
  O52      1.0000 0.24227  0.19207  0.32580  Biso   1.000  O
  O53      1.0000 0.83645  0.18880  0.01340  Biso   1.000  O
  O54      1.0000 0.80497  0.06620  0.01570  Biso   1.000  O
  O55      1.0000 0.03772  0.92940  0.14720  Biso   1.000  O
  N19      1.0000 0.86187  0.41670  0.13420  Biso   1.000  N
  N20      1.0000 0.15495  0.67980  0.11550  Biso   1.000  N
  N21      1.0000 0.06046  0.05870  0.15800  Biso   1.000  N
  H109     1.0000 0.05000  0.10700  0.15130  Biso   1.000  H
  C169     1.0000 0.97939  0.03050  0.10920  Biso   1.000  C
  C170     1.0000 0.97070  0.10930  0.08710  Biso   1.000  C
  H110     1.0000 0.99570  0.14580  0.09010  Biso   1.000  H
  C171     1.0000 0.92520  0.13570  0.06040  Biso   1.000  C
  H111     1.0000 0.91990  0.18960  0.04660  Biso   1.000  H
  C172     1.0000 0.88796  0.08240  0.05430  Biso   1.000  C
  C173     1.0000 0.89696  0.00340  0.07370  Biso   1.000  C
  H112     1.0000 0.87220  0.96650  0.06850  Biso   1.000  H
  C174     1.0000 0.94232  0.97750  0.10100  Biso   1.000  C
  H113     1.0000 0.94760  0.92340  0.11390  Biso   1.000  H
  C175     1.0000 0.10918  0.05230  0.18690  Biso   1.000  C
  C176     1.0000 0.13558  0.98230  0.18150  Biso   1.000  C
  H114     1.0000 0.12140  0.93530  0.15910  Biso   1.000  H
  C177     1.0000 0.18373  0.98330  0.21000  Biso   1.000  C
  C178     1.0000 0.20480  0.05190  0.24470  Biso   1.000  C
  H115     1.0000 0.23680  0.05130  0.26410  Biso   1.000  H
  C179     1.0000 0.17877  0.12240  0.25110  Biso   1.000  C
  C180     1.0000 0.13079  0.12150  0.22110  Biso   1.000  C
  H116     1.0000 0.11300  0.16840  0.22410  Biso   1.000  H
  C181     1.0000 0.21370  0.91060  0.19560  Biso   1.000  C
  C182     1.0000 0.20108  0.19610  0.29130  Biso   1.000  C
  C183     1.0000 0.83888  0.11360  0.02520  Biso   1.000  C
  C184     1.0000 0.02824  0.00090  0.13960  Biso   1.000  C
  C185     1.0000 0.90408  0.38090  0.13150  Biso   1.000  C
  H117     1.0000 0.90550  0.32510  0.13170  Biso   1.000  H
  C186     1.0000 0.94580  0.42410  0.12840  Biso   1.000  C
  H118     1.0000 0.97480  0.39730  0.12730  Biso   1.000  H
  C187     1.0000 0.94470  0.50630  0.12710  Biso   1.000  C
  C188     1.0000 0.90120  0.54310  0.12830  Biso   1.000  C
  H119     1.0000 0.89900  0.59880  0.12770  Biso   1.000  H
  C189     1.0000 0.86060  0.49660  0.13050  Biso   1.000  C
  H120     1.0000 0.83120  0.52210  0.12940  Biso   1.000  H
  C190     1.0000 0.11260  0.71240  0.12820  Biso   1.000  C
  H121     1.0000 0.11050  0.76790  0.13350  Biso   1.000  H
  C191     1.0000 0.07190  0.66750  0.13370  Biso   1.000  C
  H122     1.0000 0.04310  0.69270  0.14250  Biso   1.000  H
  C192     1.0000 0.07391  0.58390  0.12600  Biso   1.000  C
  C193     1.0000 0.11830  0.55070  0.11720  Biso   1.000  C
  H123     1.0000 0.12190  0.49530  0.11460  Biso   1.000  H
  C194     1.0000 0.15702  0.60020  0.11220  Biso   1.000  C
  H124     1.0000 0.18660  0.57650  0.10630  Biso   1.000  H
  C195     1.0000 0.98750  0.55730  0.12530  Biso   1.000  C
  H125     1.0000 0.98270  0.61250  0.12320  Biso   1.000  H
  C196     1.0000 0.03200  0.53210  0.12630  Biso   1.000  C
  H126     1.0000 0.03710  0.47690  0.12740  Biso   1.000  H
  O56      1.0000 0.26709  0.82551  0.02700  Biso   1.000  O
  Zn15     1.0000 0.80158  0.35208  0.14098  Biso   1.000  Zn
  Zn16     1.0000 0.71144  0.25270  0.07495  Biso   1.000  Zn
  O57      1.0000 0.75858  0.42150  0.20480  Biso   1.000  O
  O58      1.0000 0.69425  0.34496  0.17630  Biso   1.000  O
  O59      1.0000 0.67581  0.75977  0.28720  Biso   1.000  O
  O60      1.0000 0.74227  0.69207  0.32580  Biso   1.000  O
  O61      1.0000 0.33645  0.68880  0.01340  Biso   1.000  O
  O62      1.0000 0.30497  0.56620  0.01570  Biso   1.000  O
  O63      1.0000 0.53772  0.42940  0.14720  Biso   1.000  O
  N22      1.0000 0.36187  0.91670  0.13420  Biso   1.000  N
  N23      1.0000 0.65495  0.17980  0.11550  Biso   1.000  N
  N24      1.0000 0.56046  0.55870  0.15800  Biso   1.000  N
  H127     1.0000 0.55000  0.60700  0.15130  Biso   1.000  H
  C197     1.0000 0.47939  0.53050  0.10920  Biso   1.000  C
  C198     1.0000 0.47070  0.60930  0.08710  Biso   1.000  C
  H128     1.0000 0.49570  0.64580  0.09010  Biso   1.000  H
  C199     1.0000 0.42520  0.63570  0.06040  Biso   1.000  C
  H129     1.0000 0.41990  0.68960  0.04660  Biso   1.000  H
  C200     1.0000 0.38796  0.58240  0.05430  Biso   1.000  C
  C201     1.0000 0.39696  0.50340  0.07370  Biso   1.000  C
  H130     1.0000 0.37220  0.46650  0.06850  Biso   1.000  H
  C202     1.0000 0.44232  0.47750  0.10100  Biso   1.000  C
  H131     1.0000 0.44760  0.42340  0.11390  Biso   1.000  H
  C203     1.0000 0.60918  0.55230  0.18690  Biso   1.000  C
  C204     1.0000 0.63558  0.48230  0.18150  Biso   1.000  C
  H132     1.0000 0.62140  0.43530  0.15910  Biso   1.000  H
  C205     1.0000 0.68373  0.48330  0.21000  Biso   1.000  C
  C206     1.0000 0.70480  0.55190  0.24470  Biso   1.000  C
  H133     1.0000 0.73680  0.55130  0.26410  Biso   1.000  H
  C207     1.0000 0.67877  0.62240  0.25110  Biso   1.000  C
  C208     1.0000 0.63079  0.62150  0.22110  Biso   1.000  C
  H134     1.0000 0.61300  0.66840  0.22410  Biso   1.000  H
  C209     1.0000 0.71370  0.41060  0.19560  Biso   1.000  C
  C210     1.0000 0.70108  0.69610  0.29130  Biso   1.000  C
  C211     1.0000 0.33888  0.61360  0.02520  Biso   1.000  C
  C212     1.0000 0.52824  0.50090  0.13960  Biso   1.000  C
  C213     1.0000 0.40408  0.88090  0.13150  Biso   1.000  C
  H135     1.0000 0.40550  0.82510  0.13170  Biso   1.000  H
  C214     1.0000 0.44580  0.92410  0.12840  Biso   1.000  C
  H136     1.0000 0.47480  0.89730  0.12730  Biso   1.000  H
  C215     1.0000 0.44470  0.00630  0.12710  Biso   1.000  C
  C216     1.0000 0.40120  0.04310  0.12830  Biso   1.000  C
  H137     1.0000 0.39900  0.09880  0.12770  Biso   1.000  H
  C217     1.0000 0.36060  0.99660  0.13050  Biso   1.000  C
  H138     1.0000 0.33120  0.02210  0.12940  Biso   1.000  H
  C218     1.0000 0.61260  0.21240  0.12820  Biso   1.000  C
  H139     1.0000 0.61050  0.26790  0.13350  Biso   1.000  H
  C219     1.0000 0.57190  0.16750  0.13370  Biso   1.000  C
  H140     1.0000 0.54310  0.19270  0.14250  Biso   1.000  H
  C220     1.0000 0.57391  0.08390  0.12600  Biso   1.000  C
  C221     1.0000 0.61830  0.05070  0.11720  Biso   1.000  C
  H141     1.0000 0.62190  0.99530  0.11460  Biso   1.000  H
  C222     1.0000 0.65702  0.10020  0.11220  Biso   1.000  C
  H142     1.0000 0.68660  0.07650  0.10630  Biso   1.000  H
  C223     1.0000 0.48750  0.05730  0.12530  Biso   1.000  C
  H143     1.0000 0.48270  0.11250  0.12320  Biso   1.000  H
  C224     1.0000 0.53200  0.03210  0.12630  Biso   1.000  C
  H144     1.0000 0.53710  0.97690  0.12740  Biso   1.000  H
  O64      1.0000 0.76709  0.32551  0.02700  Biso   1.000  O
