data_ZIKJIO_clean
_audit_creation_date              2014-07-02
_audit_creation_method            'Materials Studio'
_symmetry_space_group_name_H-M    'P1'
_symmetry_Int_Tables_number       1
_symmetry_cell_setting            triclinic
loop_
_symmetry_equiv_pos_as_xyz
  x,y,z
_cell_length_a                    11.4269
_cell_length_b                    11.4269
_cell_length_c                    18.8731
_cell_angle_alpha                 94.7584
_cell_angle_beta                  94.7584
_cell_angle_gamma                 96.7219
loop_
_atom_site_label
_atom_site_type_symbol
_atom_site_fract_x
_atom_site_fract_y
_atom_site_fract_z
_atom_site_U_iso_or_equiv
_atom_site_adp_type
_atom_site_occupancy
Cu1    Cu    0.97181   0.09550   0.47205   0.01267  Uiso   1.00
Cu2    Cu    0.90450   0.02819   0.02795   0.01267  Uiso   1.00
Cu3    Cu    0.02819   0.90450   0.52795   0.01267  Uiso   1.00
Cu4    Cu    0.09550   0.97181   0.97205   0.01267  Uiso   1.00
H1     H     0.77060   0.21500   0.64170   0.01267  Uiso   1.00
H2     H     0.30580   0.32420   0.53070   0.01267  Uiso   1.00
H3     H     0.48440   0.42560   0.58590   0.01267  Uiso   1.00
H4     H     0.52990   0.14990   0.70170   0.01267  Uiso   1.00
H5     H     0.62510   0.44930   0.69750   0.01267  Uiso   1.00
H6     H     0.69940   0.36580   0.65150   0.01267  Uiso   1.00
H7     H     0.35410   0.04690   0.64560   0.01267  Uiso   1.00
H8     H     0.78500   0.22940   0.85830   0.01267  Uiso   1.00
H9     H     0.67580   0.69420   0.96930   0.01267  Uiso   1.00
H10    H     0.57440   0.51560   0.91410   0.01267  Uiso   1.00
H11    H     0.85010   0.47010   0.79830   0.01267  Uiso   1.00
H12    H     0.55070   0.37490   0.80250   0.01267  Uiso   1.00
H13    H     0.63420   0.30060   0.84850   0.01267  Uiso   1.00
H14    H     0.95310   0.64590   0.85440   0.01267  Uiso   1.00
H15    H     0.22940   0.78500   0.35830   0.01267  Uiso   1.00
H16    H     0.69420   0.67580   0.46930   0.01267  Uiso   1.00
H17    H     0.51560   0.57440   0.41410   0.01267  Uiso   1.00
H18    H     0.47010   0.85010   0.29830   0.01267  Uiso   1.00
H19    H     0.37490   0.55070   0.30250   0.01267  Uiso   1.00
H20    H     0.30060   0.63420   0.34850   0.01267  Uiso   1.00
H21    H     0.64590   0.95310   0.35440   0.01267  Uiso   1.00
H22    H     0.21500   0.77060   0.14170   0.01267  Uiso   1.00
H23    H     0.32420   0.30580   0.03070   0.01267  Uiso   1.00
H24    H     0.42560   0.48440   0.08590   0.01267  Uiso   1.00
H25    H     0.14990   0.52990   0.20170   0.01267  Uiso   1.00
H26    H     0.44930   0.62510   0.19750   0.01267  Uiso   1.00
H27    H     0.36580   0.69940   0.15150   0.01267  Uiso   1.00
H28    H     0.04690   0.35410   0.14560   0.01267  Uiso   1.00
H29    H     0.98360   0.01640   0.75000   0.01267  Uiso   1.00
H30    H     0.01640   0.98360   0.25000   0.01267  Uiso   1.00
C1     C     0.80062   0.19068   0.68580   0.01267  Uiso   1.00
C2     C     0.88149   0.10947   0.68600   0.01267  Uiso   1.00
C3     C     0.19727   0.10959   0.54992   0.01267  Uiso   1.00
C4     C     0.52389   0.29779   0.64991   0.01267  Uiso   1.00
C5     C     0.31135   0.17607   0.58353   0.01267  Uiso   1.00
C6     C     0.35104   0.28852   0.56552   0.01267  Uiso   1.00
C7     C     0.45734   0.34904   0.59854   0.01267  Uiso   1.00
C8     C     0.48461   0.18559   0.66696   0.01267  Uiso   1.00
C9     C     0.63809   0.36605   0.68569   0.01267  Uiso   1.00
C10    C     0.37958   0.12446   0.63386   0.01267  Uiso   1.00
C11    C     0.92170   0.06366   0.61677   0.01267  Uiso   1.00
C12    C     0.80932   0.19938   0.81420   0.01267  Uiso   1.00
C13    C     0.89053   0.11851   0.81400   0.01267  Uiso   1.00
C14    C     0.89041   0.80273   0.95008   0.01267  Uiso   1.00
C15    C     0.70221   0.47611   0.85009   0.01267  Uiso   1.00
C16    C     0.82393   0.68865   0.91647   0.01267  Uiso   1.00
C17    C     0.71148   0.64896   0.93448   0.01267  Uiso   1.00
C18    C     0.65096   0.54266   0.90146   0.01267  Uiso   1.00
C19    C     0.81441   0.51539   0.83304   0.01267  Uiso   1.00
C20    C     0.63395   0.36191   0.81431   0.01267  Uiso   1.00
C21    C     0.87554   0.62042   0.86614   0.01267  Uiso   1.00
C22    C     0.93634   0.07830   0.88323   0.01267  Uiso   1.00
C23    C     0.19938   0.80932   0.31420   0.01267  Uiso   1.00
C24    C     0.11851   0.89053   0.31400   0.01267  Uiso   1.00
C25    C     0.80273   0.89041   0.45008   0.01267  Uiso   1.00
C26    C     0.47611   0.70221   0.35009   0.01267  Uiso   1.00
C27    C     0.68865   0.82393   0.41647   0.01267  Uiso   1.00
C28    C     0.64896   0.71148   0.43448   0.01267  Uiso   1.00
C29    C     0.54266   0.65096   0.40146   0.01267  Uiso   1.00
C30    C     0.51539   0.81441   0.33304   0.01267  Uiso   1.00
C31    C     0.36191   0.63395   0.31431   0.01267  Uiso   1.00
C32    C     0.62042   0.87554   0.36614   0.01267  Uiso   1.00
C33    C     0.07830   0.93634   0.38323   0.01267  Uiso   1.00
C34    C     0.19068   0.80062   0.18580   0.01267  Uiso   1.00
C35    C     0.10947   0.88149   0.18600   0.01267  Uiso   1.00
C36    C     0.10959   0.19727   0.04992   0.01267  Uiso   1.00
C37    C     0.29779   0.52389   0.14991   0.01267  Uiso   1.00
C38    C     0.17607   0.31135   0.08353   0.01267  Uiso   1.00
C39    C     0.28852   0.35104   0.06552   0.01267  Uiso   1.00
C40    C     0.34904   0.45734   0.09854   0.01267  Uiso   1.00
C41    C     0.18559   0.48461   0.16696   0.01267  Uiso   1.00
C42    C     0.36605   0.63809   0.18569   0.01267  Uiso   1.00
C43    C     0.12446   0.37958   0.13386   0.01267  Uiso   1.00
C44    C     0.06366   0.92170   0.11677   0.01267  Uiso   1.00
C45    C     0.76216   0.23784   0.75000   0.01267  Uiso   1.00
C46    C     0.92797   0.07203   0.75000   0.01267  Uiso   1.00
C47    C     0.23784   0.76216   0.25000   0.01267  Uiso   1.00
C48    C     0.07203   0.92797   0.25000   0.01267  Uiso   1.00
N1     N     0.68140   0.31860   0.75000   0.01267  Uiso   1.00
N2     N     0.31860   0.68140   0.25000   0.01267  Uiso   1.00
O1     O     0.91231   0.12765   0.56597   0.01267  Uiso   1.00
O2     O     0.13085   0.16683   0.51260   0.01267  Uiso   1.00
O3     O     0.17632   0.00316   0.56135   0.01267  Uiso   1.00
O4     O     0.96285   0.96631   0.61469   0.01267  Uiso   1.00
O5     O     0.87235   0.08769   0.93403   0.01267  Uiso   1.00
O6     O     0.83317   0.86915   0.98740   0.01267  Uiso   1.00
O7     O     0.99684   0.82368   0.93865   0.01267  Uiso   1.00
O8     O     0.03369   0.03715   0.88531   0.01267  Uiso   1.00
O9     O     0.08769   0.87235   0.43403   0.01267  Uiso   1.00
O10    O     0.86915   0.83317   0.48740   0.01267  Uiso   1.00
O11    O     0.82368   0.99684   0.43865   0.01267  Uiso   1.00
O12    O     0.03715   0.03369   0.38531   0.01267  Uiso   1.00
O13    O     0.12765   0.91231   0.06597   0.01267  Uiso   1.00
O14    O     0.16683   0.13085   0.01260   0.01267  Uiso   1.00
O15    O     0.00316   0.17632   0.06135   0.01267  Uiso   1.00
O16    O     0.96631   0.96285   0.11469   0.01267  Uiso   1.00
