data_ZIKJOU_clean
_audit_creation_date              2014-07-02
_audit_creation_method            'Materials Studio'
_symmetry_space_group_name_H-M    'P1'
_symmetry_Int_Tables_number       1
_symmetry_cell_setting            triclinic
loop_
_symmetry_equiv_pos_as_xyz
  x,y,z
_cell_length_a                    10.6325
_cell_length_b                    10.7258
_cell_length_c                    18.3532
_cell_angle_alpha                 76.6710
_cell_angle_beta                  86.7170
_cell_angle_gamma                 74.2780
loop_
_atom_site_label
_atom_site_type_symbol
_atom_site_fract_x
_atom_site_fract_y
_atom_site_fract_z
_atom_site_U_iso_or_equiv
_atom_site_adp_type
_atom_site_occupancy
Cu1    Cu    0.07069   0.89708   0.97548   0.01267  Uiso   1.00
Cu2    Cu    0.90979   0.08455   0.45389   0.01267  Uiso   1.00
Cu3    Cu    0.92931   0.10292   0.02452   0.01267  Uiso   1.00
Cu4    Cu    0.09021   0.91545   0.54611   0.01267  Uiso   1.00
H1     H     0.66490   0.28190   0.83270   0.01267  Uiso   1.00
H2     H     0.29870   0.10600   0.81970   0.01267  Uiso   1.00
H3     H     0.68800   0.30410   0.60890   0.01267  Uiso   1.00
H4     H     0.19640   0.35850   0.95690   0.01267  Uiso   1.00
H5     H     0.51430   0.44860   0.59730   0.01267  Uiso   1.00
H6     H     0.41660   0.55760   0.63470   0.01267  Uiso   1.00
H7     H     0.32450   0.48950   0.88850   0.01267  Uiso   1.00
H8     H     0.43070   0.23620   0.75220   0.01267  Uiso   1.00
H9     H     0.53470   0.47350   0.80410   0.01267  Uiso   1.00
H10    H     0.41150   0.55500   0.75120   0.01267  Uiso   1.00
H11    H     0.72540   0.52150   0.69310   0.01267  Uiso   1.00
H12    H     0.94970   0.02150   0.74760   0.01267  Uiso   1.00
H13    H     0.86170   0.66090   0.65060   0.01267  Uiso   1.00
H14    H     0.48360   0.70880   0.51810   0.01267  Uiso   1.00
H15    H     0.61650   0.85160   0.47500   0.01267  Uiso   1.00
H16    H     0.33510   0.71810   0.16730   0.01267  Uiso   1.00
H17    H     0.70130   0.89400   0.18030   0.01267  Uiso   1.00
H18    H     0.31200   0.69590   0.39110   0.01267  Uiso   1.00
H19    H     0.80360   0.64150   0.04310   0.01267  Uiso   1.00
H20    H     0.48570   0.55140   0.40270   0.01267  Uiso   1.00
H21    H     0.58340   0.44240   0.36530   0.01267  Uiso   1.00
H22    H     0.67550   0.51050   0.11150   0.01267  Uiso   1.00
H23    H     0.56930   0.76380   0.24780   0.01267  Uiso   1.00
H24    H     0.46530   0.52650   0.19590   0.01267  Uiso   1.00
H25    H     0.58850   0.44500   0.24880   0.01267  Uiso   1.00
H26    H     0.27460   0.47850   0.30690   0.01267  Uiso   1.00
H27    H     0.05030   0.97850   0.25240   0.01267  Uiso   1.00
H28    H     0.13830   0.33910   0.34940   0.01267  Uiso   1.00
H29    H     0.51640   0.29120   0.48190   0.01267  Uiso   1.00
H30    H     0.38350   0.14840   0.52500   0.01267  Uiso   1.00
C1     C     0.87430   0.08160   0.87910   0.01267  Uiso   1.00
C2     C     0.64960   0.31240   0.71840   0.01267  Uiso   1.00
C3     C     0.15120   0.13700   0.93730   0.01267  Uiso   1.00
C4     C     0.70410   0.24900   0.79070   0.01267  Uiso   1.00
C5     C     0.81150   0.14180   0.80150   0.01267  Uiso   1.00
C6     C     0.30350   0.18440   0.83390   0.01267  Uiso   1.00
C7     C     0.82590   0.15390   0.67140   0.01267  Uiso   1.00
C8     C     0.71720   0.26260   0.65880   0.01267  Uiso   1.00
C9     C     0.38950   0.37670   0.81420   0.01267  Uiso   1.00
C10    C     0.23360   0.22220   0.89380   0.01267  Uiso   1.00
C11    C     0.24300   0.33360   0.91450   0.01267  Uiso   1.00
C12    C     0.50830   0.50370   0.63450   0.01267  Uiso   1.00
C13    C     0.84450   0.85400   0.53000   0.01267  Uiso   1.00
C14    C     0.32040   0.41120   0.87390   0.01267  Uiso   1.00
C15    C     0.38210   0.26210   0.79380   0.01267  Uiso   1.00
C16    C     0.47000   0.46520   0.77010   0.01267  Uiso   1.00
C17    C     0.59550   0.59780   0.60880   0.01267  Uiso   1.00
C18    C     0.70440   0.58720   0.64780   0.01267  Uiso   1.00
C19    C     0.75480   0.76700   0.55710   0.01267  Uiso   1.00
C20    C     0.87400   0.09470   0.74040   0.01267  Uiso   1.00
C21    C     0.78570   0.67030   0.62290   0.01267  Uiso   1.00
C22    C     0.56140   0.69810   0.54460   0.01267  Uiso   1.00
C23    C     0.64050   0.78280   0.51880   0.01267  Uiso   1.00
C24    C     0.89420   0.10530   0.60410   0.01267  Uiso   1.00
C25    C     0.12570   0.91840   0.12090   0.01267  Uiso   1.00
C26    C     0.35040   0.68760   0.28160   0.01267  Uiso   1.00
C27    C     0.84880   0.86300   0.06270   0.01267  Uiso   1.00
C28    C     0.29590   0.75100   0.20930   0.01267  Uiso   1.00
C29    C     0.18850   0.85820   0.19850   0.01267  Uiso   1.00
C30    C     0.69650   0.81560   0.16610   0.01267  Uiso   1.00
C31    C     0.17410   0.84610   0.32860   0.01267  Uiso   1.00
C32    C     0.28280   0.73740   0.34120   0.01267  Uiso   1.00
C33    C     0.61050   0.62330   0.18580   0.01267  Uiso   1.00
C34    C     0.76640   0.77780   0.10620   0.01267  Uiso   1.00
C35    C     0.75700   0.66640   0.08550   0.01267  Uiso   1.00
C36    C     0.49170   0.49630   0.36550   0.01267  Uiso   1.00
C37    C     0.15550   0.14600   0.47000   0.01267  Uiso   1.00
C38    C     0.67960   0.58880   0.12610   0.01267  Uiso   1.00
C39    C     0.61790   0.73790   0.20620   0.01267  Uiso   1.00
C40    C     0.53000   0.53480   0.22990   0.01267  Uiso   1.00
C41    C     0.40450   0.40220   0.39120   0.01267  Uiso   1.00
C42    C     0.29560   0.41280   0.35220   0.01267  Uiso   1.00
C43    C     0.24520   0.23300   0.44290   0.01267  Uiso   1.00
C44    C     0.12600   0.90530   0.25960   0.01267  Uiso   1.00
C45    C     0.21430   0.32970   0.37710   0.01267  Uiso   1.00
C46    C     0.43860   0.30190   0.45540   0.01267  Uiso   1.00
C47    C     0.35950   0.21720   0.48120   0.01267  Uiso   1.00
C48    C     0.10580   0.89470   0.39590   0.01267  Uiso   1.00
N1     N     0.53860   0.41690   0.70700   0.01267  Uiso   1.00
N2     N     0.46140   0.58310   0.29300   0.01267  Uiso   1.00
O1     O     0.17550   0.02120   0.93040   0.01267  Uiso   1.00
O2     O     0.05910   0.19340   0.97580   0.01267  Uiso   1.00
O3     O     0.80110   0.95880   0.48170   0.01267  Uiso   1.00
O4     O     0.95740   0.81660   0.55990   0.01267  Uiso   1.00
O5     O     0.84170   0.15630   0.54120   0.01267  Uiso   1.00
O6     O     0.83710   0.15080   0.92780   0.01267  Uiso   1.00
O7     O     0.95720   0.97450   0.88690   0.01267  Uiso   1.00
O8     O     0.99710   0.01520   0.61900   0.01267  Uiso   1.00
O9     O     0.82450   0.97880   0.06960   0.01267  Uiso   1.00
O10    O     0.94090   0.80660   0.02420   0.01267  Uiso   1.00
O11    O     0.19890   0.04120   0.51830   0.01267  Uiso   1.00
O12    O     0.04260   0.18340   0.44010   0.01267  Uiso   1.00
O13    O     0.15830   0.84370   0.45880   0.01267  Uiso   1.00
O14    O     0.16290   0.84920   0.07220   0.01267  Uiso   1.00
O15    O     0.04280   0.02550   0.11310   0.01267  Uiso   1.00
O16    O     0.00290   0.98480   0.38100   0.01267  Uiso   1.00
