data_ZILBAZ_clean
_audit_creation_date              2014-07-02
_audit_creation_method            'Materials Studio'
_symmetry_space_group_name_H-M    'P1'
_symmetry_Int_Tables_number       1
_symmetry_cell_setting            triclinic
loop_
_symmetry_equiv_pos_as_xyz
  x,y,z
_cell_length_a                    10.7022
_cell_length_b                    10.7022
_cell_length_c                    22.8742
_cell_angle_alpha                 90.0000
_cell_angle_beta                  90.0000
_cell_angle_gamma                 120.0000
loop_
_atom_site_label
_atom_site_type_symbol
_atom_site_fract_x
_atom_site_fract_y
_atom_site_fract_z
_atom_site_U_iso_or_equiv
_atom_site_adp_type
_atom_site_occupancy
Co1    Co    0.64470   0.28970   0.67750   0.01267  Uiso   1.00
Co2    Co    0.64500   0.35530   0.01083   0.01267  Uiso   1.00
Co3    Co    0.71030   0.35500   0.34417   0.01267  Uiso   1.00
H1     H     0.65070   0.42060   0.79870   0.01267  Uiso   1.00
H2     H     0.78490   0.59680   0.85880   0.01267  Uiso   1.00
H3     H     0.12110   0.67900   0.76000   0.01267  Uiso   1.00
H4     H     0.96480   0.52580   0.69110   0.01267  Uiso   1.00
H5     H     0.90870   0.82980   0.88220   0.01267  Uiso   1.00
H6     H     0.05370   0.00430   0.95190   0.01267  Uiso   1.00
H7     H     0.40000   0.01110   0.88890   0.01267  Uiso   1.00
H8     H     0.26320   0.81190   0.83210   0.01267  Uiso   1.00
H9     H     0.53620   0.50860   0.65900   0.01267  Uiso   1.00
H10    H     0.57220   0.69350   0.59970   0.01267  Uiso   1.00
H11    H     0.80740   0.59810   0.49630   0.01267  Uiso   1.00
H12    H     0.78400   0.42740   0.56050   0.01267  Uiso   1.00
H13    H     0.55990   0.81240   0.52770   0.01267  Uiso   1.00
H14    H     0.59690   0.99500   0.46300   0.01267  Uiso   1.00
H15    H     0.95220   0.00650   0.40190   0.01267  Uiso   1.00
H16    H     0.90540   0.81230   0.46050   0.01267  Uiso   1.00
H17    H     0.76990   0.34930   0.13203   0.01267  Uiso   1.00
H18    H     0.81190   0.21510   0.19213   0.01267  Uiso   1.00
H19    H     0.55790   0.87890   0.09333   0.01267  Uiso   1.00
H20    H     0.56100   0.03520   0.02443   0.01267  Uiso   1.00
H21    H     0.92110   0.09130   0.21553   0.01267  Uiso   1.00
H22    H     0.95060   0.94630   0.28523   0.01267  Uiso   1.00
H23    H     0.61110   0.60000   0.22223   0.01267  Uiso   1.00
H24    H     0.54870   0.73680   0.16543   0.01267  Uiso   1.00
H25    H     0.97240   0.46380   0.99233   0.01267  Uiso   1.00
H26    H     0.12130   0.42780   0.93303   0.01267  Uiso   1.00
H27    H     0.79070   0.19260   0.82963   0.01267  Uiso   1.00
H28    H     0.64340   0.21600   0.89383   0.01267  Uiso   1.00
H29    H     0.25250   0.44010   0.86103   0.01267  Uiso   1.00
H30    H     0.39810   0.40310   0.79633   0.01267  Uiso   1.00
H31    H     0.05430   0.04780   0.73523   0.01267  Uiso   1.00
H32    H     0.90690   0.09460   0.79383   0.01267  Uiso   1.00
H33    H     0.57940   0.23010   0.46537   0.01267  Uiso   1.00
H34    H     0.40320   0.18810   0.52547   0.01267  Uiso   1.00
H35    H     0.32100   0.44210   0.42667   0.01267  Uiso   1.00
H36    H     0.47420   0.43900   0.35777   0.01267  Uiso   1.00
H37    H     0.17020   0.07890   0.54887   0.01267  Uiso   1.00
H38    H     0.99570   0.04940   0.61857   0.01267  Uiso   1.00
H39    H     0.98890   0.38890   0.55557   0.01267  Uiso   1.00
H40    H     0.18810   0.45130   0.49877   0.01267  Uiso   1.00
H41    H     0.49140   0.02760   0.32567   0.01267  Uiso   1.00
H42    H     0.30650   0.87870   0.26637   0.01267  Uiso   1.00
H43    H     0.40190   0.20930   0.16297   0.01267  Uiso   1.00
H44    H     0.57260   0.35660   0.22717   0.01267  Uiso   1.00
H45    H     0.18760   0.74750   0.19437   0.01267  Uiso   1.00
H46    H     0.00500   0.60190   0.12967   0.01267  Uiso   1.00
H47    H     0.99350   0.94570   0.06857   0.01267  Uiso   1.00
H48    H     0.18770   0.09310   0.12717   0.01267  Uiso   1.00
C1     C     0.74880   0.48180   0.78800   0.01267  Uiso   1.00
C2     C     0.82720   0.58220   0.82480   0.01267  Uiso   1.00
C3     C     0.97360   0.66950   0.81410   0.01267  Uiso   1.00
C4     C     0.02000   0.63400   0.76680   0.01267  Uiso   1.00
C5     C     0.92700   0.53500   0.72740   0.01267  Uiso   1.00
C6     C     0.06660   0.79060   0.85340   0.01267  Uiso   1.00
C7     C     0.00700   0.85700   0.88640   0.01267  Uiso   1.00
C8     C     0.09600   0.96600   0.92630   0.01267  Uiso   1.00
C9     C     0.24670   0.01970   0.92940   0.01267  Uiso   1.00
C10    C     0.29800   0.96600   0.89170   0.01267  Uiso   1.00
C11    C     0.21750   0.85080   0.85550   0.01267  Uiso   1.00
C12    C     0.34210   0.14790   0.96900   0.01267  Uiso   1.00
C13    C     0.59700   0.52900   0.62580   0.01267  Uiso   1.00
C14    C     0.61700   0.63900   0.58990   0.01267  Uiso   1.00
C15    C     0.69890   0.67340   0.54040   0.01267  Uiso   1.00
C16    C     0.75400   0.58570   0.53110   0.01267  Uiso   1.00
C17    C     0.73700   0.48070   0.56900   0.01267  Uiso   1.00
C18    C     0.72600   0.79190   0.50110   0.01267  Uiso   1.00
C19    C     0.63900   0.84900   0.50130   0.01267  Uiso   1.00
C20    C     0.66300   0.96000   0.46310   0.01267  Uiso   1.00
C21    C     0.77600   0.02140   0.42660   0.01267  Uiso   1.00
C22    C     0.87000   0.96600   0.42660   0.01267  Uiso   1.00
C23    C     0.84300   0.85100   0.46220   0.01267  Uiso   1.00
C24    C     0.80200   0.14100   0.38560   0.01267  Uiso   1.00
C25    C     0.73300   0.25120   0.12133   0.01267  Uiso   1.00
C26    C     0.75500   0.17280   0.15813   0.01267  Uiso   1.00
C27    C     0.69590   0.02640   0.14743   0.01267  Uiso   1.00
C28    C     0.61400   0.98000   0.10013   0.01267  Uiso   1.00
C29    C     0.60800   0.07300   0.06073   0.01267  Uiso   1.00
C30    C     0.72400   0.93340   0.18673   0.01267  Uiso   1.00
C31    C     0.85000   0.99300   0.21973   0.01267  Uiso   1.00
C32    C     0.87000   0.90400   0.25963   0.01267  Uiso   1.00
C33    C     0.77300   0.75330   0.26273   0.01267  Uiso   1.00
C34    C     0.66800   0.70200   0.22503   0.01267  Uiso   1.00
C35    C     0.63330   0.78250   0.18883   0.01267  Uiso   1.00
C36    C     0.80580   0.65790   0.30233   0.01267  Uiso   1.00
C37    C     0.93200   0.40300   0.95913   0.01267  Uiso   1.00
C38    C     0.02200   0.38300   0.92323   0.01267  Uiso   1.00
C39    C     0.97450   0.30110   0.87373   0.01267  Uiso   1.00
C40    C     0.83170   0.24600   0.86443   0.01267  Uiso   1.00
C41    C     0.74370   0.26300   0.90233   0.01267  Uiso   1.00
C42    C     0.06590   0.27400   0.83443   0.01267  Uiso   1.00
C43    C     0.21000   0.36100   0.83463   0.01267  Uiso   1.00
C44    C     0.29700   0.33700   0.79643   0.01267  Uiso   1.00
C45    C     0.24540   0.22400   0.75993   0.01267  Uiso   1.00
C46    C     0.09600   0.13000   0.75993   0.01267  Uiso   1.00
C47    C     0.00800   0.15700   0.79553   0.01267  Uiso   1.00
C48    C     0.33900   0.19800   0.71893   0.01267  Uiso   1.00
C49    C     0.51820   0.26700   0.45467   0.01267  Uiso   1.00
C50    C     0.41780   0.24500   0.49147   0.01267  Uiso   1.00
C51    C     0.33050   0.30410   0.48077   0.01267  Uiso   1.00
C52    C     0.36600   0.38600   0.43347   0.01267  Uiso   1.00
C53    C     0.46500   0.39200   0.39407   0.01267  Uiso   1.00
C54    C     0.20940   0.27600   0.52007   0.01267  Uiso   1.00
C55    C     0.14300   0.15000   0.55307   0.01267  Uiso   1.00
C56    C     0.03400   0.13000   0.59297   0.01267  Uiso   1.00
C57    C     0.98030   0.22700   0.59607   0.01267  Uiso   1.00
C58    C     0.03400   0.33200   0.55837   0.01267  Uiso   1.00
C59    C     0.14920   0.36670   0.52217   0.01267  Uiso   1.00
C60    C     0.85210   0.19420   0.63567   0.01267  Uiso   1.00
C61    C     0.47100   0.06800   0.29247   0.01267  Uiso   1.00
C62    C     0.36100   0.97800   0.25657   0.01267  Uiso   1.00
C63    C     0.32660   0.02550   0.20707   0.01267  Uiso   1.00
C64    C     0.41430   0.16830   0.19777   0.01267  Uiso   1.00
C65    C     0.51930   0.25630   0.23567   0.01267  Uiso   1.00
C66    C     0.20810   0.93410   0.16777   0.01267  Uiso   1.00
C67    C     0.15100   0.79000   0.16797   0.01267  Uiso   1.00
C68    C     0.04000   0.70300   0.12977   0.01267  Uiso   1.00
C69    C     0.97860   0.75460   0.09327   0.01267  Uiso   1.00
C70    C     0.03400   0.90400   0.09327   0.01267  Uiso   1.00
C71    C     0.14900   0.99200   0.12887   0.01267  Uiso   1.00
C72    C     0.85900   0.66100   0.05227   0.01267  Uiso   1.00
N1     N     0.78820   0.45250   0.73730   0.01267  Uiso   1.00
N2     N     0.65780   0.44710   0.61690   0.01267  Uiso   1.00
N3     N     0.66430   0.21180   0.07063   0.01267  Uiso   1.00
N4     N     0.78930   0.34220   0.95023   0.01267  Uiso   1.00
N5     N     0.54750   0.33570   0.40397   0.01267  Uiso   1.00
N6     N     0.55290   0.21070   0.28357   0.01267  Uiso   1.00
O1     O     0.27820   0.19390   0.00250   0.01267  Uiso   1.00
O2     O     0.71070   0.18340   0.38590   0.01267  Uiso   1.00
O3     O     0.91300   0.19080   0.35300   0.01267  Uiso   1.00
O4     O     0.47310   0.18630   0.96870   0.01267  Uiso   1.00
O5     O     0.91570   0.72180   0.33583   0.01267  Uiso   1.00
O6     O     0.47270   0.28930   0.71923   0.01267  Uiso   1.00
O7     O     0.27780   0.08700   0.68633   0.01267  Uiso   1.00
O8     O     0.71320   0.52690   0.30203   0.01267  Uiso   1.00
O9     O     0.80610   0.08430   0.66917   0.01267  Uiso   1.00
O10    O     0.81660   0.52730   0.05257   0.01267  Uiso   1.00
O11    O     0.80920   0.72220   0.01967   0.01267  Uiso   1.00
O12    O     0.81370   0.28680   0.63537   0.01267  Uiso   1.00
