data_image0
_cell_length_a       21.8108
_cell_length_b       21.8108
_cell_length_c       16.0953
_cell_angle_alpha    90
_cell_angle_beta     90
_cell_angle_gamma    90

_symmetry_space_group_name_H-M    "P 1"
_symmetry_int_tables_number       1

loop_
  _symmetry_equiv_pos_as_xyz
  'x, y, z'

loop_
  _atom_site_label
  _atom_site_occupancy
  _atom_site_fract_x
  _atom_site_fract_y
  _atom_site_fract_z
  _atom_site_thermal_displace_type
  _atom_site_B_iso_or_equiv
  _atom_site_type_symbol
  Dy1      1.0000 0.88384  0.41659  0.12352  Biso   1.000  Dy
  O1       1.0000 0.86090  0.49540  0.02330  Biso   1.000  O
  O2       1.0000 0.82290  0.52690  0.90200  Biso   1.000  O
  O3       1.0000 0.87620  0.30890  0.11010  Biso   1.000  O
  O4       1.0000 0.83550  0.22600  0.05240  Biso   1.000  O
  N1       1.0000 0.83220  0.38180  0.99600  Biso   1.000  N
  C1       1.0000 0.81780  0.32290  0.98810  Biso   1.000  C
  C2       1.0000 0.78310  0.30140  0.92220  Biso   1.000  C
  H1       1.0000 0.77330  0.26010  0.91770  Biso   1.000  H
  C3       1.0000 0.76350  0.34290  0.86380  Biso   1.000  C
  H2       1.0000 0.73920  0.32980  0.81970  Biso   1.000  H
  C4       1.0000 0.77970  0.40370  0.87040  Biso   1.000  C
  H3       1.0000 0.76780  0.43190  0.83030  Biso   1.000  H
  C5       1.0000 0.81420  0.42160  0.93840  Biso   1.000  C
  C6       1.0000 0.83400  0.48610  0.95430  Biso   1.000  C
  C7       1.0000 0.84500  0.28230  0.05480  Biso   1.000  C
  Dy2      1.0000 0.38384  0.91659  0.62352  Biso   1.000  Dy
  O5       1.0000 0.36090  0.99540  0.52330  Biso   1.000  O
  O6       1.0000 0.32290  0.02690  0.40200  Biso   1.000  O
  O7       1.0000 0.37620  0.80890  0.61010  Biso   1.000  O
  O8       1.0000 0.33550  0.72600  0.55240  Biso   1.000  O
  N2       1.0000 0.33220  0.88180  0.49600  Biso   1.000  N
  C8       1.0000 0.31780  0.82290  0.48810  Biso   1.000  C
  C9       1.0000 0.28310  0.80140  0.42220  Biso   1.000  C
  H4       1.0000 0.27330  0.76010  0.41770  Biso   1.000  H
  C10      1.0000 0.26350  0.84290  0.36380  Biso   1.000  C
  H5       1.0000 0.23920  0.82980  0.31970  Biso   1.000  H
  C11      1.0000 0.27970  0.90370  0.37040  Biso   1.000  C
  H6       1.0000 0.26780  0.93190  0.33030  Biso   1.000  H
  C12      1.0000 0.31420  0.92160  0.43840  Biso   1.000  C
  C13      1.0000 0.33400  0.98610  0.45430  Biso   1.000  C
  C14      1.0000 0.34500  0.78230  0.55480  Biso   1.000  C
  Dy3      1.0000 0.61616  0.58341  0.62352  Biso   1.000  Dy
  O9       1.0000 0.63910  0.50460  0.52330  Biso   1.000  O
  O10      1.0000 0.67710  0.47310  0.40200  Biso   1.000  O
  O11      1.0000 0.62380  0.69110  0.61010  Biso   1.000  O
  O12      1.0000 0.66450  0.77400  0.55240  Biso   1.000  O
  N3       1.0000 0.66780  0.61820  0.49600  Biso   1.000  N
  C15      1.0000 0.68220  0.67710  0.48810  Biso   1.000  C
  C16      1.0000 0.71690  0.69860  0.42220  Biso   1.000  C
  H7       1.0000 0.72670  0.73990  0.41770  Biso   1.000  H
  C17      1.0000 0.73650  0.65710  0.36380  Biso   1.000  C
  H8       1.0000 0.76080  0.67020  0.31970  Biso   1.000  H
  C18      1.0000 0.72030  0.59630  0.37040  Biso   1.000  C
  H9       1.0000 0.73220  0.56810  0.33030  Biso   1.000  H
  C19      1.0000 0.68580  0.57840  0.43840  Biso   1.000  C
  C20      1.0000 0.66600  0.51390  0.45430  Biso   1.000  C
  C21      1.0000 0.65500  0.71770  0.55480  Biso   1.000  C
  Dy4      1.0000 0.11616  0.08341  0.12352  Biso   1.000  Dy
  O13      1.0000 0.13910  0.00460  0.02330  Biso   1.000  O
  O14      1.0000 0.17710  0.97310  0.90200  Biso   1.000  O
  O15      1.0000 0.12380  0.19110  0.11010  Biso   1.000  O
  O16      1.0000 0.16450  0.27400  0.05240  Biso   1.000  O
  N4       1.0000 0.16780  0.11820  0.99600  Biso   1.000  N
  C22      1.0000 0.18220  0.17710  0.98810  Biso   1.000  C
  C23      1.0000 0.21690  0.19860  0.92220  Biso   1.000  C
  H10      1.0000 0.22670  0.23990  0.91770  Biso   1.000  H
  C24      1.0000 0.23650  0.15710  0.86380  Biso   1.000  C
  H11      1.0000 0.26080  0.17020  0.81970  Biso   1.000  H
  C25      1.0000 0.22030  0.09630  0.87040  Biso   1.000  C
  H12      1.0000 0.23220  0.06810  0.83030  Biso   1.000  H
  C26      1.0000 0.18580  0.07840  0.93840  Biso   1.000  C
  C27      1.0000 0.16600  0.01390  0.95430  Biso   1.000  C
  C28      1.0000 0.15500  0.21770  0.05480  Biso   1.000  C
  Dy5      1.0000 0.33341  0.13384  0.37352  Biso   1.000  Dy
  O17      1.0000 0.25460  0.11090  0.27330  Biso   1.000  O
  O18      1.0000 0.22310  0.07290  0.15200  Biso   1.000  O
  O19      1.0000 0.44110  0.12620  0.36010  Biso   1.000  O
  O20      1.0000 0.52400  0.08550  0.30240  Biso   1.000  O
  N5       1.0000 0.36820  0.08220  0.24600  Biso   1.000  N
  C29      1.0000 0.42710  0.06780  0.23810  Biso   1.000  C
  C30      1.0000 0.44860  0.03310  0.17220  Biso   1.000  C
  H13      1.0000 0.48990  0.02330  0.16770  Biso   1.000  H
  C31      1.0000 0.40710  0.01350  0.11380  Biso   1.000  C
  H14      1.0000 0.42020  0.98920  0.06970  Biso   1.000  H
  C32      1.0000 0.34630  0.02970  0.12040  Biso   1.000  C
  H15      1.0000 0.31810  0.01780  0.08030  Biso   1.000  H
  C33      1.0000 0.32840  0.06420  0.18840  Biso   1.000  C
  C34      1.0000 0.26390  0.08400  0.20430  Biso   1.000  C
  C35      1.0000 0.46770  0.09500  0.30480  Biso   1.000  C
  Dy6      1.0000 0.83341  0.63384  0.87352  Biso   1.000  Dy
  O21      1.0000 0.75460  0.61090  0.77330  Biso   1.000  O
  O22      1.0000 0.72310  0.57290  0.65200  Biso   1.000  O
  O23      1.0000 0.94110  0.62620  0.86010  Biso   1.000  O
  O24      1.0000 0.02400  0.58550  0.80240  Biso   1.000  O
  N6       1.0000 0.86820  0.58220  0.74600  Biso   1.000  N
  C36      1.0000 0.92710  0.56780  0.73810  Biso   1.000  C
  C37      1.0000 0.94860  0.53310  0.67220  Biso   1.000  C
  H16      1.0000 0.98990  0.52330  0.66770  Biso   1.000  H
  C38      1.0000 0.90710  0.51350  0.61380  Biso   1.000  C
  H17      1.0000 0.92020  0.48920  0.56970  Biso   1.000  H
  C39      1.0000 0.84630  0.52970  0.62040  Biso   1.000  C
  H18      1.0000 0.81810  0.51780  0.58030  Biso   1.000  H
  C40      1.0000 0.82840  0.56420  0.68840  Biso   1.000  C
  C41      1.0000 0.76390  0.58400  0.70430  Biso   1.000  C
  C42      1.0000 0.96770  0.59500  0.80480  Biso   1.000  C
  Dy7      1.0000 0.16659  0.86616  0.87352  Biso   1.000  Dy
  O25      1.0000 0.24540  0.88910  0.77330  Biso   1.000  O
  O26      1.0000 0.27690  0.92710  0.65200  Biso   1.000  O
  O27      1.0000 0.05890  0.87380  0.86010  Biso   1.000  O
  O28      1.0000 0.97600  0.91450  0.80240  Biso   1.000  O
  N7       1.0000 0.13180  0.91780  0.74600  Biso   1.000  N
  C43      1.0000 0.07290  0.93220  0.73810  Biso   1.000  C
  C44      1.0000 0.05140  0.96690  0.67220  Biso   1.000  C
  H19      1.0000 0.01010  0.97670  0.66770  Biso   1.000  H
  C45      1.0000 0.09290  0.98650  0.61380  Biso   1.000  C
  H20      1.0000 0.07980  0.01080  0.56970  Biso   1.000  H
  C46      1.0000 0.15370  0.97030  0.62040  Biso   1.000  C
  H21      1.0000 0.18190  0.98220  0.58030  Biso   1.000  H
  C47      1.0000 0.17160  0.93580  0.68840  Biso   1.000  C
  C48      1.0000 0.23610  0.91600  0.70430  Biso   1.000  C
  C49      1.0000 0.03230  0.90500  0.80480  Biso   1.000  C
  Dy8      1.0000 0.66659  0.36616  0.37352  Biso   1.000  Dy
  O29      1.0000 0.74540  0.38910  0.27330  Biso   1.000  O
  O30      1.0000 0.77690  0.42710  0.15200  Biso   1.000  O
  O31      1.0000 0.55890  0.37380  0.36010  Biso   1.000  O
  O32      1.0000 0.47600  0.41450  0.30240  Biso   1.000  O
  N8       1.0000 0.63180  0.41780  0.24600  Biso   1.000  N
  C50      1.0000 0.57290  0.43220  0.23810  Biso   1.000  C
  C51      1.0000 0.55140  0.46690  0.17220  Biso   1.000  C
  H22      1.0000 0.51010  0.47670  0.16770  Biso   1.000  H
  C52      1.0000 0.59290  0.48650  0.11380  Biso   1.000  C
  H23      1.0000 0.57980  0.51080  0.06970  Biso   1.000  H
  C53      1.0000 0.65370  0.47030  0.12040  Biso   1.000  C
  H24      1.0000 0.68190  0.48220  0.08030  Biso   1.000  H
  C54      1.0000 0.67160  0.43580  0.18840  Biso   1.000  C
  C55      1.0000 0.73610  0.41600  0.20430  Biso   1.000  C
  C56      1.0000 0.53230  0.40500  0.30480  Biso   1.000  C
  Dy9      1.0000 0.11616  0.58341  0.87648  Biso   1.000  Dy
  O33      1.0000 0.13910  0.50460  0.97670  Biso   1.000  O
  O34      1.0000 0.17710  0.47310  0.09800  Biso   1.000  O
  O35      1.0000 0.12380  0.69110  0.88990  Biso   1.000  O
  O36      1.0000 0.16450  0.77400  0.94760  Biso   1.000  O
  N9       1.0000 0.16780  0.61820  0.00400  Biso   1.000  N
  C57      1.0000 0.18220  0.67710  0.01190  Biso   1.000  C
  C58      1.0000 0.21690  0.69860  0.07780  Biso   1.000  C
  H25      1.0000 0.22670  0.73990  0.08230  Biso   1.000  H
  C59      1.0000 0.23650  0.65710  0.13620  Biso   1.000  C
  H26      1.0000 0.26080  0.67020  0.18030  Biso   1.000  H
  C60      1.0000 0.22030  0.59630  0.12960  Biso   1.000  C
  H27      1.0000 0.23220  0.56810  0.16970  Biso   1.000  H
  C61      1.0000 0.18580  0.57840  0.06160  Biso   1.000  C
  C62      1.0000 0.16600  0.51390  0.04570  Biso   1.000  C
  C63      1.0000 0.15500  0.71770  0.94520  Biso   1.000  C
  Dy10     1.0000 0.61616  0.08341  0.37648  Biso   1.000  Dy
  O37      1.0000 0.63910  0.00460  0.47670  Biso   1.000  O
  O38      1.0000 0.67710  0.97310  0.59800  Biso   1.000  O
  O39      1.0000 0.62380  0.19110  0.38990  Biso   1.000  O
  O40      1.0000 0.66450  0.27400  0.44760  Biso   1.000  O
  N10      1.0000 0.66780  0.11820  0.50400  Biso   1.000  N
  C64      1.0000 0.68220  0.17710  0.51190  Biso   1.000  C
  C65      1.0000 0.71690  0.19860  0.57780  Biso   1.000  C
  H28      1.0000 0.72670  0.23990  0.58230  Biso   1.000  H
  C66      1.0000 0.73650  0.15710  0.63620  Biso   1.000  C
  H29      1.0000 0.76080  0.17020  0.68030  Biso   1.000  H
  C67      1.0000 0.72030  0.09630  0.62960  Biso   1.000  C
  H30      1.0000 0.73220  0.06810  0.66970  Biso   1.000  H
  C68      1.0000 0.68580  0.07840  0.56160  Biso   1.000  C
  C69      1.0000 0.66600  0.01390  0.54570  Biso   1.000  C
  C70      1.0000 0.65500  0.21770  0.44520  Biso   1.000  C
  Dy11     1.0000 0.38384  0.41659  0.37648  Biso   1.000  Dy
  O41      1.0000 0.36090  0.49540  0.47670  Biso   1.000  O
  O42      1.0000 0.32290  0.52690  0.59800  Biso   1.000  O
  O43      1.0000 0.37620  0.30890  0.38990  Biso   1.000  O
  O44      1.0000 0.33550  0.22600  0.44760  Biso   1.000  O
  N11      1.0000 0.33220  0.38180  0.50400  Biso   1.000  N
  C71      1.0000 0.31780  0.32290  0.51190  Biso   1.000  C
  C72      1.0000 0.28310  0.30140  0.57780  Biso   1.000  C
  H31      1.0000 0.27330  0.26010  0.58230  Biso   1.000  H
  C73      1.0000 0.26350  0.34290  0.63620  Biso   1.000  C
  H32      1.0000 0.23920  0.32980  0.68030  Biso   1.000  H
  C74      1.0000 0.27970  0.40370  0.62960  Biso   1.000  C
  H33      1.0000 0.26780  0.43190  0.66970  Biso   1.000  H
  C75      1.0000 0.31420  0.42160  0.56160  Biso   1.000  C
  C76      1.0000 0.33400  0.48610  0.54570  Biso   1.000  C
  C77      1.0000 0.34500  0.28230  0.44520  Biso   1.000  C
  Dy12     1.0000 0.88384  0.91659  0.87648  Biso   1.000  Dy
  O45      1.0000 0.86090  0.99540  0.97670  Biso   1.000  O
  O46      1.0000 0.82290  0.02690  0.09800  Biso   1.000  O
  O47      1.0000 0.87620  0.80890  0.88990  Biso   1.000  O
  O48      1.0000 0.83550  0.72600  0.94760  Biso   1.000  O
  N12      1.0000 0.83220  0.88180  0.00400  Biso   1.000  N
  C78      1.0000 0.81780  0.82290  0.01190  Biso   1.000  C
  C79      1.0000 0.78310  0.80140  0.07780  Biso   1.000  C
  H34      1.0000 0.77330  0.76010  0.08230  Biso   1.000  H
  C80      1.0000 0.76350  0.84290  0.13620  Biso   1.000  C
  H35      1.0000 0.73920  0.82980  0.18030  Biso   1.000  H
  C81      1.0000 0.77970  0.90370  0.12960  Biso   1.000  C
  H36      1.0000 0.76780  0.93190  0.16970  Biso   1.000  H
  C82      1.0000 0.81420  0.92160  0.06160  Biso   1.000  C
  C83      1.0000 0.83400  0.98610  0.04570  Biso   1.000  C
  C84      1.0000 0.84500  0.78230  0.94520  Biso   1.000  C
  Dy13     1.0000 0.66659  0.86616  0.62648  Biso   1.000  Dy
  O49      1.0000 0.74540  0.88910  0.72670  Biso   1.000  O
  O50      1.0000 0.77690  0.92710  0.84800  Biso   1.000  O
  O51      1.0000 0.55890  0.87380  0.63990  Biso   1.000  O
  O52      1.0000 0.47600  0.91450  0.69760  Biso   1.000  O
  N13      1.0000 0.63180  0.91780  0.75400  Biso   1.000  N
  C85      1.0000 0.57290  0.93220  0.76190  Biso   1.000  C
  C86      1.0000 0.55140  0.96690  0.82780  Biso   1.000  C
  H37      1.0000 0.51010  0.97670  0.83230  Biso   1.000  H
  C87      1.0000 0.59290  0.98650  0.88620  Biso   1.000  C
  H38      1.0000 0.57980  0.01080  0.93030  Biso   1.000  H
  C88      1.0000 0.65370  0.97030  0.87960  Biso   1.000  C
  H39      1.0000 0.68190  0.98220  0.91970  Biso   1.000  H
  C89      1.0000 0.67160  0.93580  0.81160  Biso   1.000  C
  C90      1.0000 0.73610  0.91600  0.79570  Biso   1.000  C
  C91      1.0000 0.53230  0.90500  0.69520  Biso   1.000  C
  Dy14     1.0000 0.16659  0.36616  0.12648  Biso   1.000  Dy
  O53      1.0000 0.24540  0.38910  0.22670  Biso   1.000  O
  O54      1.0000 0.27690  0.42710  0.34800  Biso   1.000  O
  O55      1.0000 0.05890  0.37380  0.13990  Biso   1.000  O
  O56      1.0000 0.97600  0.41450  0.19760  Biso   1.000  O
  N14      1.0000 0.13180  0.41780  0.25400  Biso   1.000  N
  C92      1.0000 0.07290  0.43220  0.26190  Biso   1.000  C
  C93      1.0000 0.05140  0.46690  0.32780  Biso   1.000  C
  H40      1.0000 0.01010  0.47670  0.33230  Biso   1.000  H
  C94      1.0000 0.09290  0.48650  0.38620  Biso   1.000  C
  H41      1.0000 0.07980  0.51080  0.43030  Biso   1.000  H
  C95      1.0000 0.15370  0.47030  0.37960  Biso   1.000  C
  H42      1.0000 0.18190  0.48220  0.41970  Biso   1.000  H
  C96      1.0000 0.17160  0.43580  0.31160  Biso   1.000  C
  C97      1.0000 0.23610  0.41600  0.29570  Biso   1.000  C
  C98      1.0000 0.03230  0.40500  0.19520  Biso   1.000  C
  Dy15     1.0000 0.83341  0.13384  0.12648  Biso   1.000  Dy
  O57      1.0000 0.75460  0.11090  0.22670  Biso   1.000  O
  O58      1.0000 0.72310  0.07290  0.34800  Biso   1.000  O
  O59      1.0000 0.94110  0.12620  0.13990  Biso   1.000  O
  O60      1.0000 0.02400  0.08550  0.19760  Biso   1.000  O
  N15      1.0000 0.86820  0.08220  0.25400  Biso   1.000  N
  C99      1.0000 0.92710  0.06780  0.26190  Biso   1.000  C
  C100     1.0000 0.94860  0.03310  0.32780  Biso   1.000  C
  H43      1.0000 0.98990  0.02330  0.33230  Biso   1.000  H
  C101     1.0000 0.90710  0.01350  0.38620  Biso   1.000  C
  H44      1.0000 0.92020  0.98920  0.43030  Biso   1.000  H
  C102     1.0000 0.84630  0.02970  0.37960  Biso   1.000  C
  H45      1.0000 0.81810  0.01780  0.41970  Biso   1.000  H
  C103     1.0000 0.82840  0.06420  0.31160  Biso   1.000  C
  C104     1.0000 0.76390  0.08400  0.29570  Biso   1.000  C
  C105     1.0000 0.96770  0.09500  0.19520  Biso   1.000  C
  Dy16     1.0000 0.33341  0.63384  0.62648  Biso   1.000  Dy
  O61      1.0000 0.25460  0.61090  0.72670  Biso   1.000  O
  O62      1.0000 0.22310  0.57290  0.84800  Biso   1.000  O
  O63      1.0000 0.44110  0.62620  0.63990  Biso   1.000  O
  O64      1.0000 0.52400  0.58550  0.69760  Biso   1.000  O
  N16      1.0000 0.36820  0.58220  0.75400  Biso   1.000  N
  C106     1.0000 0.42710  0.56780  0.76190  Biso   1.000  C
  C107     1.0000 0.44860  0.53310  0.82780  Biso   1.000  C
  H46      1.0000 0.48990  0.52330  0.83230  Biso   1.000  H
  C108     1.0000 0.40710  0.51350  0.88620  Biso   1.000  C
  H47      1.0000 0.42020  0.48920  0.93030  Biso   1.000  H
  C109     1.0000 0.34630  0.52970  0.87960  Biso   1.000  C
  H48      1.0000 0.31810  0.51780  0.91970  Biso   1.000  H
  C110     1.0000 0.32840  0.56420  0.81160  Biso   1.000  C
  C111     1.0000 0.26390  0.58400  0.79570  Biso   1.000  C
  C112     1.0000 0.46770  0.59500  0.69520  Biso   1.000  C
