data_image0
_cell_length_a       21.781
_cell_length_b       21.781
_cell_length_c       16.101
_cell_angle_alpha    90
_cell_angle_beta     90
_cell_angle_gamma    90

_symmetry_space_group_name_H-M    "P 1"
_symmetry_int_tables_number       1

loop_
  _symmetry_equiv_pos_as_xyz
  'x, y, z'

loop_
  _atom_site_label
  _atom_site_occupancy
  _atom_site_fract_x
  _atom_site_fract_y
  _atom_site_fract_z
  _atom_site_thermal_displace_type
  _atom_site_B_iso_or_equiv
  _atom_site_type_symbol
  Er1      1.0000 0.88335  0.41620  0.12396  Biso   1.000  Er
  O1       1.0000 0.77700  0.42680  0.15270  Biso   1.000  O
  O2       1.0000 0.74510  0.38910  0.27450  Biso   1.000  O
  O3       1.0000 0.47570  0.41400  0.30260  Biso   1.000  O
  O4       1.0000 0.55930  0.37380  0.36160  Biso   1.000  O
  N1       1.0000 0.63150  0.41850  0.24780  Biso   1.000  N
  C1       1.0000 0.67160  0.43670  0.19010  Biso   1.000  C
  C2       1.0000 0.65390  0.47000  0.12200  Biso   1.000  C
  H1       1.0000 0.68240  0.48120  0.08180  Biso   1.000  H
  C3       1.0000 0.59250  0.48690  0.11410  Biso   1.000  C
  H2       1.0000 0.57950  0.51080  0.06960  Biso   1.000  H
  C4       1.0000 0.55150  0.46740  0.17370  Biso   1.000  C
  H3       1.0000 0.51020  0.47780  0.16980  Biso   1.000  H
  C5       1.0000 0.57240  0.43190  0.23960  Biso   1.000  C
  C6       1.0000 0.73710  0.41620  0.20570  Biso   1.000  C
  C7       1.0000 0.53220  0.40520  0.30580  Biso   1.000  C
  Er2      1.0000 0.38335  0.91620  0.62396  Biso   1.000  Er
  O5       1.0000 0.27700  0.92680  0.65270  Biso   1.000  O
  O6       1.0000 0.24510  0.88910  0.77450  Biso   1.000  O
  O7       1.0000 0.97570  0.91400  0.80260  Biso   1.000  O
  O8       1.0000 0.05930  0.87380  0.86160  Biso   1.000  O
  N2       1.0000 0.13150  0.91850  0.74780  Biso   1.000  N
  C8       1.0000 0.17160  0.93670  0.69010  Biso   1.000  C
  C9       1.0000 0.15390  0.97000  0.62200  Biso   1.000  C
  H4       1.0000 0.18240  0.98120  0.58180  Biso   1.000  H
  C10      1.0000 0.09250  0.98690  0.61410  Biso   1.000  C
  H5       1.0000 0.07950  0.01080  0.56960  Biso   1.000  H
  C11      1.0000 0.05150  0.96740  0.67370  Biso   1.000  C
  H6       1.0000 0.01020  0.97780  0.66980  Biso   1.000  H
  C12      1.0000 0.07240  0.93190  0.73960  Biso   1.000  C
  C13      1.0000 0.23710  0.91620  0.70570  Biso   1.000  C
  C14      1.0000 0.03220  0.90520  0.80580  Biso   1.000  C
  Er3      1.0000 0.61665  0.58380  0.62396  Biso   1.000  Er
  O9       1.0000 0.72300  0.57320  0.65270  Biso   1.000  O
  O10      1.0000 0.75490  0.61090  0.77450  Biso   1.000  O
  O11      1.0000 0.02430  0.58600  0.80260  Biso   1.000  O
  O12      1.0000 0.94070  0.62620  0.86160  Biso   1.000  O
  N3       1.0000 0.86850  0.58150  0.74780  Biso   1.000  N
  C15      1.0000 0.82840  0.56330  0.69010  Biso   1.000  C
  C16      1.0000 0.84610  0.53000  0.62200  Biso   1.000  C
  H7       1.0000 0.81760  0.51880  0.58180  Biso   1.000  H
  C17      1.0000 0.90750  0.51310  0.61410  Biso   1.000  C
  H8       1.0000 0.92050  0.48920  0.56960  Biso   1.000  H
  C18      1.0000 0.94850  0.53260  0.67370  Biso   1.000  C
  H9       1.0000 0.98980  0.52220  0.66980  Biso   1.000  H
  C19      1.0000 0.92760  0.56810  0.73960  Biso   1.000  C
  C20      1.0000 0.76290  0.58380  0.70570  Biso   1.000  C
  C21      1.0000 0.96780  0.59480  0.80580  Biso   1.000  C
  Er4      1.0000 0.11665  0.08380  0.12396  Biso   1.000  Er
  O13      1.0000 0.22300  0.07320  0.15270  Biso   1.000  O
  O14      1.0000 0.25490  0.11090  0.27450  Biso   1.000  O
  O15      1.0000 0.52430  0.08600  0.30260  Biso   1.000  O
  O16      1.0000 0.44070  0.12620  0.36160  Biso   1.000  O
  N4       1.0000 0.36850  0.08150  0.24780  Biso   1.000  N
  C22      1.0000 0.32840  0.06330  0.19010  Biso   1.000  C
  C23      1.0000 0.34610  0.03000  0.12200  Biso   1.000  C
  H10      1.0000 0.31760  0.01880  0.08180  Biso   1.000  H
  C24      1.0000 0.40750  0.01310  0.11410  Biso   1.000  C
  H11      1.0000 0.42050  0.98920  0.06960  Biso   1.000  H
  C25      1.0000 0.44850  0.03260  0.17370  Biso   1.000  C
  H12      1.0000 0.48980  0.02220  0.16980  Biso   1.000  H
  C26      1.0000 0.42760  0.06810  0.23960  Biso   1.000  C
  C27      1.0000 0.26290  0.08380  0.20570  Biso   1.000  C
  C28      1.0000 0.46780  0.09480  0.30580  Biso   1.000  C
  Er5      1.0000 0.33380  0.13335  0.37396  Biso   1.000  Er
  O17      1.0000 0.32320  0.02700  0.40270  Biso   1.000  O
  O18      1.0000 0.36090  0.99510  0.52450  Biso   1.000  O
  O19      1.0000 0.33600  0.72570  0.55260  Biso   1.000  O
  O20      1.0000 0.37620  0.80930  0.61160  Biso   1.000  O
  N5       1.0000 0.33150  0.88150  0.49780  Biso   1.000  N
  C29      1.0000 0.31330  0.92160  0.44010  Biso   1.000  C
  C30      1.0000 0.28000  0.90390  0.37200  Biso   1.000  C
  H13      1.0000 0.26880  0.93240  0.33180  Biso   1.000  H
  C31      1.0000 0.26310  0.84250  0.36410  Biso   1.000  C
  H14      1.0000 0.23920  0.82950  0.31960  Biso   1.000  H
  C32      1.0000 0.28260  0.80150  0.42370  Biso   1.000  C
  H15      1.0000 0.27220  0.76020  0.41980  Biso   1.000  H
  C33      1.0000 0.31810  0.82240  0.48960  Biso   1.000  C
  C34      1.0000 0.33380  0.98710  0.45570  Biso   1.000  C
  C35      1.0000 0.34480  0.78220  0.55580  Biso   1.000  C
  Er6      1.0000 0.83380  0.63335  0.87396  Biso   1.000  Er
  O21      1.0000 0.82320  0.52700  0.90270  Biso   1.000  O
  O22      1.0000 0.86090  0.49510  0.02450  Biso   1.000  O
  O23      1.0000 0.83600  0.22570  0.05260  Biso   1.000  O
  O24      1.0000 0.87620  0.30930  0.11160  Biso   1.000  O
  N6       1.0000 0.83150  0.38150  0.99780  Biso   1.000  N
  C36      1.0000 0.81330  0.42160  0.94010  Biso   1.000  C
  C37      1.0000 0.78000  0.40390  0.87200  Biso   1.000  C
  H16      1.0000 0.76880  0.43240  0.83180  Biso   1.000  H
  C38      1.0000 0.76310  0.34250  0.86410  Biso   1.000  C
  H17      1.0000 0.73920  0.32950  0.81960  Biso   1.000  H
  C39      1.0000 0.78260  0.30150  0.92370  Biso   1.000  C
  H18      1.0000 0.77220  0.26020  0.91980  Biso   1.000  H
  C40      1.0000 0.81810  0.32240  0.98960  Biso   1.000  C
  C41      1.0000 0.83380  0.48710  0.95570  Biso   1.000  C
  C42      1.0000 0.84480  0.28220  0.05580  Biso   1.000  C
  Er7      1.0000 0.16620  0.86665  0.87396  Biso   1.000  Er
  O25      1.0000 0.17680  0.97300  0.90270  Biso   1.000  O
  O26      1.0000 0.13910  0.00490  0.02450  Biso   1.000  O
  O27      1.0000 0.16400  0.27430  0.05260  Biso   1.000  O
  O28      1.0000 0.12380  0.19070  0.11160  Biso   1.000  O
  N7       1.0000 0.16850  0.11850  0.99780  Biso   1.000  N
  C43      1.0000 0.18670  0.07840  0.94010  Biso   1.000  C
  C44      1.0000 0.22000  0.09610  0.87200  Biso   1.000  C
  H19      1.0000 0.23120  0.06760  0.83180  Biso   1.000  H
  C45      1.0000 0.23690  0.15750  0.86410  Biso   1.000  C
  H20      1.0000 0.26080  0.17050  0.81960  Biso   1.000  H
  C46      1.0000 0.21740  0.19850  0.92370  Biso   1.000  C
  H21      1.0000 0.22780  0.23980  0.91980  Biso   1.000  H
  C47      1.0000 0.18190  0.17760  0.98960  Biso   1.000  C
  C48      1.0000 0.16620  0.01290  0.95570  Biso   1.000  C
  C49      1.0000 0.15520  0.21780  0.05580  Biso   1.000  C
  Er8      1.0000 0.66620  0.36665  0.37396  Biso   1.000  Er
  O29      1.0000 0.67680  0.47300  0.40270  Biso   1.000  O
  O30      1.0000 0.63910  0.50490  0.52450  Biso   1.000  O
  O31      1.0000 0.66400  0.77430  0.55260  Biso   1.000  O
  O32      1.0000 0.62380  0.69070  0.61160  Biso   1.000  O
  N8       1.0000 0.66850  0.61850  0.49780  Biso   1.000  N
  C50      1.0000 0.68670  0.57840  0.44010  Biso   1.000  C
  C51      1.0000 0.72000  0.59610  0.37200  Biso   1.000  C
  H22      1.0000 0.73120  0.56760  0.33180  Biso   1.000  H
  C52      1.0000 0.73690  0.65750  0.36410  Biso   1.000  C
  H23      1.0000 0.76080  0.67050  0.31960  Biso   1.000  H
  C53      1.0000 0.71740  0.69850  0.42370  Biso   1.000  C
  H24      1.0000 0.72780  0.73980  0.41980  Biso   1.000  H
  C54      1.0000 0.68190  0.67760  0.48960  Biso   1.000  C
  C55      1.0000 0.66620  0.51290  0.45570  Biso   1.000  C
  C56      1.0000 0.65520  0.71780  0.55580  Biso   1.000  C
  Er9      1.0000 0.11665  0.58380  0.87604  Biso   1.000  Er
  O33      1.0000 0.22300  0.57320  0.84730  Biso   1.000  O
  O34      1.0000 0.25490  0.61090  0.72550  Biso   1.000  O
  O35      1.0000 0.52430  0.58600  0.69740  Biso   1.000  O
  O36      1.0000 0.44070  0.62620  0.63840  Biso   1.000  O
  N9       1.0000 0.36850  0.58150  0.75220  Biso   1.000  N
  C57      1.0000 0.32840  0.56330  0.80990  Biso   1.000  C
  C58      1.0000 0.34610  0.53000  0.87800  Biso   1.000  C
  H25      1.0000 0.31760  0.51880  0.91820  Biso   1.000  H
  C59      1.0000 0.40750  0.51310  0.88590  Biso   1.000  C
  H26      1.0000 0.42050  0.48920  0.93040  Biso   1.000  H
  C60      1.0000 0.44850  0.53260  0.82630  Biso   1.000  C
  H27      1.0000 0.48980  0.52220  0.83020  Biso   1.000  H
  C61      1.0000 0.42760  0.56810  0.76040  Biso   1.000  C
  C62      1.0000 0.26290  0.58380  0.79430  Biso   1.000  C
  C63      1.0000 0.46780  0.59480  0.69420  Biso   1.000  C
  Er10     1.0000 0.61665  0.08380  0.37604  Biso   1.000  Er
  O37      1.0000 0.72300  0.07320  0.34730  Biso   1.000  O
  O38      1.0000 0.75490  0.11090  0.22550  Biso   1.000  O
  O39      1.0000 0.02430  0.08600  0.19740  Biso   1.000  O
  O40      1.0000 0.94070  0.12620  0.13840  Biso   1.000  O
  N10      1.0000 0.86850  0.08150  0.25220  Biso   1.000  N
  C64      1.0000 0.82840  0.06330  0.30990  Biso   1.000  C
  C65      1.0000 0.84610  0.03000  0.37800  Biso   1.000  C
  H28      1.0000 0.81760  0.01880  0.41820  Biso   1.000  H
  C66      1.0000 0.90750  0.01310  0.38590  Biso   1.000  C
  H29      1.0000 0.92050  0.98920  0.43040  Biso   1.000  H
  C67      1.0000 0.94850  0.03260  0.32630  Biso   1.000  C
  H30      1.0000 0.98980  0.02220  0.33020  Biso   1.000  H
  C68      1.0000 0.92760  0.06810  0.26040  Biso   1.000  C
  C69      1.0000 0.76290  0.08380  0.29430  Biso   1.000  C
  C70      1.0000 0.96780  0.09480  0.19420  Biso   1.000  C
  Er11     1.0000 0.38335  0.41620  0.37604  Biso   1.000  Er
  O41      1.0000 0.27700  0.42680  0.34730  Biso   1.000  O
  O42      1.0000 0.24510  0.38910  0.22550  Biso   1.000  O
  O43      1.0000 0.97570  0.41400  0.19740  Biso   1.000  O
  O44      1.0000 0.05930  0.37380  0.13840  Biso   1.000  O
  N11      1.0000 0.13150  0.41850  0.25220  Biso   1.000  N
  C71      1.0000 0.17160  0.43670  0.30990  Biso   1.000  C
  C72      1.0000 0.15390  0.47000  0.37800  Biso   1.000  C
  H31      1.0000 0.18240  0.48120  0.41820  Biso   1.000  H
  C73      1.0000 0.09250  0.48690  0.38590  Biso   1.000  C
  H32      1.0000 0.07950  0.51080  0.43040  Biso   1.000  H
  C74      1.0000 0.05150  0.46740  0.32630  Biso   1.000  C
  H33      1.0000 0.01020  0.47780  0.33020  Biso   1.000  H
  C75      1.0000 0.07240  0.43190  0.26040  Biso   1.000  C
  C76      1.0000 0.23710  0.41620  0.29430  Biso   1.000  C
  C77      1.0000 0.03220  0.40520  0.19420  Biso   1.000  C
  Er12     1.0000 0.88335  0.91620  0.87604  Biso   1.000  Er
  O45      1.0000 0.77700  0.92680  0.84730  Biso   1.000  O
  O46      1.0000 0.74510  0.88910  0.72550  Biso   1.000  O
  O47      1.0000 0.47570  0.91400  0.69740  Biso   1.000  O
  O48      1.0000 0.55930  0.87380  0.63840  Biso   1.000  O
  N12      1.0000 0.63150  0.91850  0.75220  Biso   1.000  N
  C78      1.0000 0.67160  0.93670  0.80990  Biso   1.000  C
  C79      1.0000 0.65390  0.97000  0.87800  Biso   1.000  C
  H34      1.0000 0.68240  0.98120  0.91820  Biso   1.000  H
  C80      1.0000 0.59250  0.98690  0.88590  Biso   1.000  C
  H35      1.0000 0.57950  0.01080  0.93040  Biso   1.000  H
  C81      1.0000 0.55150  0.96740  0.82630  Biso   1.000  C
  H36      1.0000 0.51020  0.97780  0.83020  Biso   1.000  H
  C82      1.0000 0.57240  0.93190  0.76040  Biso   1.000  C
  C83      1.0000 0.73710  0.91620  0.79430  Biso   1.000  C
  C84      1.0000 0.53220  0.90520  0.69420  Biso   1.000  C
  Er13     1.0000 0.66620  0.86665  0.62604  Biso   1.000  Er
  O49      1.0000 0.67680  0.97300  0.59730  Biso   1.000  O
  O50      1.0000 0.63910  0.00490  0.47550  Biso   1.000  O
  O51      1.0000 0.66400  0.27430  0.44740  Biso   1.000  O
  O52      1.0000 0.62380  0.19070  0.38840  Biso   1.000  O
  N13      1.0000 0.66850  0.11850  0.50220  Biso   1.000  N
  C85      1.0000 0.68670  0.07840  0.55990  Biso   1.000  C
  C86      1.0000 0.72000  0.09610  0.62800  Biso   1.000  C
  H37      1.0000 0.73120  0.06760  0.66820  Biso   1.000  H
  C87      1.0000 0.73690  0.15750  0.63590  Biso   1.000  C
  H38      1.0000 0.76080  0.17050  0.68040  Biso   1.000  H
  C88      1.0000 0.71740  0.19850  0.57630  Biso   1.000  C
  H39      1.0000 0.72780  0.23980  0.58020  Biso   1.000  H
  C89      1.0000 0.68190  0.17760  0.51040  Biso   1.000  C
  C90      1.0000 0.66620  0.01290  0.54430  Biso   1.000  C
  C91      1.0000 0.65520  0.21780  0.44420  Biso   1.000  C
  Er14     1.0000 0.16620  0.36665  0.12604  Biso   1.000  Er
  O53      1.0000 0.17680  0.47300  0.09730  Biso   1.000  O
  O54      1.0000 0.13910  0.50490  0.97550  Biso   1.000  O
  O55      1.0000 0.16400  0.77430  0.94740  Biso   1.000  O
  O56      1.0000 0.12380  0.69070  0.88840  Biso   1.000  O
  N14      1.0000 0.16850  0.61850  0.00220  Biso   1.000  N
  C92      1.0000 0.18670  0.57840  0.05990  Biso   1.000  C
  C93      1.0000 0.22000  0.59610  0.12800  Biso   1.000  C
  H40      1.0000 0.23120  0.56760  0.16820  Biso   1.000  H
  C94      1.0000 0.23690  0.65750  0.13590  Biso   1.000  C
  H41      1.0000 0.26080  0.67050  0.18040  Biso   1.000  H
  C95      1.0000 0.21740  0.69850  0.07630  Biso   1.000  C
  H42      1.0000 0.22780  0.73980  0.08020  Biso   1.000  H
  C96      1.0000 0.18190  0.67760  0.01040  Biso   1.000  C
  C97      1.0000 0.16620  0.51290  0.04430  Biso   1.000  C
  C98      1.0000 0.15520  0.71780  0.94420  Biso   1.000  C
  Er15     1.0000 0.83380  0.13335  0.12604  Biso   1.000  Er
  O57      1.0000 0.82320  0.02700  0.09730  Biso   1.000  O
  O58      1.0000 0.86090  0.99510  0.97550  Biso   1.000  O
  O59      1.0000 0.83600  0.72570  0.94740  Biso   1.000  O
  O60      1.0000 0.87620  0.80930  0.88840  Biso   1.000  O
  N15      1.0000 0.83150  0.88150  0.00220  Biso   1.000  N
  C99      1.0000 0.81330  0.92160  0.05990  Biso   1.000  C
  C100     1.0000 0.78000  0.90390  0.12800  Biso   1.000  C
  H43      1.0000 0.76880  0.93240  0.16820  Biso   1.000  H
  C101     1.0000 0.76310  0.84250  0.13590  Biso   1.000  C
  H44      1.0000 0.73920  0.82950  0.18040  Biso   1.000  H
  C102     1.0000 0.78260  0.80150  0.07630  Biso   1.000  C
  H45      1.0000 0.77220  0.76020  0.08020  Biso   1.000  H
  C103     1.0000 0.81810  0.82240  0.01040  Biso   1.000  C
  C104     1.0000 0.83380  0.98710  0.04430  Biso   1.000  C
  C105     1.0000 0.84480  0.78220  0.94420  Biso   1.000  C
  Er16     1.0000 0.33380  0.63335  0.62604  Biso   1.000  Er
  O61      1.0000 0.32320  0.52700  0.59730  Biso   1.000  O
  O62      1.0000 0.36090  0.49510  0.47550  Biso   1.000  O
  O63      1.0000 0.33600  0.22570  0.44740  Biso   1.000  O
  O64      1.0000 0.37620  0.30930  0.38840  Biso   1.000  O
  N16      1.0000 0.33150  0.38150  0.50220  Biso   1.000  N
  C106     1.0000 0.31330  0.42160  0.55990  Biso   1.000  C
  C107     1.0000 0.28000  0.40390  0.62800  Biso   1.000  C
  H46      1.0000 0.26880  0.43240  0.66820  Biso   1.000  H
  C108     1.0000 0.26310  0.34250  0.63590  Biso   1.000  C
  H47      1.0000 0.23920  0.32950  0.68040  Biso   1.000  H
  C109     1.0000 0.28260  0.30150  0.57630  Biso   1.000  C
  H48      1.0000 0.27220  0.26020  0.58020  Biso   1.000  H
  C110     1.0000 0.31810  0.32240  0.51040  Biso   1.000  C
  C111     1.0000 0.33380  0.48710  0.54430  Biso   1.000  C
  C112     1.0000 0.34480  0.28220  0.44420  Biso   1.000  C
