data_image0
_cell_length_a       21.8788
_cell_length_b       21.8788
_cell_length_c       16.1443
_cell_angle_alpha    90
_cell_angle_beta     90
_cell_angle_gamma    90

_symmetry_space_group_name_H-M    "P 1"
_symmetry_int_tables_number       1

loop_
  _symmetry_equiv_pos_as_xyz
  'x, y, z'

loop_
  _atom_site_label
  _atom_site_occupancy
  _atom_site_fract_x
  _atom_site_fract_y
  _atom_site_fract_z
  _atom_site_thermal_displace_type
  _atom_site_B_iso_or_equiv
  _atom_site_type_symbol
  Tb1      1.0000 0.66699  0.13417  0.37323  Biso   1.000  Tb
  N1       1.0000 0.63190  0.08240  0.24610  Biso   1.000  N
  C1       1.0000 0.57300  0.06850  0.23790  Biso   1.000  C
  C2       1.0000 0.55190  0.03300  0.17140  Biso   1.000  C
  H1       1.0000 0.51080  0.02260  0.16740  Biso   1.000  H
  C3       1.0000 0.59210  0.01420  0.11320  Biso   1.000  C
  H2       1.0000 0.57900  0.99100  0.06840  Biso   1.000  H
  C4       1.0000 0.65370  0.03010  0.12100  Biso   1.000  C
  H3       1.0000 0.68210  0.01770  0.08150  Biso   1.000  H
  C5       1.0000 0.67130  0.06410  0.18730  Biso   1.000  C
  C6       1.0000 0.53290  0.09420  0.30340  Biso   1.000  C
  C7       1.0000 0.73700  0.08330  0.20370  Biso   1.000  C
  O1       1.0000 0.77680  0.07320  0.15110  Biso   1.000  O
  O2       1.0000 0.74510  0.11170  0.27200  Biso   1.000  O
  O3       1.0000 0.55940  0.12580  0.36000  Biso   1.000  O
  O4       1.0000 0.47600  0.08470  0.30220  Biso   1.000  O
  Tb2      1.0000 0.16699  0.63417  0.87323  Biso   1.000  Tb
  N2       1.0000 0.13190  0.58240  0.74610  Biso   1.000  N
  C8       1.0000 0.07300  0.56850  0.73790  Biso   1.000  C
  C9       1.0000 0.05190  0.53300  0.67140  Biso   1.000  C
  H4       1.0000 0.01080  0.52260  0.66740  Biso   1.000  H
  C10      1.0000 0.09210  0.51420  0.61320  Biso   1.000  C
  H5       1.0000 0.07900  0.49100  0.56840  Biso   1.000  H
  C11      1.0000 0.15370  0.53010  0.62100  Biso   1.000  C
  H6       1.0000 0.18210  0.51770  0.58150  Biso   1.000  H
  C12      1.0000 0.17130  0.56410  0.68730  Biso   1.000  C
  C13      1.0000 0.03290  0.59420  0.80340  Biso   1.000  C
  C14      1.0000 0.23700  0.58330  0.70370  Biso   1.000  C
  O5       1.0000 0.27680  0.57320  0.65110  Biso   1.000  O
  O6       1.0000 0.24510  0.61170  0.77200  Biso   1.000  O
  O7       1.0000 0.05940  0.62580  0.86000  Biso   1.000  O
  O8       1.0000 0.97600  0.58470  0.80220  Biso   1.000  O
  Tb3      1.0000 0.83301  0.86583  0.87323  Biso   1.000  Tb
  N3       1.0000 0.86810  0.91760  0.74610  Biso   1.000  N
  C15      1.0000 0.92700  0.93150  0.73790  Biso   1.000  C
  C16      1.0000 0.94810  0.96700  0.67140  Biso   1.000  C
  H7       1.0000 0.98920  0.97740  0.66740  Biso   1.000  H
  C17      1.0000 0.90790  0.98580  0.61320  Biso   1.000  C
  H8       1.0000 0.92100  0.00900  0.56840  Biso   1.000  H
  C18      1.0000 0.84630  0.96990  0.62100  Biso   1.000  C
  H9       1.0000 0.81790  0.98230  0.58150  Biso   1.000  H
  C19      1.0000 0.82870  0.93590  0.68730  Biso   1.000  C
  C20      1.0000 0.96710  0.90580  0.80340  Biso   1.000  C
  C21      1.0000 0.76300  0.91670  0.70370  Biso   1.000  C
  O9       1.0000 0.72320  0.92680  0.65110  Biso   1.000  O
  O10      1.0000 0.75490  0.88830  0.77200  Biso   1.000  O
  O11      1.0000 0.94060  0.87420  0.86000  Biso   1.000  O
  O12      1.0000 0.02400  0.91530  0.80220  Biso   1.000  O
  Tb4      1.0000 0.33301  0.36583  0.37323  Biso   1.000  Tb
  N4       1.0000 0.36810  0.41760  0.24610  Biso   1.000  N
  C22      1.0000 0.42700  0.43150  0.23790  Biso   1.000  C
  C23      1.0000 0.44810  0.46700  0.17140  Biso   1.000  C
  H10      1.0000 0.48920  0.47740  0.16740  Biso   1.000  H
  C24      1.0000 0.40790  0.48580  0.11320  Biso   1.000  C
  H11      1.0000 0.42100  0.50900  0.06840  Biso   1.000  H
  C25      1.0000 0.34630  0.46990  0.12100  Biso   1.000  C
  H12      1.0000 0.31790  0.48230  0.08150  Biso   1.000  H
  C26      1.0000 0.32870  0.43590  0.18730  Biso   1.000  C
  C27      1.0000 0.46710  0.40580  0.30340  Biso   1.000  C
  C28      1.0000 0.26300  0.41670  0.20370  Biso   1.000  C
  O13      1.0000 0.22320  0.42680  0.15110  Biso   1.000  O
  O14      1.0000 0.25490  0.38830  0.27200  Biso   1.000  O
  O15      1.0000 0.44060  0.37420  0.36000  Biso   1.000  O
  O16      1.0000 0.52400  0.41530  0.30220  Biso   1.000  O
  Tb5      1.0000 0.61583  0.91699  0.62323  Biso   1.000  Tb
  N5       1.0000 0.66760  0.88190  0.49610  Biso   1.000  N
  C29      1.0000 0.68150  0.82300  0.48790  Biso   1.000  C
  C30      1.0000 0.71700  0.80190  0.42140  Biso   1.000  C
  H13      1.0000 0.72740  0.76080  0.41740  Biso   1.000  H
  C31      1.0000 0.73580  0.84210  0.36320  Biso   1.000  C
  H14      1.0000 0.75900  0.82900  0.31840  Biso   1.000  H
  C32      1.0000 0.71990  0.90370  0.37100  Biso   1.000  C
  H15      1.0000 0.73230  0.93210  0.33150  Biso   1.000  H
  C33      1.0000 0.68590  0.92130  0.43730  Biso   1.000  C
  C34      1.0000 0.65580  0.78290  0.55340  Biso   1.000  C
  C35      1.0000 0.66670  0.98700  0.45370  Biso   1.000  C
  O17      1.0000 0.67680  0.02680  0.40110  Biso   1.000  O
  O18      1.0000 0.63830  0.99510  0.52200  Biso   1.000  O
  O19      1.0000 0.62420  0.80940  0.61000  Biso   1.000  O
  O20      1.0000 0.66530  0.72600  0.55220  Biso   1.000  O
  Tb6      1.0000 0.11583  0.41699  0.12323  Biso   1.000  Tb
  N6       1.0000 0.16760  0.38190  0.99610  Biso   1.000  N
  C36      1.0000 0.18150  0.32300  0.98790  Biso   1.000  C
  C37      1.0000 0.21700  0.30190  0.92140  Biso   1.000  C
  H16      1.0000 0.22740  0.26080  0.91740  Biso   1.000  H
  C38      1.0000 0.23580  0.34210  0.86320  Biso   1.000  C
  H17      1.0000 0.25900  0.32900  0.81840  Biso   1.000  H
  C39      1.0000 0.21990  0.40370  0.87100  Biso   1.000  C
  H18      1.0000 0.23230  0.43210  0.83150  Biso   1.000  H
  C40      1.0000 0.18590  0.42130  0.93730  Biso   1.000  C
  C41      1.0000 0.15580  0.28290  0.05340  Biso   1.000  C
  C42      1.0000 0.16670  0.48700  0.95370  Biso   1.000  C
  O21      1.0000 0.17680  0.52680  0.90110  Biso   1.000  O
  O22      1.0000 0.13830  0.49510  0.02200  Biso   1.000  O
  O23      1.0000 0.12420  0.30940  0.11000  Biso   1.000  O
  O24      1.0000 0.16530  0.22600  0.05220  Biso   1.000  O
  Tb7      1.0000 0.88417  0.08301  0.12323  Biso   1.000  Tb
  N7       1.0000 0.83240  0.11810  0.99610  Biso   1.000  N
  C43      1.0000 0.81850  0.17700  0.98790  Biso   1.000  C
  C44      1.0000 0.78300  0.19810  0.92140  Biso   1.000  C
  H19      1.0000 0.77260  0.23920  0.91740  Biso   1.000  H
  C45      1.0000 0.76420  0.15790  0.86320  Biso   1.000  C
  H20      1.0000 0.74100  0.17100  0.81840  Biso   1.000  H
  C46      1.0000 0.78010  0.09630  0.87100  Biso   1.000  C
  H21      1.0000 0.76770  0.06790  0.83150  Biso   1.000  H
  C47      1.0000 0.81410  0.07870  0.93730  Biso   1.000  C
  C48      1.0000 0.84420  0.21710  0.05340  Biso   1.000  C
  C49      1.0000 0.83330  0.01300  0.95370  Biso   1.000  C
  O25      1.0000 0.82320  0.97320  0.90110  Biso   1.000  O
  O26      1.0000 0.86170  0.00490  0.02200  Biso   1.000  O
  O27      1.0000 0.87580  0.19060  0.11000  Biso   1.000  O
  O28      1.0000 0.83470  0.27400  0.05220  Biso   1.000  O
  Tb8      1.0000 0.38417  0.58301  0.62323  Biso   1.000  Tb
  N8       1.0000 0.33240  0.61810  0.49610  Biso   1.000  N
  C50      1.0000 0.31850  0.67700  0.48790  Biso   1.000  C
  C51      1.0000 0.28300  0.69810  0.42140  Biso   1.000  C
  H22      1.0000 0.27260  0.73920  0.41740  Biso   1.000  H
  C52      1.0000 0.26420  0.65790  0.36320  Biso   1.000  C
  H23      1.0000 0.24100  0.67100  0.31840  Biso   1.000  H
  C53      1.0000 0.28010  0.59630  0.37100  Biso   1.000  C
  H24      1.0000 0.26770  0.56790  0.33150  Biso   1.000  H
  C54      1.0000 0.31410  0.57870  0.43730  Biso   1.000  C
  C55      1.0000 0.34420  0.71710  0.55340  Biso   1.000  C
  C56      1.0000 0.33330  0.51300  0.45370  Biso   1.000  C
  O29      1.0000 0.32320  0.47320  0.40110  Biso   1.000  O
  O30      1.0000 0.36170  0.50490  0.52200  Biso   1.000  O
  O31      1.0000 0.37580  0.69060  0.61000  Biso   1.000  O
  O32      1.0000 0.33470  0.77400  0.55220  Biso   1.000  O
  Tb9      1.0000 0.33301  0.86583  0.62677  Biso   1.000  Tb
  N9       1.0000 0.36810  0.91760  0.75390  Biso   1.000  N
  C57      1.0000 0.42700  0.93150  0.76210  Biso   1.000  C
  C58      1.0000 0.44810  0.96700  0.82860  Biso   1.000  C
  H25      1.0000 0.48920  0.97740  0.83260  Biso   1.000  H
  C59      1.0000 0.40790  0.98580  0.88680  Biso   1.000  C
  H26      1.0000 0.42100  0.00900  0.93160  Biso   1.000  H
  C60      1.0000 0.34630  0.96990  0.87900  Biso   1.000  C
  H27      1.0000 0.31790  0.98230  0.91850  Biso   1.000  H
  C61      1.0000 0.32870  0.93590  0.81270  Biso   1.000  C
  C62      1.0000 0.46710  0.90580  0.69660  Biso   1.000  C
  C63      1.0000 0.26300  0.91670  0.79630  Biso   1.000  C
  O33      1.0000 0.22320  0.92680  0.84890  Biso   1.000  O
  O34      1.0000 0.25490  0.88830  0.72800  Biso   1.000  O
  O35      1.0000 0.44060  0.87420  0.64000  Biso   1.000  O
  O36      1.0000 0.52400  0.91530  0.69780  Biso   1.000  O
  Tb10     1.0000 0.83301  0.36583  0.12677  Biso   1.000  Tb
  N10      1.0000 0.86810  0.41760  0.25390  Biso   1.000  N
  C64      1.0000 0.92700  0.43150  0.26210  Biso   1.000  C
  C65      1.0000 0.94810  0.46700  0.32860  Biso   1.000  C
  H28      1.0000 0.98920  0.47740  0.33260  Biso   1.000  H
  C66      1.0000 0.90790  0.48580  0.38680  Biso   1.000  C
  H29      1.0000 0.92100  0.50900  0.43160  Biso   1.000  H
  C67      1.0000 0.84630  0.46990  0.37900  Biso   1.000  C
  H30      1.0000 0.81790  0.48230  0.41850  Biso   1.000  H
  C68      1.0000 0.82870  0.43590  0.31270  Biso   1.000  C
  C69      1.0000 0.96710  0.40580  0.19660  Biso   1.000  C
  C70      1.0000 0.76300  0.41670  0.29630  Biso   1.000  C
  O37      1.0000 0.72320  0.42680  0.34890  Biso   1.000  O
  O38      1.0000 0.75490  0.38830  0.22800  Biso   1.000  O
  O39      1.0000 0.94060  0.37420  0.14000  Biso   1.000  O
  O40      1.0000 0.02400  0.41530  0.19780  Biso   1.000  O
  Tb11     1.0000 0.16699  0.13417  0.12677  Biso   1.000  Tb
  N11      1.0000 0.13190  0.08240  0.25390  Biso   1.000  N
  C71      1.0000 0.07300  0.06850  0.26210  Biso   1.000  C
  C72      1.0000 0.05190  0.03300  0.32860  Biso   1.000  C
  H31      1.0000 0.01080  0.02260  0.33260  Biso   1.000  H
  C73      1.0000 0.09210  0.01420  0.38680  Biso   1.000  C
  H32      1.0000 0.07900  0.99100  0.43160  Biso   1.000  H
  C74      1.0000 0.15370  0.03010  0.37900  Biso   1.000  C
  H33      1.0000 0.18210  0.01770  0.41850  Biso   1.000  H
  C75      1.0000 0.17130  0.06410  0.31270  Biso   1.000  C
  C76      1.0000 0.03290  0.09420  0.19660  Biso   1.000  C
  C77      1.0000 0.23700  0.08330  0.29630  Biso   1.000  C
  O41      1.0000 0.27680  0.07320  0.34890  Biso   1.000  O
  O42      1.0000 0.24510  0.11170  0.22800  Biso   1.000  O
  O43      1.0000 0.05940  0.12580  0.14000  Biso   1.000  O
  O44      1.0000 0.97600  0.08470  0.19780  Biso   1.000  O
  Tb12     1.0000 0.66699  0.63417  0.62677  Biso   1.000  Tb
  N12      1.0000 0.63190  0.58240  0.75390  Biso   1.000  N
  C78      1.0000 0.57300  0.56850  0.76210  Biso   1.000  C
  C79      1.0000 0.55190  0.53300  0.82860  Biso   1.000  C
  H34      1.0000 0.51080  0.52260  0.83260  Biso   1.000  H
  C80      1.0000 0.59210  0.51420  0.88680  Biso   1.000  C
  H35      1.0000 0.57900  0.49100  0.93160  Biso   1.000  H
  C81      1.0000 0.65370  0.53010  0.87900  Biso   1.000  C
  H36      1.0000 0.68210  0.51770  0.91850  Biso   1.000  H
  C82      1.0000 0.67130  0.56410  0.81270  Biso   1.000  C
  C83      1.0000 0.53290  0.59420  0.69660  Biso   1.000  C
  C84      1.0000 0.73700  0.58330  0.79630  Biso   1.000  C
  O45      1.0000 0.77680  0.57320  0.84890  Biso   1.000  O
  O46      1.0000 0.74510  0.61170  0.72800  Biso   1.000  O
  O47      1.0000 0.55940  0.62580  0.64000  Biso   1.000  O
  O48      1.0000 0.47600  0.58470  0.69780  Biso   1.000  O
  Tb13     1.0000 0.38417  0.08301  0.37677  Biso   1.000  Tb
  N13      1.0000 0.33240  0.11810  0.50390  Biso   1.000  N
  C85      1.0000 0.31850  0.17700  0.51210  Biso   1.000  C
  C86      1.0000 0.28300  0.19810  0.57860  Biso   1.000  C
  H37      1.0000 0.27260  0.23920  0.58260  Biso   1.000  H
  C87      1.0000 0.26420  0.15790  0.63680  Biso   1.000  C
  H38      1.0000 0.24100  0.17100  0.68160  Biso   1.000  H
  C88      1.0000 0.28010  0.09630  0.62900  Biso   1.000  C
  H39      1.0000 0.26770  0.06790  0.66850  Biso   1.000  H
  C89      1.0000 0.31410  0.07870  0.56270  Biso   1.000  C
  C90      1.0000 0.34420  0.21710  0.44660  Biso   1.000  C
  C91      1.0000 0.33330  0.01300  0.54630  Biso   1.000  C
  O49      1.0000 0.32320  0.97320  0.59890  Biso   1.000  O
  O50      1.0000 0.36170  0.00490  0.47800  Biso   1.000  O
  O51      1.0000 0.37580  0.19060  0.39000  Biso   1.000  O
  O52      1.0000 0.33470  0.27400  0.44780  Biso   1.000  O
  Tb14     1.0000 0.88417  0.58301  0.87677  Biso   1.000  Tb
  N14      1.0000 0.83240  0.61810  0.00390  Biso   1.000  N
  C92      1.0000 0.81850  0.67700  0.01210  Biso   1.000  C
  C93      1.0000 0.78300  0.69810  0.07860  Biso   1.000  C
  H40      1.0000 0.77260  0.73920  0.08260  Biso   1.000  H
  C94      1.0000 0.76420  0.65790  0.13680  Biso   1.000  C
  H41      1.0000 0.74100  0.67100  0.18160  Biso   1.000  H
  C95      1.0000 0.78010  0.59630  0.12900  Biso   1.000  C
  H42      1.0000 0.76770  0.56790  0.16850  Biso   1.000  H
  C96      1.0000 0.81410  0.57870  0.06270  Biso   1.000  C
  C97      1.0000 0.84420  0.71710  0.94660  Biso   1.000  C
  C98      1.0000 0.83330  0.51300  0.04630  Biso   1.000  C
  O53      1.0000 0.82320  0.47320  0.09890  Biso   1.000  O
  O54      1.0000 0.86170  0.50490  0.97800  Biso   1.000  O
  O55      1.0000 0.87580  0.69060  0.89000  Biso   1.000  O
  O56      1.0000 0.83470  0.77400  0.94780  Biso   1.000  O
  Tb15     1.0000 0.11583  0.91699  0.87677  Biso   1.000  Tb
  N15      1.0000 0.16760  0.88190  0.00390  Biso   1.000  N
  C99      1.0000 0.18150  0.82300  0.01210  Biso   1.000  C
  C100     1.0000 0.21700  0.80190  0.07860  Biso   1.000  C
  H43      1.0000 0.22740  0.76080  0.08260  Biso   1.000  H
  C101     1.0000 0.23580  0.84210  0.13680  Biso   1.000  C
  H44      1.0000 0.25900  0.82900  0.18160  Biso   1.000  H
  C102     1.0000 0.21990  0.90370  0.12900  Biso   1.000  C
  H45      1.0000 0.23230  0.93210  0.16850  Biso   1.000  H
  C103     1.0000 0.18590  0.92130  0.06270  Biso   1.000  C
  C104     1.0000 0.15580  0.78290  0.94660  Biso   1.000  C
  C105     1.0000 0.16670  0.98700  0.04630  Biso   1.000  C
  O57      1.0000 0.17680  0.02680  0.09890  Biso   1.000  O
  O58      1.0000 0.13830  0.99510  0.97800  Biso   1.000  O
  O59      1.0000 0.12420  0.80940  0.89000  Biso   1.000  O
  O60      1.0000 0.16530  0.72600  0.94780  Biso   1.000  O
  Tb16     1.0000 0.61583  0.41699  0.37677  Biso   1.000  Tb
  N16      1.0000 0.66760  0.38190  0.50390  Biso   1.000  N
  C106     1.0000 0.68150  0.32300  0.51210  Biso   1.000  C
  C107     1.0000 0.71700  0.30190  0.57860  Biso   1.000  C
  H46      1.0000 0.72740  0.26080  0.58260  Biso   1.000  H
  C108     1.0000 0.73580  0.34210  0.63680  Biso   1.000  C
  H47      1.0000 0.75900  0.32900  0.68160  Biso   1.000  H
  C109     1.0000 0.71990  0.40370  0.62900  Biso   1.000  C
  H48      1.0000 0.73230  0.43210  0.66850  Biso   1.000  H
  C110     1.0000 0.68590  0.42130  0.56270  Biso   1.000  C
  C111     1.0000 0.65580  0.28290  0.44660  Biso   1.000  C
  C112     1.0000 0.66670  0.48700  0.54630  Biso   1.000  C
  O61      1.0000 0.67680  0.52680  0.59890  Biso   1.000  O
  O62      1.0000 0.63830  0.49510  0.47800  Biso   1.000  O
  O63      1.0000 0.62420  0.30940  0.39000  Biso   1.000  O
  O64      1.0000 0.66530  0.22600  0.44780  Biso   1.000  O
