data_image0
_cell_length_a       30.778
_cell_length_b       15.587
_cell_length_c       22.103
_cell_angle_alpha    90
_cell_angle_beta     132.995
_cell_angle_gamma    90

_symmetry_space_group_name_H-M    "P 1"
_symmetry_int_tables_number       1

loop_
  _symmetry_equiv_pos_as_xyz
  'x, y, z'

loop_
  _atom_site_label
  _atom_site_occupancy
  _atom_site_fract_x
  _atom_site_fract_y
  _atom_site_fract_z
  _atom_site_thermal_displace_type
  _atom_site_B_iso_or_equiv
  _atom_site_type_symbol
  O1       1.0000 0.94370  0.15100  0.07850  Biso   1.000  O
  O2       1.0000 0.86500  0.96920  0.88220  Biso   1.000  O
  O3       1.0000 0.88860  0.88620  0.71630  Biso   1.000  O
  O4       1.0000 0.72300  0.34510  0.79520  Biso   1.000  O
  O5       1.0000 0.02070  0.22240  0.11670  Biso   1.000  O
  O6       1.0000 0.82370  0.09500  0.87100  Biso   1.000  O
  O7       1.0000 0.75510  0.23400  0.87540  Biso   1.000  O
  O8       1.0000 0.85330  0.95200  0.60260  Biso   1.000  O
  N1       1.0000 0.84120  0.99680  0.74560  Biso   1.000  N
  N2       1.0000 0.86680  0.27050  0.96470  Biso   1.000  N
  La1      1.0000 0.83093  0.12717  0.98695  Biso   1.000  La
  La2      1.0000 0.89000  0.85695  0.82964  Biso   1.000  La
  C1       1.0000 0.81630  0.05200  0.76100  Biso   1.000  C
  C2       1.0000 0.77490  0.11520  0.70550  Biso   1.000  C
  H1       1.0000 0.75590  0.15040  0.71540  Biso   1.000  H
  C3       1.0000 0.76500  0.12000  0.63300  Biso   1.000  C
  H2       1.0000 0.73750  0.16130  0.59420  Biso   1.000  H
  C4       1.0000 0.78760  0.07700  0.61600  Biso   1.000  C
  H3       1.0000 0.77940  0.08680  0.56800  Biso   1.000  H
  C5       1.0000 0.82910  0.00800  0.67400  Biso   1.000  C
  C6       1.0000 0.83970  0.03600  0.84880  Biso   1.000  C
  C7       1.0000 0.85940  0.94800  0.66360  Biso   1.000  C
  C8       1.0000 0.92370  0.28500  0.01200  Biso   1.000  C
  C9       1.0000 0.94280  0.35600  0.00000  Biso   1.000  C
  H4       1.0000 0.98330  0.36390  0.03200  Biso   1.000  H
  C10      1.0000 0.90420  0.41400  0.94210  Biso   1.000  C
  H5       1.0000 0.91720  0.46330  0.93510  Biso   1.000  H
  C11      1.0000 0.84400  0.39800  0.89300  Biso   1.000  C
  H6       1.0000 0.81570  0.43770  0.85360  Biso   1.000  H
  C12      1.0000 0.82550  0.32400  0.90200  Biso   1.000  C
  C13      1.0000 0.96720  0.21400  0.07700  Biso   1.000  C
  C14      1.0000 0.76090  0.30000  0.85200  Biso   1.000  C
  W1       1.0000 0.05289  0.63581  0.44889  Biso   1.000  W
  W2       1.0000 0.92446  0.52400  0.29000  Biso   1.000  W
  W3       1.0000 0.12765  0.52431  0.40849  Biso   1.000  W
  W4       1.0000 0.92366  0.74750  0.29010  Biso   1.000  W
  W5       1.0000 0.12993  0.74712  0.40853  Biso   1.000  W
  O9       1.0000 0.96870  0.43700  0.29620  Biso   1.000  O
  O10      1.0000 0.10240  0.71890  0.45890  Biso   1.000  O
  O11      1.0000 0.07370  0.43400  0.35500  Biso   1.000  O
  O12      1.0000 0.86730  0.51000  0.17100  Biso   1.000  O
  O13      1.0000 0.10240  0.55600  0.46200  Biso   1.000  O
  O14      1.0000 0.89560  0.64000  0.27810  Biso   1.000  O
  O15      1.0000 0.99430  0.72200  0.39800  Biso   1.000  O
  O16      1.0000 0.99470  0.55230  0.40120  Biso   1.000  O
  O17      1.0000 0.96200  0.71100  0.23400  Biso   1.000  O
  O18      1.0000 0.16000  0.64000  0.43020  Biso   1.000  O
  O19      1.0000 0.96600  0.84200  0.29400  Biso   1.000  O
  O20      1.0000 0.07700  0.84000  0.36100  Biso   1.000  O
  O21      1.0000 0.86530  0.75600  0.17200  Biso   1.000  O
  O22      1.0000 0.94900  0.64000  0.16100  Biso   1.000  O
  O23      1.0000 0.03940  0.55300  0.27200  Biso   1.000  O
  O24      1.0000 0.98410  0.63500  0.29900  Biso   1.000  O
  O25      1.0000 0.44370  0.65100  0.07850  Biso   1.000  O
  O26      1.0000 0.36500  0.46920  0.88220  Biso   1.000  O
  O27      1.0000 0.38860  0.38620  0.71630  Biso   1.000  O
  O28      1.0000 0.22300  0.84510  0.79520  Biso   1.000  O
  O29      1.0000 0.52070  0.72240  0.11670  Biso   1.000  O
  O30      1.0000 0.32370  0.59500  0.87100  Biso   1.000  O
  O31      1.0000 0.25510  0.73400  0.87540  Biso   1.000  O
  O32      1.0000 0.35330  0.45200  0.60260  Biso   1.000  O
  N3       1.0000 0.34120  0.49680  0.74560  Biso   1.000  N
  N4       1.0000 0.36680  0.77050  0.96470  Biso   1.000  N
  La3      1.0000 0.33093  0.62717  0.98695  Biso   1.000  La
  La4      1.0000 0.39000  0.35695  0.82964  Biso   1.000  La
  C15      1.0000 0.31630  0.55200  0.76100  Biso   1.000  C
  C16      1.0000 0.27490  0.61520  0.70550  Biso   1.000  C
  H7       1.0000 0.25590  0.65040  0.71540  Biso   1.000  H
  C17      1.0000 0.26500  0.62000  0.63300  Biso   1.000  C
  H8       1.0000 0.23750  0.66130  0.59420  Biso   1.000  H
  C18      1.0000 0.28760  0.57700  0.61600  Biso   1.000  C
  H9       1.0000 0.27940  0.58680  0.56800  Biso   1.000  H
  C19      1.0000 0.32910  0.50800  0.67400  Biso   1.000  C
  C20      1.0000 0.33970  0.53600  0.84880  Biso   1.000  C
  C21      1.0000 0.35940  0.44800  0.66360  Biso   1.000  C
  C22      1.0000 0.42370  0.78500  0.01200  Biso   1.000  C
  C23      1.0000 0.44280  0.85600  0.00000  Biso   1.000  C
  H10      1.0000 0.48330  0.86390  0.03200  Biso   1.000  H
  C24      1.0000 0.40420  0.91400  0.94210  Biso   1.000  C
  H11      1.0000 0.41720  0.96330  0.93510  Biso   1.000  H
  C25      1.0000 0.34400  0.89800  0.89300  Biso   1.000  C
  H12      1.0000 0.31570  0.93770  0.85360  Biso   1.000  H
  C26      1.0000 0.32550  0.82400  0.90200  Biso   1.000  C
  C27      1.0000 0.46720  0.71400  0.07700  Biso   1.000  C
  C28      1.0000 0.26090  0.80000  0.85200  Biso   1.000  C
  W6       1.0000 0.55289  0.13581  0.44889  Biso   1.000  W
  W7       1.0000 0.42446  0.02400  0.29000  Biso   1.000  W
  W8       1.0000 0.62765  0.02431  0.40849  Biso   1.000  W
  W9       1.0000 0.42366  0.24750  0.29010  Biso   1.000  W
  W10      1.0000 0.62993  0.24712  0.40853  Biso   1.000  W
  O33      1.0000 0.46870  0.93700  0.29620  Biso   1.000  O
  O34      1.0000 0.60240  0.21890  0.45890  Biso   1.000  O
  O35      1.0000 0.57370  0.93400  0.35500  Biso   1.000  O
  O36      1.0000 0.36730  0.01000  0.17100  Biso   1.000  O
  O37      1.0000 0.60240  0.05600  0.46200  Biso   1.000  O
  O38      1.0000 0.39560  0.14000  0.27810  Biso   1.000  O
  O39      1.0000 0.49430  0.22200  0.39800  Biso   1.000  O
  O40      1.0000 0.49470  0.05230  0.40120  Biso   1.000  O
  O41      1.0000 0.46200  0.21100  0.23400  Biso   1.000  O
  O42      1.0000 0.66000  0.14000  0.43020  Biso   1.000  O
  O43      1.0000 0.46600  0.34200  0.29400  Biso   1.000  O
  O44      1.0000 0.57700  0.34000  0.36100  Biso   1.000  O
  O45      1.0000 0.36530  0.25600  0.17200  Biso   1.000  O
  O46      1.0000 0.44900  0.14000  0.16100  Biso   1.000  O
  O47      1.0000 0.53940  0.05300  0.27200  Biso   1.000  O
  O48      1.0000 0.48410  0.13500  0.29900  Biso   1.000  O
  O49      1.0000 0.05630  0.15100  0.42150  Biso   1.000  O
  O50      1.0000 0.13500  0.96920  0.61780  Biso   1.000  O
  O51      1.0000 0.11140  0.88620  0.78370  Biso   1.000  O
  O52      1.0000 0.27700  0.34510  0.70480  Biso   1.000  O
  O53      1.0000 0.97930  0.22240  0.38330  Biso   1.000  O
  O54      1.0000 0.17630  0.09500  0.62900  Biso   1.000  O
  O55      1.0000 0.24490  0.23400  0.62460  Biso   1.000  O
  O56      1.0000 0.14670  0.95200  0.89740  Biso   1.000  O
  N5       1.0000 0.15880  0.99680  0.75440  Biso   1.000  N
  N6       1.0000 0.13320  0.27050  0.53530  Biso   1.000  N
  La5      1.0000 0.16907  0.12717  0.51305  Biso   1.000  La
  La6      1.0000 0.11000  0.85695  0.67036  Biso   1.000  La
  C29      1.0000 0.18370  0.05200  0.73900  Biso   1.000  C
  C30      1.0000 0.22510  0.11520  0.79450  Biso   1.000  C
  H13      1.0000 0.24410  0.15040  0.78460  Biso   1.000  H
  C31      1.0000 0.23500  0.12000  0.86700  Biso   1.000  C
  H14      1.0000 0.26250  0.16130  0.90580  Biso   1.000  H
  C32      1.0000 0.21240  0.07700  0.88400  Biso   1.000  C
  H15      1.0000 0.22060  0.08680  0.93200  Biso   1.000  H
  C33      1.0000 0.17090  0.00800  0.82600  Biso   1.000  C
  C34      1.0000 0.16030  0.03600  0.65120  Biso   1.000  C
  C35      1.0000 0.14060  0.94800  0.83640  Biso   1.000  C
  C36      1.0000 0.07630  0.28500  0.48800  Biso   1.000  C
  C37      1.0000 0.05720  0.35600  0.50000  Biso   1.000  C
  H16      1.0000 0.01670  0.36390  0.46800  Biso   1.000  H
  C38      1.0000 0.09580  0.41400  0.55790  Biso   1.000  C
  H17      1.0000 0.08280  0.46330  0.56490  Biso   1.000  H
  C39      1.0000 0.15600  0.39800  0.60700  Biso   1.000  C
  H18      1.0000 0.18430  0.43770  0.64640  Biso   1.000  H
  C40      1.0000 0.17450  0.32400  0.59800  Biso   1.000  C
  C41      1.0000 0.03280  0.21400  0.42300  Biso   1.000  C
  C42      1.0000 0.23910  0.30000  0.64800  Biso   1.000  C
  W11      1.0000 0.94711  0.63581  0.05111  Biso   1.000  W
  W12      1.0000 0.07554  0.52400  0.21000  Biso   1.000  W
  W13      1.0000 0.87235  0.52431  0.09151  Biso   1.000  W
  W14      1.0000 0.07634  0.74750  0.20990  Biso   1.000  W
  W15      1.0000 0.87007  0.74712  0.09147  Biso   1.000  W
  O57      1.0000 0.03130  0.43700  0.20380  Biso   1.000  O
  O58      1.0000 0.89760  0.71890  0.04110  Biso   1.000  O
  O59      1.0000 0.92630  0.43400  0.14500  Biso   1.000  O
  O60      1.0000 0.13270  0.51000  0.32900  Biso   1.000  O
  O61      1.0000 0.89760  0.55600  0.03800  Biso   1.000  O
  O62      1.0000 0.10440  0.64000  0.22190  Biso   1.000  O
  O63      1.0000 0.00570  0.72200  0.10200  Biso   1.000  O
  O64      1.0000 0.00530  0.55230  0.09880  Biso   1.000  O
  O65      1.0000 0.03800  0.71100  0.26600  Biso   1.000  O
  O66      1.0000 0.84000  0.64000  0.06980  Biso   1.000  O
  O67      1.0000 0.03400  0.84200  0.20600  Biso   1.000  O
  O68      1.0000 0.92300  0.84000  0.13900  Biso   1.000  O
  O69      1.0000 0.13470  0.75600  0.32800  Biso   1.000  O
  O70      1.0000 0.05100  0.64000  0.33900  Biso   1.000  O
  O71      1.0000 0.96060  0.55300  0.22800  Biso   1.000  O
  O72      1.0000 0.01590  0.63500  0.20100  Biso   1.000  O
  O73      1.0000 0.55630  0.65100  0.42150  Biso   1.000  O
  O74      1.0000 0.63500  0.46920  0.61780  Biso   1.000  O
  O75      1.0000 0.61140  0.38620  0.78370  Biso   1.000  O
  O76      1.0000 0.77700  0.84510  0.70480  Biso   1.000  O
  O77      1.0000 0.47930  0.72240  0.38330  Biso   1.000  O
  O78      1.0000 0.67630  0.59500  0.62900  Biso   1.000  O
  O79      1.0000 0.74490  0.73400  0.62460  Biso   1.000  O
  O80      1.0000 0.64670  0.45200  0.89740  Biso   1.000  O
  N7       1.0000 0.65880  0.49680  0.75440  Biso   1.000  N
  N8       1.0000 0.63320  0.77050  0.53530  Biso   1.000  N
  La7      1.0000 0.66907  0.62717  0.51305  Biso   1.000  La
  La8      1.0000 0.61000  0.35695  0.67036  Biso   1.000  La
  C43      1.0000 0.68370  0.55200  0.73900  Biso   1.000  C
  C44      1.0000 0.72510  0.61520  0.79450  Biso   1.000  C
  H19      1.0000 0.74410  0.65040  0.78460  Biso   1.000  H
  C45      1.0000 0.73500  0.62000  0.86700  Biso   1.000  C
  H20      1.0000 0.76250  0.66130  0.90580  Biso   1.000  H
  C46      1.0000 0.71240  0.57700  0.88400  Biso   1.000  C
  H21      1.0000 0.72060  0.58680  0.93200  Biso   1.000  H
  C47      1.0000 0.67090  0.50800  0.82600  Biso   1.000  C
  C48      1.0000 0.66030  0.53600  0.65120  Biso   1.000  C
  C49      1.0000 0.64060  0.44800  0.83640  Biso   1.000  C
  C50      1.0000 0.57630  0.78500  0.48800  Biso   1.000  C
  C51      1.0000 0.55720  0.85600  0.50000  Biso   1.000  C
  H22      1.0000 0.51670  0.86390  0.46800  Biso   1.000  H
  C52      1.0000 0.59580  0.91400  0.55790  Biso   1.000  C
  H23      1.0000 0.58280  0.96330  0.56490  Biso   1.000  H
  C53      1.0000 0.65600  0.89800  0.60700  Biso   1.000  C
  H24      1.0000 0.68430  0.93770  0.64640  Biso   1.000  H
  C54      1.0000 0.67450  0.82400  0.59800  Biso   1.000  C
  C55      1.0000 0.53280  0.71400  0.42300  Biso   1.000  C
  C56      1.0000 0.73910  0.80000  0.64800  Biso   1.000  C
  W16      1.0000 0.44711  0.13581  0.05111  Biso   1.000  W
  W17      1.0000 0.57554  0.02400  0.21000  Biso   1.000  W
  W18      1.0000 0.37235  0.02431  0.09151  Biso   1.000  W
  W19      1.0000 0.57634  0.24750  0.20990  Biso   1.000  W
  W20      1.0000 0.37007  0.24712  0.09147  Biso   1.000  W
  O81      1.0000 0.53130  0.93700  0.20380  Biso   1.000  O
  O82      1.0000 0.39760  0.21890  0.04110  Biso   1.000  O
  O83      1.0000 0.42630  0.93400  0.14500  Biso   1.000  O
  O84      1.0000 0.63270  0.01000  0.32900  Biso   1.000  O
  O85      1.0000 0.39760  0.05600  0.03800  Biso   1.000  O
  O86      1.0000 0.60440  0.14000  0.22190  Biso   1.000  O
  O87      1.0000 0.50570  0.22200  0.10200  Biso   1.000  O
  O88      1.0000 0.50530  0.05230  0.09880  Biso   1.000  O
  O89      1.0000 0.53800  0.21100  0.26600  Biso   1.000  O
  O90      1.0000 0.34000  0.14000  0.06980  Biso   1.000  O
  O91      1.0000 0.53400  0.34200  0.20600  Biso   1.000  O
  O92      1.0000 0.42300  0.34000  0.13900  Biso   1.000  O
  O93      1.0000 0.63470  0.25600  0.32800  Biso   1.000  O
  O94      1.0000 0.55100  0.14000  0.33900  Biso   1.000  O
  O95      1.0000 0.46060  0.05300  0.22800  Biso   1.000  O
  O96      1.0000 0.51590  0.13500  0.20100  Biso   1.000  O
  O97      1.0000 0.05630  0.84900  0.92150  Biso   1.000  O
  O98      1.0000 0.13500  0.03080  0.11780  Biso   1.000  O
  O99      1.0000 0.11140  0.11380  0.28370  Biso   1.000  O
  O100     1.0000 0.27700  0.65490  0.20480  Biso   1.000  O
  O101     1.0000 0.97930  0.77760  0.88330  Biso   1.000  O
  O102     1.0000 0.17630  0.90500  0.12900  Biso   1.000  O
  O103     1.0000 0.24490  0.76600  0.12460  Biso   1.000  O
  O104     1.0000 0.14670  0.04800  0.39740  Biso   1.000  O
  N9       1.0000 0.15880  0.00320  0.25440  Biso   1.000  N
  N10      1.0000 0.13320  0.72950  0.03530  Biso   1.000  N
  La9      1.0000 0.16907  0.87283  0.01305  Biso   1.000  La
  La10     1.0000 0.11000  0.14305  0.17036  Biso   1.000  La
  C57      1.0000 0.18370  0.94800  0.23900  Biso   1.000  C
  C58      1.0000 0.22510  0.88480  0.29450  Biso   1.000  C
  H25      1.0000 0.24410  0.84960  0.28460  Biso   1.000  H
  C59      1.0000 0.23500  0.88000  0.36700  Biso   1.000  C
  H26      1.0000 0.26250  0.83870  0.40580  Biso   1.000  H
  C60      1.0000 0.21240  0.92300  0.38400  Biso   1.000  C
  H27      1.0000 0.22060  0.91320  0.43200  Biso   1.000  H
  C61      1.0000 0.17090  0.99200  0.32600  Biso   1.000  C
  C62      1.0000 0.16030  0.96400  0.15120  Biso   1.000  C
  C63      1.0000 0.14060  0.05200  0.33640  Biso   1.000  C
  C64      1.0000 0.07630  0.71500  0.98800  Biso   1.000  C
  C65      1.0000 0.05720  0.64400  0.00000  Biso   1.000  C
  H28      1.0000 0.01670  0.63610  0.96800  Biso   1.000  H
  C66      1.0000 0.09580  0.58600  0.05790  Biso   1.000  C
  H29      1.0000 0.08280  0.53670  0.06490  Biso   1.000  H
  C67      1.0000 0.15600  0.60200  0.10700  Biso   1.000  C
  H30      1.0000 0.18430  0.56230  0.14640  Biso   1.000  H
  C68      1.0000 0.17450  0.67600  0.09800  Biso   1.000  C
  C69      1.0000 0.03280  0.78600  0.92300  Biso   1.000  C
  C70      1.0000 0.23910  0.70000  0.14800  Biso   1.000  C
  W21      1.0000 0.94711  0.36419  0.55111  Biso   1.000  W
  W22      1.0000 0.07554  0.47600  0.71000  Biso   1.000  W
  W23      1.0000 0.87235  0.47569  0.59151  Biso   1.000  W
  W24      1.0000 0.07634  0.25250  0.70990  Biso   1.000  W
  W25      1.0000 0.87007  0.25288  0.59147  Biso   1.000  W
  O105     1.0000 0.03130  0.56300  0.70380  Biso   1.000  O
  O106     1.0000 0.89760  0.28110  0.54110  Biso   1.000  O
  O107     1.0000 0.92630  0.56600  0.64500  Biso   1.000  O
  O108     1.0000 0.13270  0.49000  0.82900  Biso   1.000  O
  O109     1.0000 0.89760  0.44400  0.53800  Biso   1.000  O
  O110     1.0000 0.10440  0.36000  0.72190  Biso   1.000  O
  O111     1.0000 0.00570  0.27800  0.60200  Biso   1.000  O
  O112     1.0000 0.00530  0.44770  0.59880  Biso   1.000  O
  O113     1.0000 0.03800  0.28900  0.76600  Biso   1.000  O
  O114     1.0000 0.84000  0.36000  0.56980  Biso   1.000  O
  O115     1.0000 0.03400  0.15800  0.70600  Biso   1.000  O
  O116     1.0000 0.92300  0.16000  0.63900  Biso   1.000  O
  O117     1.0000 0.13470  0.24400  0.82800  Biso   1.000  O
  O118     1.0000 0.05100  0.36000  0.83900  Biso   1.000  O
  O119     1.0000 0.96060  0.44700  0.72800  Biso   1.000  O
  O120     1.0000 0.01590  0.36500  0.70100  Biso   1.000  O
  O121     1.0000 0.55630  0.34900  0.92150  Biso   1.000  O
  O122     1.0000 0.63500  0.53080  0.11780  Biso   1.000  O
  O123     1.0000 0.61140  0.61380  0.28370  Biso   1.000  O
  O124     1.0000 0.77700  0.15490  0.20480  Biso   1.000  O
  O125     1.0000 0.47930  0.27760  0.88330  Biso   1.000  O
  O126     1.0000 0.67630  0.40500  0.12900  Biso   1.000  O
  O127     1.0000 0.74490  0.26600  0.12460  Biso   1.000  O
  O128     1.0000 0.64670  0.54800  0.39740  Biso   1.000  O
  N11      1.0000 0.65880  0.50320  0.25440  Biso   1.000  N
  N12      1.0000 0.63320  0.22950  0.03530  Biso   1.000  N
  La11     1.0000 0.66907  0.37283  0.01305  Biso   1.000  La
  La12     1.0000 0.61000  0.64305  0.17036  Biso   1.000  La
  C71      1.0000 0.68370  0.44800  0.23900  Biso   1.000  C
  C72      1.0000 0.72510  0.38480  0.29450  Biso   1.000  C
  H31      1.0000 0.74410  0.34960  0.28460  Biso   1.000  H
  C73      1.0000 0.73500  0.38000  0.36700  Biso   1.000  C
  H32      1.0000 0.76250  0.33870  0.40580  Biso   1.000  H
  C74      1.0000 0.71240  0.42300  0.38400  Biso   1.000  C
  H33      1.0000 0.72060  0.41320  0.43200  Biso   1.000  H
  C75      1.0000 0.67090  0.49200  0.32600  Biso   1.000  C
  C76      1.0000 0.66030  0.46400  0.15120  Biso   1.000  C
  C77      1.0000 0.64060  0.55200  0.33640  Biso   1.000  C
  C78      1.0000 0.57630  0.21500  0.98800  Biso   1.000  C
  C79      1.0000 0.55720  0.14400  0.00000  Biso   1.000  C
  H34      1.0000 0.51670  0.13610  0.96800  Biso   1.000  H
  C80      1.0000 0.59580  0.08600  0.05790  Biso   1.000  C
  H35      1.0000 0.58280  0.03670  0.06490  Biso   1.000  H
  C81      1.0000 0.65600  0.10200  0.10700  Biso   1.000  C
  H36      1.0000 0.68430  0.06230  0.14640  Biso   1.000  H
  C82      1.0000 0.67450  0.17600  0.09800  Biso   1.000  C
  C83      1.0000 0.53280  0.28600  0.92300  Biso   1.000  C
  C84      1.0000 0.73910  0.20000  0.14800  Biso   1.000  C
  W26      1.0000 0.44711  0.86419  0.55111  Biso   1.000  W
  W27      1.0000 0.57554  0.97600  0.71000  Biso   1.000  W
  W28      1.0000 0.37235  0.97569  0.59151  Biso   1.000  W
  W29      1.0000 0.57634  0.75250  0.70990  Biso   1.000  W
  W30      1.0000 0.37007  0.75288  0.59147  Biso   1.000  W
  O129     1.0000 0.53130  0.06300  0.70380  Biso   1.000  O
  O130     1.0000 0.39760  0.78110  0.54110  Biso   1.000  O
  O131     1.0000 0.42630  0.06600  0.64500  Biso   1.000  O
  O132     1.0000 0.63270  0.99000  0.82900  Biso   1.000  O
  O133     1.0000 0.39760  0.94400  0.53800  Biso   1.000  O
  O134     1.0000 0.60440  0.86000  0.72190  Biso   1.000  O
  O135     1.0000 0.50570  0.77800  0.60200  Biso   1.000  O
  O136     1.0000 0.50530  0.94770  0.59880  Biso   1.000  O
  O137     1.0000 0.53800  0.78900  0.76600  Biso   1.000  O
  O138     1.0000 0.34000  0.86000  0.56980  Biso   1.000  O
  O139     1.0000 0.53400  0.65800  0.70600  Biso   1.000  O
  O140     1.0000 0.42300  0.66000  0.63900  Biso   1.000  O
  O141     1.0000 0.63470  0.74400  0.82800  Biso   1.000  O
  O142     1.0000 0.55100  0.86000  0.83900  Biso   1.000  O
  O143     1.0000 0.46060  0.94700  0.72800  Biso   1.000  O
  O144     1.0000 0.51590  0.86500  0.70100  Biso   1.000  O
  O145     1.0000 0.94370  0.84900  0.57850  Biso   1.000  O
  O146     1.0000 0.86500  0.03080  0.38220  Biso   1.000  O
  O147     1.0000 0.88860  0.11380  0.21630  Biso   1.000  O
  O148     1.0000 0.72300  0.65490  0.29520  Biso   1.000  O
  O149     1.0000 0.02070  0.77760  0.61670  Biso   1.000  O
  O150     1.0000 0.82370  0.90500  0.37100  Biso   1.000  O
  O151     1.0000 0.75510  0.76600  0.37540  Biso   1.000  O
  O152     1.0000 0.85330  0.04800  0.10260  Biso   1.000  O
  N13      1.0000 0.84120  0.00320  0.24560  Biso   1.000  N
  N14      1.0000 0.86680  0.72950  0.46470  Biso   1.000  N
  La13     1.0000 0.83093  0.87283  0.48695  Biso   1.000  La
  La14     1.0000 0.89000  0.14305  0.32964  Biso   1.000  La
  C85      1.0000 0.81630  0.94800  0.26100  Biso   1.000  C
  C86      1.0000 0.77490  0.88480  0.20550  Biso   1.000  C
  H37      1.0000 0.75590  0.84960  0.21540  Biso   1.000  H
  C87      1.0000 0.76500  0.88000  0.13300  Biso   1.000  C
  H38      1.0000 0.73750  0.83870  0.09420  Biso   1.000  H
  C88      1.0000 0.78760  0.92300  0.11600  Biso   1.000  C
  H39      1.0000 0.77940  0.91320  0.06800  Biso   1.000  H
  C89      1.0000 0.82910  0.99200  0.17400  Biso   1.000  C
  C90      1.0000 0.83970  0.96400  0.34880  Biso   1.000  C
  C91      1.0000 0.85940  0.05200  0.16360  Biso   1.000  C
  C92      1.0000 0.92370  0.71500  0.51200  Biso   1.000  C
  C93      1.0000 0.94280  0.64400  0.50000  Biso   1.000  C
  H40      1.0000 0.98330  0.63610  0.53200  Biso   1.000  H
  C94      1.0000 0.90420  0.58600  0.44210  Biso   1.000  C
  H41      1.0000 0.91720  0.53670  0.43510  Biso   1.000  H
  C95      1.0000 0.84400  0.60200  0.39300  Biso   1.000  C
  H42      1.0000 0.81570  0.56230  0.35360  Biso   1.000  H
  C96      1.0000 0.82550  0.67600  0.40200  Biso   1.000  C
  C97      1.0000 0.96720  0.78600  0.57700  Biso   1.000  C
  C98      1.0000 0.76090  0.70000  0.35200  Biso   1.000  C
  W31      1.0000 0.05289  0.36419  0.94889  Biso   1.000  W
  W32      1.0000 0.92446  0.47600  0.79000  Biso   1.000  W
  W33      1.0000 0.12765  0.47569  0.90849  Biso   1.000  W
  W34      1.0000 0.92366  0.25250  0.79010  Biso   1.000  W
  W35      1.0000 0.12993  0.25288  0.90853  Biso   1.000  W
  O153     1.0000 0.96870  0.56300  0.79620  Biso   1.000  O
  O154     1.0000 0.10240  0.28110  0.95890  Biso   1.000  O
  O155     1.0000 0.07370  0.56600  0.85500  Biso   1.000  O
  O156     1.0000 0.86730  0.49000  0.67100  Biso   1.000  O
  O157     1.0000 0.10240  0.44400  0.96200  Biso   1.000  O
  O158     1.0000 0.89560  0.36000  0.77810  Biso   1.000  O
  O159     1.0000 0.99430  0.27800  0.89800  Biso   1.000  O
  O160     1.0000 0.99470  0.44770  0.90120  Biso   1.000  O
  O161     1.0000 0.96200  0.28900  0.73400  Biso   1.000  O
  O162     1.0000 0.16000  0.36000  0.93020  Biso   1.000  O
  O163     1.0000 0.96600  0.15800  0.79400  Biso   1.000  O
  O164     1.0000 0.07700  0.16000  0.86100  Biso   1.000  O
  O165     1.0000 0.86530  0.24400  0.67200  Biso   1.000  O
  O166     1.0000 0.94900  0.36000  0.66100  Biso   1.000  O
  O167     1.0000 0.03940  0.44700  0.77200  Biso   1.000  O
  O168     1.0000 0.98410  0.36500  0.79900  Biso   1.000  O
  O169     1.0000 0.44370  0.34900  0.57850  Biso   1.000  O
  O170     1.0000 0.36500  0.53080  0.38220  Biso   1.000  O
  O171     1.0000 0.38860  0.61380  0.21630  Biso   1.000  O
  O172     1.0000 0.22300  0.15490  0.29520  Biso   1.000  O
  O173     1.0000 0.52070  0.27760  0.61670  Biso   1.000  O
  O174     1.0000 0.32370  0.40500  0.37100  Biso   1.000  O
  O175     1.0000 0.25510  0.26600  0.37540  Biso   1.000  O
  O176     1.0000 0.35330  0.54800  0.10260  Biso   1.000  O
  N15      1.0000 0.34120  0.50320  0.24560  Biso   1.000  N
  N16      1.0000 0.36680  0.22950  0.46470  Biso   1.000  N
  La15     1.0000 0.33093  0.37283  0.48695  Biso   1.000  La
  La16     1.0000 0.39000  0.64305  0.32964  Biso   1.000  La
  C99      1.0000 0.31630  0.44800  0.26100  Biso   1.000  C
  C100     1.0000 0.27490  0.38480  0.20550  Biso   1.000  C
  H43      1.0000 0.25590  0.34960  0.21540  Biso   1.000  H
  C101     1.0000 0.26500  0.38000  0.13300  Biso   1.000  C
  H44      1.0000 0.23750  0.33870  0.09420  Biso   1.000  H
  C102     1.0000 0.28760  0.42300  0.11600  Biso   1.000  C
  H45      1.0000 0.27940  0.41320  0.06800  Biso   1.000  H
  C103     1.0000 0.32910  0.49200  0.17400  Biso   1.000  C
  C104     1.0000 0.33970  0.46400  0.34880  Biso   1.000  C
  C105     1.0000 0.35940  0.55200  0.16360  Biso   1.000  C
  C106     1.0000 0.42370  0.21500  0.51200  Biso   1.000  C
  C107     1.0000 0.44280  0.14400  0.50000  Biso   1.000  C
  H46      1.0000 0.48330  0.13610  0.53200  Biso   1.000  H
  C108     1.0000 0.40420  0.08600  0.44210  Biso   1.000  C
  H47      1.0000 0.41720  0.03670  0.43510  Biso   1.000  H
  C109     1.0000 0.34400  0.10200  0.39300  Biso   1.000  C
  H48      1.0000 0.31570  0.06230  0.35360  Biso   1.000  H
  C110     1.0000 0.32550  0.17600  0.40200  Biso   1.000  C
  C111     1.0000 0.46720  0.28600  0.57700  Biso   1.000  C
  C112     1.0000 0.26090  0.20000  0.35200  Biso   1.000  C
  W36      1.0000 0.55289  0.86419  0.94889  Biso   1.000  W
  W37      1.0000 0.42446  0.97600  0.79000  Biso   1.000  W
  W38      1.0000 0.62765  0.97569  0.90849  Biso   1.000  W
  W39      1.0000 0.42366  0.75250  0.79010  Biso   1.000  W
  W40      1.0000 0.62993  0.75288  0.90853  Biso   1.000  W
  O177     1.0000 0.46870  0.06300  0.79620  Biso   1.000  O
  O178     1.0000 0.60240  0.78110  0.95890  Biso   1.000  O
  O179     1.0000 0.57370  0.06600  0.85500  Biso   1.000  O
  O180     1.0000 0.36730  0.99000  0.67100  Biso   1.000  O
  O181     1.0000 0.60240  0.94400  0.96200  Biso   1.000  O
  O182     1.0000 0.39560  0.86000  0.77810  Biso   1.000  O
  O183     1.0000 0.49430  0.77800  0.89800  Biso   1.000  O
  O184     1.0000 0.49470  0.94770  0.90120  Biso   1.000  O
  O185     1.0000 0.46200  0.78900  0.73400  Biso   1.000  O
  O186     1.0000 0.66000  0.86000  0.93020  Biso   1.000  O
  O187     1.0000 0.46600  0.65800  0.79400  Biso   1.000  O
  O188     1.0000 0.57700  0.66000  0.86100  Biso   1.000  O
  O189     1.0000 0.36530  0.74400  0.67200  Biso   1.000  O
  O190     1.0000 0.44900  0.86000  0.66100  Biso   1.000  O
  O191     1.0000 0.53940  0.94700  0.77200  Biso   1.000  O
  O192     1.0000 0.48410  0.86500  0.79900  Biso   1.000  O
  K1       1.0000 0.00000  0.13640  0.25000  Biso   1.000  K
  W41      1.0000 0.00000  0.41112  0.25000  Biso   1.000  W
  W42      1.0000 0.00000  0.85826  0.25000  Biso   1.000  W
  B1       1.0000 0.00000  0.63200  0.25000  Biso   1.000  B
  O193     1.0000 0.00000  0.30100  0.25000  Biso   1.000  O
  O194     1.0000 0.00000  0.96000  0.25000  Biso   1.000  O
  K2       1.0000 0.50000  0.63640  0.25000  Biso   1.000  K
  W43      1.0000 0.50000  0.91112  0.25000  Biso   1.000  W
  W44      1.0000 0.50000  0.35826  0.25000  Biso   1.000  W
  B2       1.0000 0.50000  0.13200  0.25000  Biso   1.000  B
  O195     1.0000 0.50000  0.80100  0.25000  Biso   1.000  O
  O196     1.0000 0.50000  0.46000  0.25000  Biso   1.000  O
  K3       1.0000 0.00000  0.86360  0.75000  Biso   1.000  K
  W45      1.0000 0.00000  0.58888  0.75000  Biso   1.000  W
  W46      1.0000 0.00000  0.14174  0.75000  Biso   1.000  W
  B3       1.0000 0.00000  0.36800  0.75000  Biso   1.000  B
  O197     1.0000 0.00000  0.69900  0.75000  Biso   1.000  O
  O198     1.0000 0.00000  0.04000  0.75000  Biso   1.000  O
  K4       1.0000 0.50000  0.36360  0.75000  Biso   1.000  K
  W47      1.0000 0.50000  0.08888  0.75000  Biso   1.000  W
  W48      1.0000 0.50000  0.64174  0.75000  Biso   1.000  W
  B4       1.0000 0.50000  0.86800  0.75000  Biso   1.000  B
  O199     1.0000 0.50000  0.19900  0.75000  Biso   1.000  O
  O200     1.0000 0.50000  0.54000  0.75000  Biso   1.000  O
