data_image0
_cell_length_a       30.685
_cell_length_b       15.5835
_cell_length_c       22.0529
_cell_angle_alpha    90
_cell_angle_beta     132.984
_cell_angle_gamma    90

_symmetry_space_group_name_H-M    "P 1"
_symmetry_int_tables_number       1

loop_
  _symmetry_equiv_pos_as_xyz
  'x, y, z'

loop_
  _atom_site_label
  _atom_site_occupancy
  _atom_site_fract_x
  _atom_site_fract_y
  _atom_site_fract_z
  _atom_site_thermal_displace_type
  _atom_site_B_iso_or_equiv
  _atom_site_type_symbol
  W1       1.0000 0.05303  0.13553  0.44942  Biso   1.000  W
  W2       1.0000 0.92419  0.02375  0.29015  Biso   1.000  W
  W3       1.0000 0.12807  0.02384  0.40901  Biso   1.000  W
  W4       1.0000 0.92342  0.24729  0.29039  Biso   1.000  W
  W5       1.0000 0.13024  0.24694  0.40873  Biso   1.000  W
  Ce1      1.0000 0.88972  0.64227  0.32851  Biso   1.000  Ce
  Ce2      1.0000 0.83092  0.62693  0.98638  Biso   1.000  Ce
  N1       1.0000 0.84200  0.50320  0.24530  Biso   1.000  N
  N2       1.0000 0.13230  0.76660  0.53430  Biso   1.000  N
  C1       1.0000 0.17400  0.82370  0.59770  Biso   1.000  C
  C2       1.0000 0.76410  0.37820  0.13510  Biso   1.000  C
  H1       1.0000 0.73720  0.33630  0.09730  Biso   1.000  H
  C3       1.0000 0.03200  0.71100  0.42310  Biso   1.000  C
  C4       1.0000 0.82980  0.49200  0.17600  Biso   1.000  C
  C5       1.0000 0.78960  0.42680  0.11690  Biso   1.000  C
  H2       1.0000 0.78170  0.41890  0.06840  Biso   1.000  H
  C6       1.0000 0.07450  0.78310  0.48730  Biso   1.000  C
  C7       1.0000 0.23850  0.79820  0.64640  Biso   1.000  C
  C8       1.0000 0.83800  0.46280  0.34680  Biso   1.000  C
  C9       1.0000 0.85880  0.55600  0.16320  Biso   1.000  C
  C10      1.0000 0.05590  0.85480  0.49860  Biso   1.000  C
  H3       1.0000 0.01550  0.86490  0.46580  Biso   1.000  H
  C11      1.0000 0.77550  0.38670  0.20560  Biso   1.000  C
  H4       1.0000 0.75560  0.35400  0.21560  Biso   1.000  H
  C12      1.0000 0.09760  0.91340  0.55940  Biso   1.000  C
  H5       1.0000 0.08490  0.96310  0.56670  Biso   1.000  H
  C13      1.0000 0.81920  0.44800  0.26400  Biso   1.000  C
  C14      1.0000 0.15710  0.89860  0.60850  Biso   1.000  C
  H6       1.0000 0.18530  0.93840  0.64810  Biso   1.000  H
  O1       1.0000 0.27780  0.84490  0.70470  Biso   1.000  O
  O2       1.0000 0.24550  0.73310  0.62450  Biso   1.000  O
  O3       1.0000 0.97930  0.72060  0.38190  Biso   1.000  O
  O4       1.0000 0.05740  0.64940  0.42180  Biso   1.000  O
  O5       1.0000 0.85080  0.54760  0.10100  Biso   1.000  O
  O6       1.0000 0.88850  0.61550  0.21620  Biso   1.000  O
  O7       1.0000 0.82430  0.40580  0.37190  Biso   1.000  O
  O8       1.0000 0.86560  0.53170  0.38320  Biso   1.000  O
  O9       1.0000 0.13410  0.25600  0.32610  Biso   1.000  O
  O10      1.0000 0.10280  0.05440  0.46280  Biso   1.000  O
  O11      1.0000 0.16010  0.13860  0.43110  Biso   1.000  O
  O12      1.0000 0.99470  0.05160  0.40100  Biso   1.000  O
  O13      1.0000 0.96800  0.93490  0.29540  Biso   1.000  O
  O14      1.0000 0.10260  0.21640  0.46000  Biso   1.000  O
  O15      1.0000 0.99590  0.22320  0.39940  Biso   1.000  O
  O16      1.0000 0.89530  0.14170  0.28060  Biso   1.000  O
  O17      1.0000 0.96370  0.06600  0.22900  Biso   1.000  O
  O18      1.0000 0.95060  0.13600  0.16680  Biso   1.000  O
  O19      1.0000 0.98590  0.14100  0.29800  Biso   1.000  O
  O20      1.0000 0.13140  0.01500  0.32600  Biso   1.000  O
  O21      1.0000 0.03400  0.33800  0.20630  Biso   1.000  O
  O22      1.0000 0.07700  0.34100  0.35850  Biso   1.000  O
  O23      1.0000 0.07380  0.92800  0.35470  Biso   1.000  O
  O24      1.0000 0.03610  0.20500  0.26900  Biso   1.000  O
  W6       1.0000 0.55303  0.63553  0.44942  Biso   1.000  W
  W7       1.0000 0.42419  0.52375  0.29015  Biso   1.000  W
  W8       1.0000 0.62807  0.52384  0.40901  Biso   1.000  W
  W9       1.0000 0.42342  0.74729  0.29039  Biso   1.000  W
  W10      1.0000 0.63024  0.74694  0.40873  Biso   1.000  W
  Ce3      1.0000 0.38972  0.14227  0.32851  Biso   1.000  Ce
  Ce4      1.0000 0.33092  0.12693  0.98638  Biso   1.000  Ce
  N3       1.0000 0.34200  0.00320  0.24530  Biso   1.000  N
  N4       1.0000 0.63230  0.26660  0.53430  Biso   1.000  N
  C15      1.0000 0.67400  0.32370  0.59770  Biso   1.000  C
  C16      1.0000 0.26410  0.87820  0.13510  Biso   1.000  C
  H7       1.0000 0.23720  0.83630  0.09730  Biso   1.000  H
  C17      1.0000 0.53200  0.21100  0.42310  Biso   1.000  C
  C18      1.0000 0.32980  0.99200  0.17600  Biso   1.000  C
  C19      1.0000 0.28960  0.92680  0.11690  Biso   1.000  C
  H8       1.0000 0.28170  0.91890  0.06840  Biso   1.000  H
  C20      1.0000 0.57450  0.28310  0.48730  Biso   1.000  C
  C21      1.0000 0.73850  0.29820  0.64640  Biso   1.000  C
  C22      1.0000 0.33800  0.96280  0.34680  Biso   1.000  C
  C23      1.0000 0.35880  0.05600  0.16320  Biso   1.000  C
  C24      1.0000 0.55590  0.35480  0.49860  Biso   1.000  C
  H9       1.0000 0.51550  0.36490  0.46580  Biso   1.000  H
  C25      1.0000 0.27550  0.88670  0.20560  Biso   1.000  C
  H10      1.0000 0.25560  0.85400  0.21560  Biso   1.000  H
  C26      1.0000 0.59760  0.41340  0.55940  Biso   1.000  C
  H11      1.0000 0.58490  0.46310  0.56670  Biso   1.000  H
  C27      1.0000 0.31920  0.94800  0.26400  Biso   1.000  C
  C28      1.0000 0.65710  0.39860  0.60850  Biso   1.000  C
  H12      1.0000 0.68530  0.43840  0.64810  Biso   1.000  H
  O25      1.0000 0.77780  0.34490  0.70470  Biso   1.000  O
  O26      1.0000 0.74550  0.23310  0.62450  Biso   1.000  O
  O27      1.0000 0.47930  0.22060  0.38190  Biso   1.000  O
  O28      1.0000 0.55740  0.14940  0.42180  Biso   1.000  O
  O29      1.0000 0.35080  0.04760  0.10100  Biso   1.000  O
  O30      1.0000 0.38850  0.11550  0.21620  Biso   1.000  O
  O31      1.0000 0.32430  0.90580  0.37190  Biso   1.000  O
  O32      1.0000 0.36560  0.03170  0.38320  Biso   1.000  O
  O33      1.0000 0.63410  0.75600  0.32610  Biso   1.000  O
  O34      1.0000 0.60280  0.55440  0.46280  Biso   1.000  O
  O35      1.0000 0.66010  0.63860  0.43110  Biso   1.000  O
  O36      1.0000 0.49470  0.55160  0.40100  Biso   1.000  O
  O37      1.0000 0.46800  0.43490  0.29540  Biso   1.000  O
  O38      1.0000 0.60260  0.71640  0.46000  Biso   1.000  O
  O39      1.0000 0.49590  0.72320  0.39940  Biso   1.000  O
  O40      1.0000 0.39530  0.64170  0.28060  Biso   1.000  O
  O41      1.0000 0.46370  0.56600  0.22900  Biso   1.000  O
  O42      1.0000 0.45060  0.63600  0.16680  Biso   1.000  O
  O43      1.0000 0.48590  0.64100  0.29800  Biso   1.000  O
  O44      1.0000 0.63140  0.51500  0.32600  Biso   1.000  O
  O45      1.0000 0.53400  0.83800  0.20630  Biso   1.000  O
  O46      1.0000 0.57700  0.84100  0.35850  Biso   1.000  O
  O47      1.0000 0.57380  0.42800  0.35470  Biso   1.000  O
  O48      1.0000 0.53610  0.70500  0.26900  Biso   1.000  O
  W11      1.0000 0.94697  0.13553  0.05058  Biso   1.000  W
  W12      1.0000 0.07581  0.02375  0.20985  Biso   1.000  W
  W13      1.0000 0.87193  0.02384  0.09099  Biso   1.000  W
  W14      1.0000 0.07658  0.24729  0.20961  Biso   1.000  W
  W15      1.0000 0.86976  0.24694  0.09127  Biso   1.000  W
  Ce5      1.0000 0.11028  0.64227  0.17149  Biso   1.000  Ce
  Ce6      1.0000 0.16908  0.62693  0.51362  Biso   1.000  Ce
  N5       1.0000 0.15800  0.50320  0.25470  Biso   1.000  N
  N6       1.0000 0.86770  0.76660  0.96570  Biso   1.000  N
  C29      1.0000 0.82600  0.82370  0.90230  Biso   1.000  C
  C30      1.0000 0.23590  0.37820  0.36490  Biso   1.000  C
  H13      1.0000 0.26280  0.33630  0.40270  Biso   1.000  H
  C31      1.0000 0.96800  0.71100  0.07690  Biso   1.000  C
  C32      1.0000 0.17020  0.49200  0.32400  Biso   1.000  C
  C33      1.0000 0.21040  0.42680  0.38310  Biso   1.000  C
  H14      1.0000 0.21830  0.41890  0.43160  Biso   1.000  H
  C34      1.0000 0.92550  0.78310  0.01270  Biso   1.000  C
  C35      1.0000 0.76150  0.79820  0.85360  Biso   1.000  C
  C36      1.0000 0.16200  0.46280  0.15320  Biso   1.000  C
  C37      1.0000 0.14120  0.55600  0.33680  Biso   1.000  C
  C38      1.0000 0.94410  0.85480  0.00140  Biso   1.000  C
  H15      1.0000 0.98450  0.86490  0.03420  Biso   1.000  H
  C39      1.0000 0.22450  0.38670  0.29440  Biso   1.000  C
  H16      1.0000 0.24440  0.35400  0.28440  Biso   1.000  H
  C40      1.0000 0.90240  0.91340  0.94060  Biso   1.000  C
  H17      1.0000 0.91510  0.96310  0.93330  Biso   1.000  H
  C41      1.0000 0.18080  0.44800  0.23600  Biso   1.000  C
  C42      1.0000 0.84290  0.89860  0.89150  Biso   1.000  C
  H18      1.0000 0.81470  0.93840  0.85190  Biso   1.000  H
  O49      1.0000 0.72220  0.84490  0.79530  Biso   1.000  O
  O50      1.0000 0.75450  0.73310  0.87550  Biso   1.000  O
  O51      1.0000 0.02070  0.72060  0.11810  Biso   1.000  O
  O52      1.0000 0.94260  0.64940  0.07820  Biso   1.000  O
  O53      1.0000 0.14920  0.54760  0.39900  Biso   1.000  O
  O54      1.0000 0.11150  0.61550  0.28380  Biso   1.000  O
  O55      1.0000 0.17570  0.40580  0.12810  Biso   1.000  O
  O56      1.0000 0.13440  0.53170  0.11680  Biso   1.000  O
  O57      1.0000 0.86590  0.25600  0.17390  Biso   1.000  O
  O58      1.0000 0.89720  0.05440  0.03720  Biso   1.000  O
  O59      1.0000 0.83990  0.13860  0.06890  Biso   1.000  O
  O60      1.0000 0.00530  0.05160  0.09900  Biso   1.000  O
  O61      1.0000 0.03200  0.93490  0.20460  Biso   1.000  O
  O62      1.0000 0.89740  0.21640  0.04000  Biso   1.000  O
  O63      1.0000 0.00410  0.22320  0.10060  Biso   1.000  O
  O64      1.0000 0.10470  0.14170  0.21940  Biso   1.000  O
  O65      1.0000 0.03630  0.06600  0.27100  Biso   1.000  O
  O66      1.0000 0.04940  0.13600  0.33320  Biso   1.000  O
  O67      1.0000 0.01410  0.14100  0.20200  Biso   1.000  O
  O68      1.0000 0.86860  0.01500  0.17400  Biso   1.000  O
  O69      1.0000 0.96600  0.33800  0.29370  Biso   1.000  O
  O70      1.0000 0.92300  0.34100  0.14150  Biso   1.000  O
  O71      1.0000 0.92620  0.92800  0.14530  Biso   1.000  O
  O72      1.0000 0.96390  0.20500  0.23100  Biso   1.000  O
  W16      1.0000 0.44697  0.63553  0.05058  Biso   1.000  W
  W17      1.0000 0.57581  0.52375  0.20985  Biso   1.000  W
  W18      1.0000 0.37193  0.52384  0.09099  Biso   1.000  W
  W19      1.0000 0.57658  0.74729  0.20961  Biso   1.000  W
  W20      1.0000 0.36976  0.74694  0.09127  Biso   1.000  W
  Ce7      1.0000 0.61028  0.14227  0.17149  Biso   1.000  Ce
  Ce8      1.0000 0.66908  0.12693  0.51362  Biso   1.000  Ce
  N7       1.0000 0.65800  0.00320  0.25470  Biso   1.000  N
  N8       1.0000 0.36770  0.26660  0.96570  Biso   1.000  N
  C43      1.0000 0.32600  0.32370  0.90230  Biso   1.000  C
  C44      1.0000 0.73590  0.87820  0.36490  Biso   1.000  C
  H19      1.0000 0.76280  0.83630  0.40270  Biso   1.000  H
  C45      1.0000 0.46800  0.21100  0.07690  Biso   1.000  C
  C46      1.0000 0.67020  0.99200  0.32400  Biso   1.000  C
  C47      1.0000 0.71040  0.92680  0.38310  Biso   1.000  C
  H20      1.0000 0.71830  0.91890  0.43160  Biso   1.000  H
  C48      1.0000 0.42550  0.28310  0.01270  Biso   1.000  C
  C49      1.0000 0.26150  0.29820  0.85360  Biso   1.000  C
  C50      1.0000 0.66200  0.96280  0.15320  Biso   1.000  C
  C51      1.0000 0.64120  0.05600  0.33680  Biso   1.000  C
  C52      1.0000 0.44410  0.35480  0.00140  Biso   1.000  C
  H21      1.0000 0.48450  0.36490  0.03420  Biso   1.000  H
  C53      1.0000 0.72450  0.88670  0.29440  Biso   1.000  C
  H22      1.0000 0.74440  0.85400  0.28440  Biso   1.000  H
  C54      1.0000 0.40240  0.41340  0.94060  Biso   1.000  C
  H23      1.0000 0.41510  0.46310  0.93330  Biso   1.000  H
  C55      1.0000 0.68080  0.94800  0.23600  Biso   1.000  C
  C56      1.0000 0.34290  0.39860  0.89150  Biso   1.000  C
  H24      1.0000 0.31470  0.43840  0.85190  Biso   1.000  H
  O73      1.0000 0.22220  0.34490  0.79530  Biso   1.000  O
  O74      1.0000 0.25450  0.23310  0.87550  Biso   1.000  O
  O75      1.0000 0.52070  0.22060  0.11810  Biso   1.000  O
  O76      1.0000 0.44260  0.14940  0.07820  Biso   1.000  O
  O77      1.0000 0.64920  0.04760  0.39900  Biso   1.000  O
  O78      1.0000 0.61150  0.11550  0.28380  Biso   1.000  O
  O79      1.0000 0.67570  0.90580  0.12810  Biso   1.000  O
  O80      1.0000 0.63440  0.03170  0.11680  Biso   1.000  O
  O81      1.0000 0.36590  0.75600  0.17390  Biso   1.000  O
  O82      1.0000 0.39720  0.55440  0.03720  Biso   1.000  O
  O83      1.0000 0.33990  0.63860  0.06890  Biso   1.000  O
  O84      1.0000 0.50530  0.55160  0.09900  Biso   1.000  O
  O85      1.0000 0.53200  0.43490  0.20460  Biso   1.000  O
  O86      1.0000 0.39740  0.71640  0.04000  Biso   1.000  O
  O87      1.0000 0.50410  0.72320  0.10060  Biso   1.000  O
  O88      1.0000 0.60470  0.64170  0.21940  Biso   1.000  O
  O89      1.0000 0.53630  0.56600  0.27100  Biso   1.000  O
  O90      1.0000 0.54940  0.63600  0.33320  Biso   1.000  O
  O91      1.0000 0.51410  0.64100  0.20200  Biso   1.000  O
  O92      1.0000 0.36860  0.51500  0.17400  Biso   1.000  O
  O93      1.0000 0.46600  0.83800  0.29370  Biso   1.000  O
  O94      1.0000 0.42300  0.84100  0.14150  Biso   1.000  O
  O95      1.0000 0.42620  0.42800  0.14530  Biso   1.000  O
  O96      1.0000 0.46390  0.70500  0.23100  Biso   1.000  O
  W21      1.0000 0.94697  0.86447  0.55058  Biso   1.000  W
  W22      1.0000 0.07581  0.97625  0.70985  Biso   1.000  W
  W23      1.0000 0.87193  0.97616  0.59099  Biso   1.000  W
  W24      1.0000 0.07658  0.75271  0.70961  Biso   1.000  W
  W25      1.0000 0.86976  0.75306  0.59127  Biso   1.000  W
  Ce9      1.0000 0.11028  0.35773  0.67149  Biso   1.000  Ce
  Ce10     1.0000 0.16908  0.37307  0.01362  Biso   1.000  Ce
  N9       1.0000 0.15800  0.49680  0.75470  Biso   1.000  N
  N10      1.0000 0.86770  0.23340  0.46570  Biso   1.000  N
  C57      1.0000 0.82600  0.17630  0.40230  Biso   1.000  C
  C58      1.0000 0.23590  0.62180  0.86490  Biso   1.000  C
  H25      1.0000 0.26280  0.66370  0.90270  Biso   1.000  H
  C59      1.0000 0.96800  0.28900  0.57690  Biso   1.000  C
  C60      1.0000 0.17020  0.50800  0.82400  Biso   1.000  C
  C61      1.0000 0.21040  0.57320  0.88310  Biso   1.000  C
  H26      1.0000 0.21830  0.58110  0.93160  Biso   1.000  H
  C62      1.0000 0.92550  0.21690  0.51270  Biso   1.000  C
  C63      1.0000 0.76150  0.20180  0.35360  Biso   1.000  C
  C64      1.0000 0.16200  0.53720  0.65320  Biso   1.000  C
  C65      1.0000 0.14120  0.44400  0.83680  Biso   1.000  C
  C66      1.0000 0.94410  0.14520  0.50140  Biso   1.000  C
  H27      1.0000 0.98450  0.13510  0.53420  Biso   1.000  H
  C67      1.0000 0.22450  0.61330  0.79440  Biso   1.000  C
  H28      1.0000 0.24440  0.64600  0.78440  Biso   1.000  H
  C68      1.0000 0.90240  0.08660  0.44060  Biso   1.000  C
  H29      1.0000 0.91510  0.03690  0.43330  Biso   1.000  H
  C69      1.0000 0.18080  0.55200  0.73600  Biso   1.000  C
  C70      1.0000 0.84290  0.10140  0.39150  Biso   1.000  C
  H30      1.0000 0.81470  0.06160  0.35190  Biso   1.000  H
  O97      1.0000 0.72220  0.15510  0.29530  Biso   1.000  O
  O98      1.0000 0.75450  0.26690  0.37550  Biso   1.000  O
  O99      1.0000 0.02070  0.27940  0.61810  Biso   1.000  O
  O100     1.0000 0.94260  0.35060  0.57820  Biso   1.000  O
  O101     1.0000 0.14920  0.45240  0.89900  Biso   1.000  O
  O102     1.0000 0.11150  0.38450  0.78380  Biso   1.000  O
  O103     1.0000 0.17570  0.59420  0.62810  Biso   1.000  O
  O104     1.0000 0.13440  0.46830  0.61680  Biso   1.000  O
  O105     1.0000 0.86590  0.74400  0.67390  Biso   1.000  O
  O106     1.0000 0.89720  0.94560  0.53720  Biso   1.000  O
  O107     1.0000 0.83990  0.86140  0.56890  Biso   1.000  O
  O108     1.0000 0.00530  0.94840  0.59900  Biso   1.000  O
  O109     1.0000 0.03200  0.06510  0.70460  Biso   1.000  O
  O110     1.0000 0.89740  0.78360  0.54000  Biso   1.000  O
  O111     1.0000 0.00410  0.77680  0.60060  Biso   1.000  O
  O112     1.0000 0.10470  0.85830  0.71940  Biso   1.000  O
  O113     1.0000 0.03630  0.93400  0.77100  Biso   1.000  O
  O114     1.0000 0.04940  0.86400  0.83320  Biso   1.000  O
  O115     1.0000 0.01410  0.85900  0.70200  Biso   1.000  O
  O116     1.0000 0.86860  0.98500  0.67400  Biso   1.000  O
  O117     1.0000 0.96600  0.66200  0.79370  Biso   1.000  O
  O118     1.0000 0.92300  0.65900  0.64150  Biso   1.000  O
  O119     1.0000 0.92620  0.07200  0.64530  Biso   1.000  O
  O120     1.0000 0.96390  0.79500  0.73100  Biso   1.000  O
  W26      1.0000 0.44697  0.36447  0.55058  Biso   1.000  W
  W27      1.0000 0.57581  0.47625  0.70985  Biso   1.000  W
  W28      1.0000 0.37193  0.47616  0.59099  Biso   1.000  W
  W29      1.0000 0.57658  0.25271  0.70961  Biso   1.000  W
  W30      1.0000 0.36976  0.25306  0.59127  Biso   1.000  W
  Ce11     1.0000 0.61028  0.85773  0.67149  Biso   1.000  Ce
  Ce12     1.0000 0.66908  0.87307  0.01362  Biso   1.000  Ce
  N11      1.0000 0.65800  0.99680  0.75470  Biso   1.000  N
  N12      1.0000 0.36770  0.73340  0.46570  Biso   1.000  N
  C71      1.0000 0.32600  0.67630  0.40230  Biso   1.000  C
  C72      1.0000 0.73590  0.12180  0.86490  Biso   1.000  C
  H31      1.0000 0.76280  0.16370  0.90270  Biso   1.000  H
  C73      1.0000 0.46800  0.78900  0.57690  Biso   1.000  C
  C74      1.0000 0.67020  0.00800  0.82400  Biso   1.000  C
  C75      1.0000 0.71040  0.07320  0.88310  Biso   1.000  C
  H32      1.0000 0.71830  0.08110  0.93160  Biso   1.000  H
  C76      1.0000 0.42550  0.71690  0.51270  Biso   1.000  C
  C77      1.0000 0.26150  0.70180  0.35360  Biso   1.000  C
  C78      1.0000 0.66200  0.03720  0.65320  Biso   1.000  C
  C79      1.0000 0.64120  0.94400  0.83680  Biso   1.000  C
  C80      1.0000 0.44410  0.64520  0.50140  Biso   1.000  C
  H33      1.0000 0.48450  0.63510  0.53420  Biso   1.000  H
  C81      1.0000 0.72450  0.11330  0.79440  Biso   1.000  C
  H34      1.0000 0.74440  0.14600  0.78440  Biso   1.000  H
  C82      1.0000 0.40240  0.58660  0.44060  Biso   1.000  C
  H35      1.0000 0.41510  0.53690  0.43330  Biso   1.000  H
  C83      1.0000 0.68080  0.05200  0.73600  Biso   1.000  C
  C84      1.0000 0.34290  0.60140  0.39150  Biso   1.000  C
  H36      1.0000 0.31470  0.56160  0.35190  Biso   1.000  H
  O121     1.0000 0.22220  0.65510  0.29530  Biso   1.000  O
  O122     1.0000 0.25450  0.76690  0.37550  Biso   1.000  O
  O123     1.0000 0.52070  0.77940  0.61810  Biso   1.000  O
  O124     1.0000 0.44260  0.85060  0.57820  Biso   1.000  O
  O125     1.0000 0.64920  0.95240  0.89900  Biso   1.000  O
  O126     1.0000 0.61150  0.88450  0.78380  Biso   1.000  O
  O127     1.0000 0.67570  0.09420  0.62810  Biso   1.000  O
  O128     1.0000 0.63440  0.96830  0.61680  Biso   1.000  O
  O129     1.0000 0.36590  0.24400  0.67390  Biso   1.000  O
  O130     1.0000 0.39720  0.44560  0.53720  Biso   1.000  O
  O131     1.0000 0.33990  0.36140  0.56890  Biso   1.000  O
  O132     1.0000 0.50530  0.44840  0.59900  Biso   1.000  O
  O133     1.0000 0.53200  0.56510  0.70460  Biso   1.000  O
  O134     1.0000 0.39740  0.28360  0.54000  Biso   1.000  O
  O135     1.0000 0.50410  0.27680  0.60060  Biso   1.000  O
  O136     1.0000 0.60470  0.35830  0.71940  Biso   1.000  O
  O137     1.0000 0.53630  0.43400  0.77100  Biso   1.000  O
  O138     1.0000 0.54940  0.36400  0.83320  Biso   1.000  O
  O139     1.0000 0.51410  0.35900  0.70200  Biso   1.000  O
  O140     1.0000 0.36860  0.48500  0.67400  Biso   1.000  O
  O141     1.0000 0.46600  0.16200  0.79370  Biso   1.000  O
  O142     1.0000 0.42300  0.15900  0.64150  Biso   1.000  O
  O143     1.0000 0.42620  0.57200  0.64530  Biso   1.000  O
  O144     1.0000 0.46390  0.29500  0.73100  Biso   1.000  O
  W31      1.0000 0.05303  0.86447  0.94942  Biso   1.000  W
  W32      1.0000 0.92419  0.97625  0.79015  Biso   1.000  W
  W33      1.0000 0.12807  0.97616  0.90901  Biso   1.000  W
  W34      1.0000 0.92342  0.75271  0.79039  Biso   1.000  W
  W35      1.0000 0.13024  0.75306  0.90873  Biso   1.000  W
  Ce13     1.0000 0.88972  0.35773  0.82851  Biso   1.000  Ce
  Ce14     1.0000 0.83092  0.37307  0.48638  Biso   1.000  Ce
  N13      1.0000 0.84200  0.49680  0.74530  Biso   1.000  N
  N14      1.0000 0.13230  0.23340  0.03430  Biso   1.000  N
  C85      1.0000 0.17400  0.17630  0.09770  Biso   1.000  C
  C86      1.0000 0.76410  0.62180  0.63510  Biso   1.000  C
  H37      1.0000 0.73720  0.66370  0.59730  Biso   1.000  H
  C87      1.0000 0.03200  0.28900  0.92310  Biso   1.000  C
  C88      1.0000 0.82980  0.50800  0.67600  Biso   1.000  C
  C89      1.0000 0.78960  0.57320  0.61690  Biso   1.000  C
  H38      1.0000 0.78170  0.58110  0.56840  Biso   1.000  H
  C90      1.0000 0.07450  0.21690  0.98730  Biso   1.000  C
  C91      1.0000 0.23850  0.20180  0.14640  Biso   1.000  C
  C92      1.0000 0.83800  0.53720  0.84680  Biso   1.000  C
  C93      1.0000 0.85880  0.44400  0.66320  Biso   1.000  C
  C94      1.0000 0.05590  0.14520  0.99860  Biso   1.000  C
  H39      1.0000 0.01550  0.13510  0.96580  Biso   1.000  H
  C95      1.0000 0.77550  0.61330  0.70560  Biso   1.000  C
  H40      1.0000 0.75560  0.64600  0.71560  Biso   1.000  H
  C96      1.0000 0.09760  0.08660  0.05940  Biso   1.000  C
  H41      1.0000 0.08490  0.03690  0.06670  Biso   1.000  H
  C97      1.0000 0.81920  0.55200  0.76400  Biso   1.000  C
  C98      1.0000 0.15710  0.10140  0.10850  Biso   1.000  C
  H42      1.0000 0.18530  0.06160  0.14810  Biso   1.000  H
  O145     1.0000 0.27780  0.15510  0.20470  Biso   1.000  O
  O146     1.0000 0.24550  0.26690  0.12450  Biso   1.000  O
  O147     1.0000 0.97930  0.27940  0.88190  Biso   1.000  O
  O148     1.0000 0.05740  0.35060  0.92180  Biso   1.000  O
  O149     1.0000 0.85080  0.45240  0.60100  Biso   1.000  O
  O150     1.0000 0.88850  0.38450  0.71620  Biso   1.000  O
  O151     1.0000 0.82430  0.59420  0.87190  Biso   1.000  O
  O152     1.0000 0.86560  0.46830  0.88320  Biso   1.000  O
  O153     1.0000 0.13410  0.74400  0.82610  Biso   1.000  O
  O154     1.0000 0.10280  0.94560  0.96280  Biso   1.000  O
  O155     1.0000 0.16010  0.86140  0.93110  Biso   1.000  O
  O156     1.0000 0.99470  0.94840  0.90100  Biso   1.000  O
  O157     1.0000 0.96800  0.06510  0.79540  Biso   1.000  O
  O158     1.0000 0.10260  0.78360  0.96000  Biso   1.000  O
  O159     1.0000 0.99590  0.77680  0.89940  Biso   1.000  O
  O160     1.0000 0.89530  0.85830  0.78060  Biso   1.000  O
  O161     1.0000 0.96370  0.93400  0.72900  Biso   1.000  O
  O162     1.0000 0.95060  0.86400  0.66680  Biso   1.000  O
  O163     1.0000 0.98590  0.85900  0.79800  Biso   1.000  O
  O164     1.0000 0.13140  0.98500  0.82600  Biso   1.000  O
  O165     1.0000 0.03400  0.66200  0.70630  Biso   1.000  O
  O166     1.0000 0.07700  0.65900  0.85850  Biso   1.000  O
  O167     1.0000 0.07380  0.07200  0.85470  Biso   1.000  O
  O168     1.0000 0.03610  0.79500  0.76900  Biso   1.000  O
  W36      1.0000 0.55303  0.36447  0.94942  Biso   1.000  W
  W37      1.0000 0.42419  0.47625  0.79015  Biso   1.000  W
  W38      1.0000 0.62807  0.47616  0.90901  Biso   1.000  W
  W39      1.0000 0.42342  0.25271  0.79039  Biso   1.000  W
  W40      1.0000 0.63024  0.25306  0.90873  Biso   1.000  W
  Ce15     1.0000 0.38972  0.85773  0.82851  Biso   1.000  Ce
  Ce16     1.0000 0.33092  0.87307  0.48638  Biso   1.000  Ce
  N15      1.0000 0.34200  0.99680  0.74530  Biso   1.000  N
  N16      1.0000 0.63230  0.73340  0.03430  Biso   1.000  N
  C99      1.0000 0.67400  0.67630  0.09770  Biso   1.000  C
  C100     1.0000 0.26410  0.12180  0.63510  Biso   1.000  C
  H43      1.0000 0.23720  0.16370  0.59730  Biso   1.000  H
  C101     1.0000 0.53200  0.78900  0.92310  Biso   1.000  C
  C102     1.0000 0.32980  0.00800  0.67600  Biso   1.000  C
  C103     1.0000 0.28960  0.07320  0.61690  Biso   1.000  C
  H44      1.0000 0.28170  0.08110  0.56840  Biso   1.000  H
  C104     1.0000 0.57450  0.71690  0.98730  Biso   1.000  C
  C105     1.0000 0.73850  0.70180  0.14640  Biso   1.000  C
  C106     1.0000 0.33800  0.03720  0.84680  Biso   1.000  C
  C107     1.0000 0.35880  0.94400  0.66320  Biso   1.000  C
  C108     1.0000 0.55590  0.64520  0.99860  Biso   1.000  C
  H45      1.0000 0.51550  0.63510  0.96580  Biso   1.000  H
  C109     1.0000 0.27550  0.11330  0.70560  Biso   1.000  C
  H46      1.0000 0.25560  0.14600  0.71560  Biso   1.000  H
  C110     1.0000 0.59760  0.58660  0.05940  Biso   1.000  C
  H47      1.0000 0.58490  0.53690  0.06670  Biso   1.000  H
  C111     1.0000 0.31920  0.05200  0.76400  Biso   1.000  C
  C112     1.0000 0.65710  0.60140  0.10850  Biso   1.000  C
  H48      1.0000 0.68530  0.56160  0.14810  Biso   1.000  H
  O169     1.0000 0.77780  0.65510  0.20470  Biso   1.000  O
  O170     1.0000 0.74550  0.76690  0.12450  Biso   1.000  O
  O171     1.0000 0.47930  0.77940  0.88190  Biso   1.000  O
  O172     1.0000 0.55740  0.85060  0.92180  Biso   1.000  O
  O173     1.0000 0.35080  0.95240  0.60100  Biso   1.000  O
  O174     1.0000 0.38850  0.88450  0.71620  Biso   1.000  O
  O175     1.0000 0.32430  0.09420  0.87190  Biso   1.000  O
  O176     1.0000 0.36560  0.96830  0.88320  Biso   1.000  O
  O177     1.0000 0.63410  0.24400  0.82610  Biso   1.000  O
  O178     1.0000 0.60280  0.44560  0.96280  Biso   1.000  O
  O179     1.0000 0.66010  0.36140  0.93110  Biso   1.000  O
  O180     1.0000 0.49470  0.44840  0.90100  Biso   1.000  O
  O181     1.0000 0.46800  0.56510  0.79540  Biso   1.000  O
  O182     1.0000 0.60260  0.28360  0.96000  Biso   1.000  O
  O183     1.0000 0.49590  0.27680  0.89940  Biso   1.000  O
  O184     1.0000 0.39530  0.35830  0.78060  Biso   1.000  O
  O185     1.0000 0.46370  0.43400  0.72900  Biso   1.000  O
  O186     1.0000 0.45060  0.36400  0.66680  Biso   1.000  O
  O187     1.0000 0.48590  0.35900  0.79800  Biso   1.000  O
  O188     1.0000 0.63140  0.48500  0.82600  Biso   1.000  O
  O189     1.0000 0.53400  0.16200  0.70630  Biso   1.000  O
  O190     1.0000 0.57700  0.15900  0.85850  Biso   1.000  O
  O191     1.0000 0.57380  0.57200  0.85470  Biso   1.000  O
  O192     1.0000 0.53610  0.29500  0.76900  Biso   1.000  O
  W41      1.0000 0.00000  0.91075  0.25000  Biso   1.000  W
  W42      1.0000 0.00000  0.35810  0.25000  Biso   1.000  W
  K1       1.0000 0.00000  0.63610  0.25000  Biso   1.000  K
  O193     1.0000 0.00000  0.46290  0.25000  Biso   1.000  O
  O194     1.0000 0.00000  0.80100  0.25000  Biso   1.000  O
  B1       1.0000 0.00000  0.13600  0.25000  Biso   1.000  B
  W43      1.0000 0.50000  0.41075  0.25000  Biso   1.000  W
  W44      1.0000 0.50000  0.85810  0.25000  Biso   1.000  W
  K2       1.0000 0.50000  0.13610  0.25000  Biso   1.000  K
  O195     1.0000 0.50000  0.96290  0.25000  Biso   1.000  O
  O196     1.0000 0.50000  0.30100  0.25000  Biso   1.000  O
  B2       1.0000 0.50000  0.63600  0.25000  Biso   1.000  B
  W45      1.0000 0.00000  0.08925  0.75000  Biso   1.000  W
  W46      1.0000 0.00000  0.64190  0.75000  Biso   1.000  W
  K3       1.0000 0.00000  0.36390  0.75000  Biso   1.000  K
  O197     1.0000 0.00000  0.53710  0.75000  Biso   1.000  O
  O198     1.0000 0.00000  0.19900  0.75000  Biso   1.000  O
  B3       1.0000 0.00000  0.86400  0.75000  Biso   1.000  B
  W47      1.0000 0.50000  0.58925  0.75000  Biso   1.000  W
  W48      1.0000 0.50000  0.14190  0.75000  Biso   1.000  W
  K4       1.0000 0.50000  0.86390  0.75000  Biso   1.000  K
  O199     1.0000 0.50000  0.03710  0.75000  Biso   1.000  O
  O200     1.0000 0.50000  0.69900  0.75000  Biso   1.000  O
  B4       1.0000 0.50000  0.36400  0.75000  Biso   1.000  B
