data_ZIMTAS_clean
_audit_creation_date              2014-07-02
_audit_creation_method            'Materials Studio'
_symmetry_space_group_name_H-M    'P1'
_symmetry_Int_Tables_number       1
_symmetry_cell_setting            triclinic
loop_
_symmetry_equiv_pos_as_xyz
  x,y,z
_cell_length_a                    18.5153
_cell_length_b                    18.5153
_cell_length_c                    25.0576
_cell_angle_alpha                 90.0000
_cell_angle_beta                  90.0000
_cell_angle_gamma                 90.0000
loop_
_atom_site_label
_atom_site_type_symbol
_atom_site_fract_x
_atom_site_fract_y
_atom_site_fract_z
_atom_site_U_iso_or_equiv
_atom_site_adp_type
_atom_site_occupancy
Cu1    Cu    0.40334   0.59666   0.50000   0.01267  Uiso   1.00
Cu2    Cu    0.59666   0.40334   0.50000   0.01267  Uiso   1.00
Cu3    Cu    0.90334   0.90334   0.00000   0.01267  Uiso   1.00
Cu4    Cu    0.09666   0.09666   0.00000   0.01267  Uiso   1.00
Cu5    Cu    0.50000   0.50000   0.39839   0.01267  Uiso   1.00
Cu6    Cu    0.00000   0.00000   0.89839   0.01267  Uiso   1.00
Cu7    Cu    0.00000   0.00000   0.10161   0.01267  Uiso   1.00
Cu8    Cu    0.50000   0.50000   0.60161   0.01267  Uiso   1.00
Si1    Si    0.50000   0.00000   0.25000   0.01267  Uiso   1.00
Si2    Si    0.50000   0.00000   0.75000   0.01267  Uiso   1.00
Si3    Si    0.00000   0.50000   0.25000   0.01267  Uiso   1.00
Si4    Si    0.00000   0.50000   0.75000   0.01267  Uiso   1.00
H1     H     0.56520   0.75180   0.29460   0.01267  Uiso   1.00
H2     H     0.56760   0.85770   0.24500   0.01267  Uiso   1.00
H3     H     0.44030   0.95430   0.35330   0.01267  Uiso   1.00
H4     H     0.43750   0.84800   0.40290   0.01267  Uiso   1.00
H5     H     0.43480   0.24820   0.29460   0.01267  Uiso   1.00
H6     H     0.43240   0.14230   0.24500   0.01267  Uiso   1.00
H7     H     0.55970   0.04570   0.35330   0.01267  Uiso   1.00
H8     H     0.56250   0.15200   0.40290   0.01267  Uiso   1.00
H9     H     0.74820   0.06520   0.79460   0.01267  Uiso   1.00
H10    H     0.64230   0.06760   0.74500   0.01267  Uiso   1.00
H11    H     0.54570   0.94030   0.85330   0.01267  Uiso   1.00
H12    H     0.65200   0.93750   0.90290   0.01267  Uiso   1.00
H13    H     0.25180   0.93480   0.79460   0.01267  Uiso   1.00
H14    H     0.35770   0.93240   0.74500   0.01267  Uiso   1.00
H15    H     0.45430   0.05970   0.85330   0.01267  Uiso   1.00
H16    H     0.34800   0.06250   0.90290   0.01267  Uiso   1.00
H17    H     0.93480   0.25180   0.20540   0.01267  Uiso   1.00
H18    H     0.93240   0.35770   0.25500   0.01267  Uiso   1.00
H19    H     0.05970   0.45430   0.14670   0.01267  Uiso   1.00
H20    H     0.06250   0.34800   0.09710   0.01267  Uiso   1.00
H21    H     0.06520   0.74820   0.20540   0.01267  Uiso   1.00
H22    H     0.06760   0.64230   0.25500   0.01267  Uiso   1.00
H23    H     0.94030   0.54570   0.14670   0.01267  Uiso   1.00
H24    H     0.93750   0.65200   0.09710   0.01267  Uiso   1.00
H25    H     0.75180   0.56520   0.70540   0.01267  Uiso   1.00
H26    H     0.85770   0.56760   0.75500   0.01267  Uiso   1.00
H27    H     0.95430   0.44030   0.64670   0.01267  Uiso   1.00
H28    H     0.84800   0.43750   0.59710   0.01267  Uiso   1.00
H29    H     0.24820   0.43480   0.70540   0.01267  Uiso   1.00
H30    H     0.14230   0.43240   0.75500   0.01267  Uiso   1.00
H31    H     0.04570   0.55970   0.64670   0.01267  Uiso   1.00
H32    H     0.15200   0.56250   0.59710   0.01267  Uiso   1.00
H33    H     0.43480   0.24820   0.70540   0.01267  Uiso   1.00
H34    H     0.43240   0.14230   0.75500   0.01267  Uiso   1.00
H35    H     0.55970   0.04570   0.64670   0.01267  Uiso   1.00
H36    H     0.56250   0.15200   0.59710   0.01267  Uiso   1.00
H37    H     0.56520   0.75180   0.70540   0.01267  Uiso   1.00
H38    H     0.56760   0.85770   0.75500   0.01267  Uiso   1.00
H39    H     0.44030   0.95430   0.64670   0.01267  Uiso   1.00
H40    H     0.43750   0.84800   0.59710   0.01267  Uiso   1.00
H41    H     0.25180   0.93480   0.20540   0.01267  Uiso   1.00
H42    H     0.35770   0.93240   0.25500   0.01267  Uiso   1.00
H43    H     0.45430   0.05970   0.14670   0.01267  Uiso   1.00
H44    H     0.34800   0.06250   0.09710   0.01267  Uiso   1.00
H45    H     0.74820   0.06520   0.20540   0.01267  Uiso   1.00
H46    H     0.64230   0.06760   0.25500   0.01267  Uiso   1.00
H47    H     0.54570   0.94030   0.14670   0.01267  Uiso   1.00
H48    H     0.65200   0.93750   0.09710   0.01267  Uiso   1.00
H49    H     0.06520   0.74820   0.79460   0.01267  Uiso   1.00
H50    H     0.06760   0.64230   0.74500   0.01267  Uiso   1.00
H51    H     0.94030   0.54570   0.85330   0.01267  Uiso   1.00
H52    H     0.93750   0.65200   0.90290   0.01267  Uiso   1.00
H53    H     0.93480   0.25180   0.79460   0.01267  Uiso   1.00
H54    H     0.93240   0.35770   0.74500   0.01267  Uiso   1.00
H55    H     0.05970   0.45430   0.85330   0.01267  Uiso   1.00
H56    H     0.06250   0.34800   0.90290   0.01267  Uiso   1.00
H57    H     0.24820   0.43480   0.29460   0.01267  Uiso   1.00
H58    H     0.14230   0.43240   0.24500   0.01267  Uiso   1.00
H59    H     0.04570   0.55970   0.35330   0.01267  Uiso   1.00
H60    H     0.15200   0.56250   0.40290   0.01267  Uiso   1.00
H61    H     0.75180   0.56520   0.29460   0.01267  Uiso   1.00
H62    H     0.85770   0.56760   0.24500   0.01267  Uiso   1.00
H63    H     0.95430   0.44030   0.35330   0.01267  Uiso   1.00
H64    H     0.84800   0.43750   0.40290   0.01267  Uiso   1.00
C1     C     0.49354   0.72117   0.38312   0.01267  Uiso   1.00
C2     C     0.49995   0.78936   0.35332   0.01267  Uiso   1.00
C3     C     0.53907   0.79284   0.30663   0.01267  Uiso   1.00
C4     C     0.54039   0.85626   0.27710   0.01267  Uiso   1.00
C5     C     0.50322   0.91743   0.29304   0.01267  Uiso   1.00
C6     C     0.46559   0.91304   0.34060   0.01267  Uiso   1.00
C7     C     0.46394   0.84954   0.37038   0.01267  Uiso   1.00
C8     C     0.50646   0.27883   0.38312   0.01267  Uiso   1.00
C9     C     0.50005   0.21064   0.35332   0.01267  Uiso   1.00
C10    C     0.46093   0.20716   0.30663   0.01267  Uiso   1.00
C11    C     0.45961   0.14374   0.27710   0.01267  Uiso   1.00
C12    C     0.49678   0.08257   0.29304   0.01267  Uiso   1.00
C13    C     0.53441   0.08696   0.34060   0.01267  Uiso   1.00
C14    C     0.53606   0.15046   0.37038   0.01267  Uiso   1.00
C15    C     0.77883   0.99354   0.88312   0.01267  Uiso   1.00
C16    C     0.71064   0.99995   0.85332   0.01267  Uiso   1.00
C17    C     0.70716   0.03907   0.80663   0.01267  Uiso   1.00
C18    C     0.64374   0.04039   0.77710   0.01267  Uiso   1.00
C19    C     0.58257   0.00322   0.79304   0.01267  Uiso   1.00
C20    C     0.58696   0.96559   0.84060   0.01267  Uiso   1.00
C21    C     0.65046   0.96394   0.87038   0.01267  Uiso   1.00
C22    C     0.22117   0.00646   0.88312   0.01267  Uiso   1.00
C23    C     0.28936   0.00005   0.85332   0.01267  Uiso   1.00
C24    C     0.29284   0.96093   0.80663   0.01267  Uiso   1.00
C25    C     0.35626   0.95961   0.77710   0.01267  Uiso   1.00
C26    C     0.41743   0.99678   0.79304   0.01267  Uiso   1.00
C27    C     0.41304   0.03441   0.84060   0.01267  Uiso   1.00
C28    C     0.34954   0.03606   0.87038   0.01267  Uiso   1.00
C29    C     0.00646   0.22117   0.11688   0.01267  Uiso   1.00
C30    C     0.00005   0.28936   0.14668   0.01267  Uiso   1.00
C31    C     0.96093   0.29284   0.19337   0.01267  Uiso   1.00
C32    C     0.95961   0.35626   0.22290   0.01267  Uiso   1.00
C33    C     0.99678   0.41743   0.20696   0.01267  Uiso   1.00
C34    C     0.03441   0.41304   0.15940   0.01267  Uiso   1.00
C35    C     0.03606   0.34954   0.12962   0.01267  Uiso   1.00
C36    C     0.99354   0.77883   0.11688   0.01267  Uiso   1.00
C37    C     0.99995   0.71064   0.14668   0.01267  Uiso   1.00
C38    C     0.03907   0.70716   0.19337   0.01267  Uiso   1.00
C39    C     0.04039   0.64374   0.22290   0.01267  Uiso   1.00
C40    C     0.00322   0.58257   0.20696   0.01267  Uiso   1.00
C41    C     0.96559   0.58696   0.15940   0.01267  Uiso   1.00
C42    C     0.96394   0.65046   0.12962   0.01267  Uiso   1.00
C43    C     0.72117   0.49354   0.61688   0.01267  Uiso   1.00
C44    C     0.78936   0.49995   0.64668   0.01267  Uiso   1.00
C45    C     0.79284   0.53907   0.69337   0.01267  Uiso   1.00
C46    C     0.85626   0.54039   0.72290   0.01267  Uiso   1.00
C47    C     0.91743   0.50322   0.70696   0.01267  Uiso   1.00
C48    C     0.91304   0.46559   0.65940   0.01267  Uiso   1.00
C49    C     0.84954   0.46394   0.62962   0.01267  Uiso   1.00
C50    C     0.27883   0.50646   0.61688   0.01267  Uiso   1.00
C51    C     0.21064   0.50005   0.64668   0.01267  Uiso   1.00
C52    C     0.20716   0.46093   0.69337   0.01267  Uiso   1.00
C53    C     0.14374   0.45961   0.72290   0.01267  Uiso   1.00
C54    C     0.08257   0.49678   0.70696   0.01267  Uiso   1.00
C55    C     0.08696   0.53441   0.65940   0.01267  Uiso   1.00
C56    C     0.15046   0.53606   0.62962   0.01267  Uiso   1.00
C57    C     0.50646   0.27883   0.61688   0.01267  Uiso   1.00
C58    C     0.50005   0.21064   0.64668   0.01267  Uiso   1.00
C59    C     0.46093   0.20716   0.69337   0.01267  Uiso   1.00
C60    C     0.45961   0.14374   0.72290   0.01267  Uiso   1.00
C61    C     0.49678   0.08257   0.70696   0.01267  Uiso   1.00
C62    C     0.53441   0.08696   0.65940   0.01267  Uiso   1.00
C63    C     0.53606   0.15046   0.62962   0.01267  Uiso   1.00
C64    C     0.49354   0.72117   0.61688   0.01267  Uiso   1.00
C65    C     0.49995   0.78936   0.64668   0.01267  Uiso   1.00
C66    C     0.53907   0.79284   0.69337   0.01267  Uiso   1.00
C67    C     0.54039   0.85626   0.72290   0.01267  Uiso   1.00
C68    C     0.50322   0.91743   0.70696   0.01267  Uiso   1.00
C69    C     0.46559   0.91304   0.65940   0.01267  Uiso   1.00
C70    C     0.46394   0.84954   0.62962   0.01267  Uiso   1.00
C71    C     0.22117   0.00646   0.11688   0.01267  Uiso   1.00
C72    C     0.28936   0.00005   0.14668   0.01267  Uiso   1.00
C73    C     0.29284   0.96093   0.19337   0.01267  Uiso   1.00
C74    C     0.35626   0.95961   0.22290   0.01267  Uiso   1.00
C75    C     0.41743   0.99678   0.20696   0.01267  Uiso   1.00
C76    C     0.41304   0.03441   0.15940   0.01267  Uiso   1.00
C77    C     0.34954   0.03606   0.12962   0.01267  Uiso   1.00
C78    C     0.77883   0.99354   0.11688   0.01267  Uiso   1.00
C79    C     0.71064   0.99995   0.14668   0.01267  Uiso   1.00
C80    C     0.70716   0.03907   0.19337   0.01267  Uiso   1.00
C81    C     0.64374   0.04039   0.22290   0.01267  Uiso   1.00
C82    C     0.58257   0.00322   0.20696   0.01267  Uiso   1.00
C83    C     0.58696   0.96559   0.15940   0.01267  Uiso   1.00
C84    C     0.65046   0.96394   0.12962   0.01267  Uiso   1.00
C85    C     0.99354   0.77883   0.88312   0.01267  Uiso   1.00
C86    C     0.99995   0.71064   0.85332   0.01267  Uiso   1.00
C87    C     0.03907   0.70716   0.80663   0.01267  Uiso   1.00
C88    C     0.04039   0.64374   0.77710   0.01267  Uiso   1.00
C89    C     0.00322   0.58257   0.79304   0.01267  Uiso   1.00
C90    C     0.96559   0.58696   0.84060   0.01267  Uiso   1.00
C91    C     0.96394   0.65046   0.87038   0.01267  Uiso   1.00
C92    C     0.00646   0.22117   0.88312   0.01267  Uiso   1.00
C93    C     0.00005   0.28936   0.85332   0.01267  Uiso   1.00
C94    C     0.96093   0.29284   0.80663   0.01267  Uiso   1.00
C95    C     0.95961   0.35626   0.77710   0.01267  Uiso   1.00
C96    C     0.99678   0.41743   0.79304   0.01267  Uiso   1.00
C97    C     0.03441   0.41304   0.84060   0.01267  Uiso   1.00
C98    C     0.03606   0.34954   0.87038   0.01267  Uiso   1.00
C99    C     0.27883   0.50646   0.38312   0.01267  Uiso   1.00
C100   C     0.21064   0.50005   0.35332   0.01267  Uiso   1.00
C101   C     0.20716   0.46093   0.30663   0.01267  Uiso   1.00
C102   C     0.14374   0.45961   0.27710   0.01267  Uiso   1.00
C103   C     0.08257   0.49678   0.29304   0.01267  Uiso   1.00
C104   C     0.08696   0.53441   0.34060   0.01267  Uiso   1.00
C105   C     0.15046   0.53606   0.37038   0.01267  Uiso   1.00
C106   C     0.72117   0.49354   0.38312   0.01267  Uiso   1.00
C107   C     0.78936   0.49995   0.35332   0.01267  Uiso   1.00
C108   C     0.79284   0.53907   0.30663   0.01267  Uiso   1.00
C109   C     0.85626   0.54039   0.27710   0.01267  Uiso   1.00
C110   C     0.91743   0.50322   0.29304   0.01267  Uiso   1.00
C111   C     0.91304   0.46559   0.34060   0.01267  Uiso   1.00
C112   C     0.84954   0.46394   0.37038   0.01267  Uiso   1.00
N1     N     0.45992   0.64582   0.44104   0.01267  Uiso   1.00
N2     N     0.49600   0.61068   0.40280   0.01267  Uiso   1.00
N3     N     0.51796   0.65695   0.36592   0.01267  Uiso   1.00
N4     N     0.45774   0.71575   0.42940   0.01267  Uiso   1.00
N5     N     0.54008   0.35418   0.44104   0.01267  Uiso   1.00
N6     N     0.50400   0.38932   0.40280   0.01267  Uiso   1.00
N7     N     0.48204   0.34305   0.36592   0.01267  Uiso   1.00
N8     N     0.54226   0.28425   0.42940   0.01267  Uiso   1.00
N9     N     0.85418   0.95992   0.94104   0.01267  Uiso   1.00
N10    N     0.88932   0.99600   0.90280   0.01267  Uiso   1.00
N11    N     0.84305   0.01796   0.86592   0.01267  Uiso   1.00
N12    N     0.78425   0.95774   0.92940   0.01267  Uiso   1.00
N13    N     0.14582   0.04008   0.94104   0.01267  Uiso   1.00
N14    N     0.11068   0.00400   0.90280   0.01267  Uiso   1.00
N15    N     0.15695   0.98204   0.86592   0.01267  Uiso   1.00
N16    N     0.21575   0.04226   0.92940   0.01267  Uiso   1.00
N17    N     0.04008   0.14582   0.05896   0.01267  Uiso   1.00
N18    N     0.00400   0.11068   0.09720   0.01267  Uiso   1.00
N19    N     0.98204   0.15695   0.13408   0.01267  Uiso   1.00
N20    N     0.04226   0.21575   0.07060   0.01267  Uiso   1.00
N21    N     0.95992   0.85418   0.05896   0.01267  Uiso   1.00
N22    N     0.99600   0.88932   0.09720   0.01267  Uiso   1.00
N23    N     0.01796   0.84305   0.13408   0.01267  Uiso   1.00
N24    N     0.95774   0.78425   0.07060   0.01267  Uiso   1.00
N25    N     0.64582   0.45992   0.55896   0.01267  Uiso   1.00
N26    N     0.61068   0.49600   0.59720   0.01267  Uiso   1.00
N27    N     0.65695   0.51796   0.63408   0.01267  Uiso   1.00
N28    N     0.71575   0.45774   0.57060   0.01267  Uiso   1.00
N29    N     0.35418   0.54008   0.55896   0.01267  Uiso   1.00
N30    N     0.38932   0.50400   0.59720   0.01267  Uiso   1.00
N31    N     0.34305   0.48204   0.63408   0.01267  Uiso   1.00
N32    N     0.28425   0.54226   0.57060   0.01267  Uiso   1.00
N33    N     0.54008   0.35418   0.55896   0.01267  Uiso   1.00
N34    N     0.50400   0.38932   0.59720   0.01267  Uiso   1.00
N35    N     0.48204   0.34305   0.63408   0.01267  Uiso   1.00
N36    N     0.54226   0.28425   0.57060   0.01267  Uiso   1.00
N37    N     0.45992   0.64582   0.55896   0.01267  Uiso   1.00
N38    N     0.49600   0.61068   0.59720   0.01267  Uiso   1.00
N39    N     0.51796   0.65695   0.63408   0.01267  Uiso   1.00
N40    N     0.45774   0.71575   0.57060   0.01267  Uiso   1.00
N41    N     0.14582   0.04008   0.05896   0.01267  Uiso   1.00
N42    N     0.11068   0.00400   0.09720   0.01267  Uiso   1.00
N43    N     0.15695   0.98204   0.13408   0.01267  Uiso   1.00
N44    N     0.21575   0.04226   0.07060   0.01267  Uiso   1.00
N45    N     0.85418   0.95992   0.05896   0.01267  Uiso   1.00
N46    N     0.88932   0.99600   0.09720   0.01267  Uiso   1.00
N47    N     0.84305   0.01796   0.13408   0.01267  Uiso   1.00
N48    N     0.78425   0.95774   0.07060   0.01267  Uiso   1.00
N49    N     0.95992   0.85418   0.94104   0.01267  Uiso   1.00
N50    N     0.99600   0.88932   0.90280   0.01267  Uiso   1.00
N51    N     0.01796   0.84305   0.86592   0.01267  Uiso   1.00
N52    N     0.95774   0.78425   0.92940   0.01267  Uiso   1.00
N53    N     0.04008   0.14582   0.94104   0.01267  Uiso   1.00
N54    N     0.00400   0.11068   0.90280   0.01267  Uiso   1.00
N55    N     0.98204   0.15695   0.86592   0.01267  Uiso   1.00
N56    N     0.04226   0.21575   0.92940   0.01267  Uiso   1.00
N57    N     0.35418   0.54008   0.44104   0.01267  Uiso   1.00
N58    N     0.38932   0.50400   0.40280   0.01267  Uiso   1.00
N59    N     0.34305   0.48204   0.36592   0.01267  Uiso   1.00
N60    N     0.28425   0.54226   0.42940   0.01267  Uiso   1.00
N61    N     0.64582   0.45992   0.44104   0.01267  Uiso   1.00
N62    N     0.61068   0.49600   0.40280   0.01267  Uiso   1.00
N63    N     0.65695   0.51796   0.36592   0.01267  Uiso   1.00
N64    N     0.71575   0.45774   0.42940   0.01267  Uiso   1.00
Cl1    Cl    0.50000   0.50000   0.50000   0.01267  Uiso   1.00
Cl2    Cl    0.00000   0.00000   0.00000   0.01267  Uiso   1.00
