data_image0
_cell_length_a       35.2563
_cell_length_b       15.4625
_cell_length_c       25.051
_cell_angle_alpha    90
_cell_angle_beta     122.794
_cell_angle_gamma    90

_symmetry_space_group_name_H-M    "P 1"
_symmetry_int_tables_number       1

loop_
  _symmetry_equiv_pos_as_xyz
  'x, y, z'

loop_
  _atom_site_label
  _atom_site_occupancy
  _atom_site_fract_x
  _atom_site_fract_y
  _atom_site_fract_z
  _atom_site_thermal_displace_type
  _atom_site_B_iso_or_equiv
  _atom_site_type_symbol
  N1       1.0000 0.34270  0.96820  0.35330  Biso   1.000  N
  C1       1.0000 0.33420  0.94170  0.39670  Biso   1.000  C
  H1       1.0000 0.31060  0.96050  0.40030  Biso   1.000  H
  N2       1.0000 0.36560  0.88350  0.43410  Biso   1.000  N
  N3       1.0000 0.39350  0.87400  0.41380  Biso   1.000  N
  C2       1.0000 0.37930  0.92630  0.36380  Biso   1.000  C
  H2       1.0000 0.39260  0.93250  0.34060  Biso   1.000  H
  C3       1.0000 0.42840  0.81080  0.43480  Biso   1.000  C
  H3       1.0000 0.44150  0.79880  0.47940  Biso   1.000  H
  H4       1.0000 0.45200  0.83350  0.42990  Biso   1.000  H
  C4       1.0000 0.41030  0.72940  0.39770  Biso   1.000  C
  C5       1.0000 0.39960  0.72300  0.33610  Biso   1.000  C
  H5       1.0000 0.40090  0.77340  0.31660  Biso   1.000  H
  C6       1.0000 0.40600  0.65410  0.42330  Biso   1.000  C
  H6       1.0000 0.41340  0.65420  0.46500  Biso   1.000  H
  N4       1.0000 0.25440  0.48170  0.24210  Biso   1.000  N
  C7       1.0000 0.26820  0.40420  0.26590  Biso   1.000  C
  H7       1.0000 0.25070  0.36120  0.26820  Biso   1.000  H
  N5       1.0000 0.31090  0.39790  0.28590  Biso   1.000  N
  N6       1.0000 0.32360  0.47150  0.27450  Biso   1.000  N
  C8       1.0000 0.28860  0.52330  0.24750  Biso   1.000  C
  H8       1.0000 0.28820  0.57970  0.23430  Biso   1.000  H
  C9       1.0000 0.36830  0.49150  0.29100  Biso   1.000  C
  H9       1.0000 0.36870  0.49780  0.25280  Biso   1.000  H
  H10      1.0000 0.38870  0.44500  0.31620  Biso   1.000  H
  C10      1.0000 0.38310  0.57350  0.32800  Biso   1.000  C
  C11      1.0000 0.38730  0.64910  0.30250  Biso   1.000  C
  H11      1.0000 0.38160  0.64900  0.26160  Biso   1.000  H
  C12      1.0000 0.39080  0.57800  0.38820  Biso   1.000  C
  H12      1.0000 0.38570  0.52940  0.40540  Biso   1.000  H
  N7       1.0000 0.26380  0.12400  0.20190  Biso   1.000  N
  C13      1.0000 0.26540  0.20820  0.20790  Biso   1.000  C
  H13      1.0000 0.28270  0.23890  0.24560  Biso   1.000  H
  N8       1.0000 0.23860  0.24160  0.15140  Biso   1.000  N
  N9       1.0000 0.22040  0.17810  0.11070  Biso   1.000  N
  C14      1.0000 0.23590  0.10540  0.14190  Biso   1.000  C
  H14      1.0000 0.22850  0.05020  0.12440  Biso   1.000  H
  C15      1.0000 0.19400  0.18900  0.04320  Biso   1.000  C
  H15      1.0000 0.16980  0.23010  0.03210  Biso   1.000  H
  H16      1.0000 0.18040  0.13460  0.02310  Biso   1.000  H
  C16      1.0000 0.22070  0.22140  0.01850  Biso   1.000  C
  C17      1.0000 0.25000  0.16640  0.01620  Biso   1.000  C
  H17      1.0000 0.25060  0.10870  0.02720  Biso   1.000  H
  C18      1.0000 0.22030  0.30570  0.00250  Biso   1.000  C
  H18      1.0000 0.20080  0.34490  0.00380  Biso   1.000  H
  N10      1.0000 0.35540  0.09210  0.27710  Biso   1.000  N
  C19      1.0000 0.38120  0.16090  0.31210  Biso   1.000  C
  H19      1.0000 0.38420  0.18190  0.34900  Biso   1.000  H
  N11      1.0000 0.40180  0.19350  0.28340  Biso   1.000  N
  N12      1.0000 0.38880  0.14490  0.23080  Biso   1.000  N
  C20      1.0000 0.36010  0.08230  0.22690  Biso   1.000  C
  H20      1.0000 0.34620  0.04020  0.19550  Biso   1.000  H
  C21      1.0000 0.40390  0.14200  0.18800  Biso   1.000  C
  H21      1.0000 0.38650  0.18260  0.15390  Biso   1.000  H
  H22      1.0000 0.39790  0.08430  0.16940  Biso   1.000  H
  C22      1.0000 0.45190  0.16100  0.21800  Biso   1.000  C
  C23      1.0000 0.47660  0.08700  0.23500  Biso   1.000  C
  H23      1.0000 0.46180  0.03410  0.22810  Biso   1.000  H
  C24      1.0000 0.47650  0.23500  0.23400  Biso   1.000  C
  H24      1.0000 0.46140  0.28790  0.22240  Biso   1.000  H
  Cu1      1.0000 0.30333  0.04320  0.27651  Biso   1.000  Cu
  N13      1.0000 0.84270  0.46820  0.35330  Biso   1.000  N
  C25      1.0000 0.83420  0.44170  0.39670  Biso   1.000  C
  H25      1.0000 0.81060  0.46050  0.40030  Biso   1.000  H
  N14      1.0000 0.86560  0.38350  0.43410  Biso   1.000  N
  N15      1.0000 0.89350  0.37400  0.41380  Biso   1.000  N
  C26      1.0000 0.87930  0.42630  0.36380  Biso   1.000  C
  H26      1.0000 0.89260  0.43250  0.34060  Biso   1.000  H
  C27      1.0000 0.92840  0.31080  0.43480  Biso   1.000  C
  H27      1.0000 0.94150  0.29880  0.47940  Biso   1.000  H
  H28      1.0000 0.95200  0.33350  0.42990  Biso   1.000  H
  C28      1.0000 0.91030  0.22940  0.39770  Biso   1.000  C
  C29      1.0000 0.89960  0.22300  0.33610  Biso   1.000  C
  H29      1.0000 0.90090  0.27340  0.31660  Biso   1.000  H
  C30      1.0000 0.90600  0.15410  0.42330  Biso   1.000  C
  H30      1.0000 0.91340  0.15420  0.46500  Biso   1.000  H
  N16      1.0000 0.75440  0.98170  0.24210  Biso   1.000  N
  C31      1.0000 0.76820  0.90420  0.26590  Biso   1.000  C
  H31      1.0000 0.75070  0.86120  0.26820  Biso   1.000  H
  N17      1.0000 0.81090  0.89790  0.28590  Biso   1.000  N
  N18      1.0000 0.82360  0.97150  0.27450  Biso   1.000  N
  C32      1.0000 0.78860  0.02330  0.24750  Biso   1.000  C
  H32      1.0000 0.78820  0.07970  0.23430  Biso   1.000  H
  C33      1.0000 0.86830  0.99150  0.29100  Biso   1.000  C
  H33      1.0000 0.86870  0.99780  0.25280  Biso   1.000  H
  H34      1.0000 0.88870  0.94500  0.31620  Biso   1.000  H
  C34      1.0000 0.88310  0.07350  0.32800  Biso   1.000  C
  C35      1.0000 0.88730  0.14910  0.30250  Biso   1.000  C
  H35      1.0000 0.88160  0.14900  0.26160  Biso   1.000  H
  C36      1.0000 0.89080  0.07800  0.38820  Biso   1.000  C
  H36      1.0000 0.88570  0.02940  0.40540  Biso   1.000  H
  N19      1.0000 0.76380  0.62400  0.20190  Biso   1.000  N
  C37      1.0000 0.76540  0.70820  0.20790  Biso   1.000  C
  H37      1.0000 0.78270  0.73890  0.24560  Biso   1.000  H
  N20      1.0000 0.73860  0.74160  0.15140  Biso   1.000  N
  N21      1.0000 0.72040  0.67810  0.11070  Biso   1.000  N
  C38      1.0000 0.73590  0.60540  0.14190  Biso   1.000  C
  H38      1.0000 0.72850  0.55020  0.12440  Biso   1.000  H
  C39      1.0000 0.69400  0.68900  0.04320  Biso   1.000  C
  H39      1.0000 0.66980  0.73010  0.03210  Biso   1.000  H
  H40      1.0000 0.68040  0.63460  0.02310  Biso   1.000  H
  C40      1.0000 0.72070  0.72140  0.01850  Biso   1.000  C
  C41      1.0000 0.75000  0.66640  0.01620  Biso   1.000  C
  H41      1.0000 0.75060  0.60870  0.02720  Biso   1.000  H
  C42      1.0000 0.72030  0.80570  0.00250  Biso   1.000  C
  H42      1.0000 0.70080  0.84490  0.00380  Biso   1.000  H
  N22      1.0000 0.85540  0.59210  0.27710  Biso   1.000  N
  C43      1.0000 0.88120  0.66090  0.31210  Biso   1.000  C
  H43      1.0000 0.88420  0.68190  0.34900  Biso   1.000  H
  N23      1.0000 0.90180  0.69350  0.28340  Biso   1.000  N
  N24      1.0000 0.88880  0.64490  0.23080  Biso   1.000  N
  C44      1.0000 0.86010  0.58230  0.22690  Biso   1.000  C
  H44      1.0000 0.84620  0.54020  0.19550  Biso   1.000  H
  C45      1.0000 0.90390  0.64200  0.18800  Biso   1.000  C
  H45      1.0000 0.88650  0.68260  0.15390  Biso   1.000  H
  H46      1.0000 0.89790  0.58430  0.16940  Biso   1.000  H
  C46      1.0000 0.95190  0.66100  0.21800  Biso   1.000  C
  C47      1.0000 0.97660  0.58700  0.23500  Biso   1.000  C
  H47      1.0000 0.96180  0.53410  0.22810  Biso   1.000  H
  C48      1.0000 0.97650  0.73500  0.23400  Biso   1.000  C
  H48      1.0000 0.96140  0.78790  0.22240  Biso   1.000  H
  Cu2      1.0000 0.80333  0.54320  0.27651  Biso   1.000  Cu
  N25      1.0000 0.65730  0.96820  0.14670  Biso   1.000  N
  C49      1.0000 0.66580  0.94170  0.10330  Biso   1.000  C
  H49      1.0000 0.68940  0.96050  0.09970  Biso   1.000  H
  N26      1.0000 0.63440  0.88350  0.06590  Biso   1.000  N
  N27      1.0000 0.60650  0.87400  0.08620  Biso   1.000  N
  C50      1.0000 0.62070  0.92630  0.13620  Biso   1.000  C
  H50      1.0000 0.60740  0.93250  0.15940  Biso   1.000  H
  C51      1.0000 0.57160  0.81080  0.06520  Biso   1.000  C
  H51      1.0000 0.55850  0.79880  0.02060  Biso   1.000  H
  H52      1.0000 0.54800  0.83350  0.07010  Biso   1.000  H
  C52      1.0000 0.58970  0.72940  0.10230  Biso   1.000  C
  C53      1.0000 0.60040  0.72300  0.16390  Biso   1.000  C
  H53      1.0000 0.59910  0.77340  0.18340  Biso   1.000  H
  C54      1.0000 0.59400  0.65410  0.07670  Biso   1.000  C
  H54      1.0000 0.58660  0.65420  0.03500  Biso   1.000  H
  N28      1.0000 0.74560  0.48170  0.25790  Biso   1.000  N
  C55      1.0000 0.73180  0.40420  0.23410  Biso   1.000  C
  H55      1.0000 0.74930  0.36120  0.23180  Biso   1.000  H
  N29      1.0000 0.68910  0.39790  0.21410  Biso   1.000  N
  N30      1.0000 0.67640  0.47150  0.22550  Biso   1.000  N
  C56      1.0000 0.71140  0.52330  0.25250  Biso   1.000  C
  H56      1.0000 0.71180  0.57970  0.26570  Biso   1.000  H
  C57      1.0000 0.63170  0.49150  0.20900  Biso   1.000  C
  H57      1.0000 0.63130  0.49780  0.24720  Biso   1.000  H
  H58      1.0000 0.61130  0.44500  0.18380  Biso   1.000  H
  C58      1.0000 0.61690  0.57350  0.17200  Biso   1.000  C
  C59      1.0000 0.61270  0.64910  0.19750  Biso   1.000  C
  H59      1.0000 0.61840  0.64900  0.23840  Biso   1.000  H
  C60      1.0000 0.60920  0.57800  0.11180  Biso   1.000  C
  H60      1.0000 0.61430  0.52940  0.09460  Biso   1.000  H
  N31      1.0000 0.73620  0.12400  0.29810  Biso   1.000  N
  C61      1.0000 0.73460  0.20820  0.29210  Biso   1.000  C
  H61      1.0000 0.71730  0.23890  0.25440  Biso   1.000  H
  N32      1.0000 0.76140  0.24160  0.34860  Biso   1.000  N
  N33      1.0000 0.77960  0.17810  0.38930  Biso   1.000  N
  C62      1.0000 0.76410  0.10540  0.35810  Biso   1.000  C
  H62      1.0000 0.77150  0.05020  0.37560  Biso   1.000  H
  C63      1.0000 0.80600  0.18900  0.45680  Biso   1.000  C
  H63      1.0000 0.83020  0.23010  0.46790  Biso   1.000  H
  H64      1.0000 0.81960  0.13460  0.47690  Biso   1.000  H
  C64      1.0000 0.77930  0.22140  0.48150  Biso   1.000  C
  C65      1.0000 0.75000  0.16640  0.48380  Biso   1.000  C
  H65      1.0000 0.74940  0.10870  0.47280  Biso   1.000  H
  C66      1.0000 0.77970  0.30570  0.49750  Biso   1.000  C
  H66      1.0000 0.79920  0.34490  0.49620  Biso   1.000  H
  N34      1.0000 0.64460  0.09210  0.22290  Biso   1.000  N
  C67      1.0000 0.61880  0.16090  0.18790  Biso   1.000  C
  H67      1.0000 0.61580  0.18190  0.15100  Biso   1.000  H
  N35      1.0000 0.59820  0.19350  0.21660  Biso   1.000  N
  N36      1.0000 0.61120  0.14490  0.26920  Biso   1.000  N
  C68      1.0000 0.63990  0.08230  0.27310  Biso   1.000  C
  H68      1.0000 0.65380  0.04020  0.30450  Biso   1.000  H
  C69      1.0000 0.59610  0.14200  0.31200  Biso   1.000  C
  H69      1.0000 0.61350  0.18260  0.34610  Biso   1.000  H
  H70      1.0000 0.60210  0.08430  0.33060  Biso   1.000  H
  C70      1.0000 0.54810  0.16100  0.28200  Biso   1.000  C
  C71      1.0000 0.52340  0.08700  0.26500  Biso   1.000  C
  H71      1.0000 0.53820  0.03410  0.27190  Biso   1.000  H
  C72      1.0000 0.52350  0.23500  0.26600  Biso   1.000  C
  H72      1.0000 0.53860  0.28790  0.27760  Biso   1.000  H
  Cu3      1.0000 0.69667  0.04320  0.22349  Biso   1.000  Cu
  N37      1.0000 0.15730  0.46820  0.14670  Biso   1.000  N
  C73      1.0000 0.16580  0.44170  0.10330  Biso   1.000  C
  H73      1.0000 0.18940  0.46050  0.09970  Biso   1.000  H
  N38      1.0000 0.13440  0.38350  0.06590  Biso   1.000  N
  N39      1.0000 0.10650  0.37400  0.08620  Biso   1.000  N
  C74      1.0000 0.12070  0.42630  0.13620  Biso   1.000  C
  H74      1.0000 0.10740  0.43250  0.15940  Biso   1.000  H
  C75      1.0000 0.07160  0.31080  0.06520  Biso   1.000  C
  H75      1.0000 0.05850  0.29880  0.02060  Biso   1.000  H
  H76      1.0000 0.04800  0.33350  0.07010  Biso   1.000  H
  C76      1.0000 0.08970  0.22940  0.10230  Biso   1.000  C
  C77      1.0000 0.10040  0.22300  0.16390  Biso   1.000  C
  H77      1.0000 0.09910  0.27340  0.18340  Biso   1.000  H
  C78      1.0000 0.09400  0.15410  0.07670  Biso   1.000  C
  H78      1.0000 0.08660  0.15420  0.03500  Biso   1.000  H
  N40      1.0000 0.24560  0.98170  0.25790  Biso   1.000  N
  C79      1.0000 0.23180  0.90420  0.23410  Biso   1.000  C
  H79      1.0000 0.24930  0.86120  0.23180  Biso   1.000  H
  N41      1.0000 0.18910  0.89790  0.21410  Biso   1.000  N
  N42      1.0000 0.17640  0.97150  0.22550  Biso   1.000  N
  C80      1.0000 0.21140  0.02330  0.25250  Biso   1.000  C
  H80      1.0000 0.21180  0.07970  0.26570  Biso   1.000  H
  C81      1.0000 0.13170  0.99150  0.20900  Biso   1.000  C
  H81      1.0000 0.13130  0.99780  0.24720  Biso   1.000  H
  H82      1.0000 0.11130  0.94500  0.18380  Biso   1.000  H
  C82      1.0000 0.11690  0.07350  0.17200  Biso   1.000  C
  C83      1.0000 0.11270  0.14910  0.19750  Biso   1.000  C
  H83      1.0000 0.11840  0.14900  0.23840  Biso   1.000  H
  C84      1.0000 0.10920  0.07800  0.11180  Biso   1.000  C
  H84      1.0000 0.11430  0.02940  0.09460  Biso   1.000  H
  N43      1.0000 0.23620  0.62400  0.29810  Biso   1.000  N
  C85      1.0000 0.23460  0.70820  0.29210  Biso   1.000  C
  H85      1.0000 0.21730  0.73890  0.25440  Biso   1.000  H
  N44      1.0000 0.26140  0.74160  0.34860  Biso   1.000  N
  N45      1.0000 0.27960  0.67810  0.38930  Biso   1.000  N
  C86      1.0000 0.26410  0.60540  0.35810  Biso   1.000  C
  H86      1.0000 0.27150  0.55020  0.37560  Biso   1.000  H
  C87      1.0000 0.30600  0.68900  0.45680  Biso   1.000  C
  H87      1.0000 0.33020  0.73010  0.46790  Biso   1.000  H
  H88      1.0000 0.31960  0.63460  0.47690  Biso   1.000  H
  C88      1.0000 0.27930  0.72140  0.48150  Biso   1.000  C
  C89      1.0000 0.25000  0.66640  0.48380  Biso   1.000  C
  H89      1.0000 0.24940  0.60870  0.47280  Biso   1.000  H
  C90      1.0000 0.27970  0.80570  0.49750  Biso   1.000  C
  H90      1.0000 0.29920  0.84490  0.49620  Biso   1.000  H
  N46      1.0000 0.14460  0.59210  0.22290  Biso   1.000  N
  C91      1.0000 0.11880  0.66090  0.18790  Biso   1.000  C
  H91      1.0000 0.11580  0.68190  0.15100  Biso   1.000  H
  N47      1.0000 0.09820  0.69350  0.21660  Biso   1.000  N
  N48      1.0000 0.11120  0.64490  0.26920  Biso   1.000  N
  C92      1.0000 0.13990  0.58230  0.27310  Biso   1.000  C
  H92      1.0000 0.15380  0.54020  0.30450  Biso   1.000  H
  C93      1.0000 0.09610  0.64200  0.31200  Biso   1.000  C
  H93      1.0000 0.11350  0.68260  0.34610  Biso   1.000  H
  H94      1.0000 0.10210  0.58430  0.33060  Biso   1.000  H
  C94      1.0000 0.04810  0.66100  0.28200  Biso   1.000  C
  C95      1.0000 0.02340  0.58700  0.26500  Biso   1.000  C
  H95      1.0000 0.03820  0.53410  0.27190  Biso   1.000  H
  C96      1.0000 0.02350  0.73500  0.26600  Biso   1.000  C
  H96      1.0000 0.03860  0.78790  0.27760  Biso   1.000  H
  Cu4      1.0000 0.19667  0.54320  0.22349  Biso   1.000  Cu
  N49      1.0000 0.65730  0.03180  0.64670  Biso   1.000  N
  C97      1.0000 0.66580  0.05830  0.60330  Biso   1.000  C
  H97      1.0000 0.68940  0.03950  0.59970  Biso   1.000  H
  N50      1.0000 0.63440  0.11650  0.56590  Biso   1.000  N
  N51      1.0000 0.60650  0.12600  0.58620  Biso   1.000  N
  C98      1.0000 0.62070  0.07370  0.63620  Biso   1.000  C
  H98      1.0000 0.60740  0.06750  0.65940  Biso   1.000  H
  C99      1.0000 0.57160  0.18920  0.56520  Biso   1.000  C
  H99      1.0000 0.55850  0.20120  0.52060  Biso   1.000  H
  H100     1.0000 0.54800  0.16650  0.57010  Biso   1.000  H
  C100     1.0000 0.58970  0.27060  0.60230  Biso   1.000  C
  C101     1.0000 0.60040  0.27700  0.66390  Biso   1.000  C
  H101     1.0000 0.59910  0.22660  0.68340  Biso   1.000  H
  C102     1.0000 0.59400  0.34590  0.57670  Biso   1.000  C
  H102     1.0000 0.58660  0.34580  0.53500  Biso   1.000  H
  N52      1.0000 0.74560  0.51830  0.75790  Biso   1.000  N
  C103     1.0000 0.73180  0.59580  0.73410  Biso   1.000  C
  H103     1.0000 0.74930  0.63880  0.73180  Biso   1.000  H
  N53      1.0000 0.68910  0.60210  0.71410  Biso   1.000  N
  N54      1.0000 0.67640  0.52850  0.72550  Biso   1.000  N
  C104     1.0000 0.71140  0.47670  0.75250  Biso   1.000  C
  H104     1.0000 0.71180  0.42030  0.76570  Biso   1.000  H
  C105     1.0000 0.63170  0.50850  0.70900  Biso   1.000  C
  H105     1.0000 0.63130  0.50220  0.74720  Biso   1.000  H
  H106     1.0000 0.61130  0.55500  0.68380  Biso   1.000  H
  C106     1.0000 0.61690  0.42650  0.67200  Biso   1.000  C
  C107     1.0000 0.61270  0.35090  0.69750  Biso   1.000  C
  H107     1.0000 0.61840  0.35100  0.73840  Biso   1.000  H
  C108     1.0000 0.60920  0.42200  0.61180  Biso   1.000  C
  H108     1.0000 0.61430  0.47060  0.59460  Biso   1.000  H
  N55      1.0000 0.73620  0.87600  0.79810  Biso   1.000  N
  C109     1.0000 0.73460  0.79180  0.79210  Biso   1.000  C
  H109     1.0000 0.71730  0.76110  0.75440  Biso   1.000  H
  N56      1.0000 0.76140  0.75840  0.84860  Biso   1.000  N
  N57      1.0000 0.77960  0.82190  0.88930  Biso   1.000  N
  C110     1.0000 0.76410  0.89460  0.85810  Biso   1.000  C
  H110     1.0000 0.77150  0.94980  0.87560  Biso   1.000  H
  C111     1.0000 0.80600  0.81100  0.95680  Biso   1.000  C
  H111     1.0000 0.83020  0.76990  0.96790  Biso   1.000  H
  H112     1.0000 0.81960  0.86540  0.97690  Biso   1.000  H
  C112     1.0000 0.77930  0.77860  0.98150  Biso   1.000  C
  C113     1.0000 0.75000  0.83360  0.98380  Biso   1.000  C
  H113     1.0000 0.74940  0.89130  0.97280  Biso   1.000  H
  C114     1.0000 0.77970  0.69430  0.99750  Biso   1.000  C
  H114     1.0000 0.79920  0.65510  0.99620  Biso   1.000  H
  N58      1.0000 0.64460  0.90790  0.72290  Biso   1.000  N
  C115     1.0000 0.61880  0.83910  0.68790  Biso   1.000  C
  H115     1.0000 0.61580  0.81810  0.65100  Biso   1.000  H
  N59      1.0000 0.59820  0.80650  0.71660  Biso   1.000  N
  N60      1.0000 0.61120  0.85510  0.76920  Biso   1.000  N
  C116     1.0000 0.63990  0.91770  0.77310  Biso   1.000  C
  H116     1.0000 0.65380  0.95980  0.80450  Biso   1.000  H
  C117     1.0000 0.59610  0.85800  0.81200  Biso   1.000  C
  H117     1.0000 0.61350  0.81740  0.84610  Biso   1.000  H
  H118     1.0000 0.60210  0.91570  0.83060  Biso   1.000  H
  C118     1.0000 0.54810  0.83900  0.78200  Biso   1.000  C
  C119     1.0000 0.52340  0.91300  0.76500  Biso   1.000  C
  H119     1.0000 0.53820  0.96590  0.77190  Biso   1.000  H
  C120     1.0000 0.52350  0.76500  0.76600  Biso   1.000  C
  H120     1.0000 0.53860  0.71210  0.77760  Biso   1.000  H
  Cu5      1.0000 0.69667  0.95680  0.72349  Biso   1.000  Cu
  N61      1.0000 0.15730  0.53180  0.64670  Biso   1.000  N
  C121     1.0000 0.16580  0.55830  0.60330  Biso   1.000  C
  H121     1.0000 0.18940  0.53950  0.59970  Biso   1.000  H
  N62      1.0000 0.13440  0.61650  0.56590  Biso   1.000  N
  N63      1.0000 0.10650  0.62600  0.58620  Biso   1.000  N
  C122     1.0000 0.12070  0.57370  0.63620  Biso   1.000  C
  H122     1.0000 0.10740  0.56750  0.65940  Biso   1.000  H
  C123     1.0000 0.07160  0.68920  0.56520  Biso   1.000  C
  H123     1.0000 0.05850  0.70120  0.52060  Biso   1.000  H
  H124     1.0000 0.04800  0.66650  0.57010  Biso   1.000  H
  C124     1.0000 0.08970  0.77060  0.60230  Biso   1.000  C
  C125     1.0000 0.10040  0.77700  0.66390  Biso   1.000  C
  H125     1.0000 0.09910  0.72660  0.68340  Biso   1.000  H
  C126     1.0000 0.09400  0.84590  0.57670  Biso   1.000  C
  H126     1.0000 0.08660  0.84580  0.53500  Biso   1.000  H
  N64      1.0000 0.24560  0.01830  0.75790  Biso   1.000  N
  C127     1.0000 0.23180  0.09580  0.73410  Biso   1.000  C
  H127     1.0000 0.24930  0.13880  0.73180  Biso   1.000  H
  N65      1.0000 0.18910  0.10210  0.71410  Biso   1.000  N
  N66      1.0000 0.17640  0.02850  0.72550  Biso   1.000  N
  C128     1.0000 0.21140  0.97670  0.75250  Biso   1.000  C
  H128     1.0000 0.21180  0.92030  0.76570  Biso   1.000  H
  C129     1.0000 0.13170  0.00850  0.70900  Biso   1.000  C
  H129     1.0000 0.13130  0.00220  0.74720  Biso   1.000  H
  H130     1.0000 0.11130  0.05500  0.68380  Biso   1.000  H
  C130     1.0000 0.11690  0.92650  0.67200  Biso   1.000  C
  C131     1.0000 0.11270  0.85090  0.69750  Biso   1.000  C
  H131     1.0000 0.11840  0.85100  0.73840  Biso   1.000  H
  C132     1.0000 0.10920  0.92200  0.61180  Biso   1.000  C
  H132     1.0000 0.11430  0.97060  0.59460  Biso   1.000  H
  N67      1.0000 0.23620  0.37600  0.79810  Biso   1.000  N
  C133     1.0000 0.23460  0.29180  0.79210  Biso   1.000  C
  H133     1.0000 0.21730  0.26110  0.75440  Biso   1.000  H
  N68      1.0000 0.26140  0.25840  0.84860  Biso   1.000  N
  N69      1.0000 0.27960  0.32190  0.88930  Biso   1.000  N
  C134     1.0000 0.26410  0.39460  0.85810  Biso   1.000  C
  H134     1.0000 0.27150  0.44980  0.87560  Biso   1.000  H
  C135     1.0000 0.30600  0.31100  0.95680  Biso   1.000  C
  H135     1.0000 0.33020  0.26990  0.96790  Biso   1.000  H
  H136     1.0000 0.31960  0.36540  0.97690  Biso   1.000  H
  C136     1.0000 0.27930  0.27860  0.98150  Biso   1.000  C
  C137     1.0000 0.25000  0.33360  0.98380  Biso   1.000  C
  H137     1.0000 0.24940  0.39130  0.97280  Biso   1.000  H
  C138     1.0000 0.27970  0.19430  0.99750  Biso   1.000  C
  H138     1.0000 0.29920  0.15510  0.99620  Biso   1.000  H
  N70      1.0000 0.14460  0.40790  0.72290  Biso   1.000  N
  C139     1.0000 0.11880  0.33910  0.68790  Biso   1.000  C
  H139     1.0000 0.11580  0.31810  0.65100  Biso   1.000  H
  N71      1.0000 0.09820  0.30650  0.71660  Biso   1.000  N
  N72      1.0000 0.11120  0.35510  0.76920  Biso   1.000  N
  C140     1.0000 0.13990  0.41770  0.77310  Biso   1.000  C
  H140     1.0000 0.15380  0.45980  0.80450  Biso   1.000  H
  C141     1.0000 0.09610  0.35800  0.81200  Biso   1.000  C
  H141     1.0000 0.11350  0.31740  0.84610  Biso   1.000  H
  H142     1.0000 0.10210  0.41570  0.83060  Biso   1.000  H
  C142     1.0000 0.04810  0.33900  0.78200  Biso   1.000  C
  C143     1.0000 0.02340  0.41300  0.76500  Biso   1.000  C
  H143     1.0000 0.03820  0.46590  0.77190  Biso   1.000  H
  C144     1.0000 0.02350  0.26500  0.76600  Biso   1.000  C
  H144     1.0000 0.03860  0.21210  0.77760  Biso   1.000  H
  Cu6      1.0000 0.19667  0.45680  0.72349  Biso   1.000  Cu
  N73      1.0000 0.34270  0.03180  0.85330  Biso   1.000  N
  C145     1.0000 0.33420  0.05830  0.89670  Biso   1.000  C
  H145     1.0000 0.31060  0.03950  0.90030  Biso   1.000  H
  N74      1.0000 0.36560  0.11650  0.93410  Biso   1.000  N
  N75      1.0000 0.39350  0.12600  0.91380  Biso   1.000  N
  C146     1.0000 0.37930  0.07370  0.86380  Biso   1.000  C
  H146     1.0000 0.39260  0.06750  0.84060  Biso   1.000  H
  C147     1.0000 0.42840  0.18920  0.93480  Biso   1.000  C
  H147     1.0000 0.44150  0.20120  0.97940  Biso   1.000  H
  H148     1.0000 0.45200  0.16650  0.92990  Biso   1.000  H
  C148     1.0000 0.41030  0.27060  0.89770  Biso   1.000  C
  C149     1.0000 0.39960  0.27700  0.83610  Biso   1.000  C
  H149     1.0000 0.40090  0.22660  0.81660  Biso   1.000  H
  C150     1.0000 0.40600  0.34590  0.92330  Biso   1.000  C
  H150     1.0000 0.41340  0.34580  0.96500  Biso   1.000  H
  N76      1.0000 0.25440  0.51830  0.74210  Biso   1.000  N
  C151     1.0000 0.26820  0.59580  0.76590  Biso   1.000  C
  H151     1.0000 0.25070  0.63880  0.76820  Biso   1.000  H
  N77      1.0000 0.31090  0.60210  0.78590  Biso   1.000  N
  N78      1.0000 0.32360  0.52850  0.77450  Biso   1.000  N
  C152     1.0000 0.28860  0.47670  0.74750  Biso   1.000  C
  H152     1.0000 0.28820  0.42030  0.73430  Biso   1.000  H
  C153     1.0000 0.36830  0.50850  0.79100  Biso   1.000  C
  H153     1.0000 0.36870  0.50220  0.75280  Biso   1.000  H
  H154     1.0000 0.38870  0.55500  0.81620  Biso   1.000  H
  C154     1.0000 0.38310  0.42650  0.82800  Biso   1.000  C
  C155     1.0000 0.38730  0.35090  0.80250  Biso   1.000  C
  H155     1.0000 0.38160  0.35100  0.76160  Biso   1.000  H
  C156     1.0000 0.39080  0.42200  0.88820  Biso   1.000  C
  H156     1.0000 0.38570  0.47060  0.90540  Biso   1.000  H
  N79      1.0000 0.26380  0.87600  0.70190  Biso   1.000  N
  C157     1.0000 0.26540  0.79180  0.70790  Biso   1.000  C
  H157     1.0000 0.28270  0.76110  0.74560  Biso   1.000  H
  N80      1.0000 0.23860  0.75840  0.65140  Biso   1.000  N
  N81      1.0000 0.22040  0.82190  0.61070  Biso   1.000  N
  C158     1.0000 0.23590  0.89460  0.64190  Biso   1.000  C
  H158     1.0000 0.22850  0.94980  0.62440  Biso   1.000  H
  C159     1.0000 0.19400  0.81100  0.54320  Biso   1.000  C
  H159     1.0000 0.16980  0.76990  0.53210  Biso   1.000  H
  H160     1.0000 0.18040  0.86540  0.52310  Biso   1.000  H
  C160     1.0000 0.22070  0.77860  0.51850  Biso   1.000  C
  C161     1.0000 0.25000  0.83360  0.51620  Biso   1.000  C
  H161     1.0000 0.25060  0.89130  0.52720  Biso   1.000  H
  C162     1.0000 0.22030  0.69430  0.50250  Biso   1.000  C
  H162     1.0000 0.20080  0.65510  0.50380  Biso   1.000  H
  N82      1.0000 0.35540  0.90790  0.77710  Biso   1.000  N
  C163     1.0000 0.38120  0.83910  0.81210  Biso   1.000  C
  H163     1.0000 0.38420  0.81810  0.84900  Biso   1.000  H
  N83      1.0000 0.40180  0.80650  0.78340  Biso   1.000  N
  N84      1.0000 0.38880  0.85510  0.73080  Biso   1.000  N
  C164     1.0000 0.36010  0.91770  0.72690  Biso   1.000  C
  H164     1.0000 0.34620  0.95980  0.69550  Biso   1.000  H
  C165     1.0000 0.40390  0.85800  0.68800  Biso   1.000  C
  H165     1.0000 0.38650  0.81740  0.65390  Biso   1.000  H
  H166     1.0000 0.39790  0.91570  0.66940  Biso   1.000  H
  C166     1.0000 0.45190  0.83900  0.71800  Biso   1.000  C
  C167     1.0000 0.47660  0.91300  0.73500  Biso   1.000  C
  H167     1.0000 0.46180  0.96590  0.72810  Biso   1.000  H
  C168     1.0000 0.47650  0.76500  0.73400  Biso   1.000  C
  H168     1.0000 0.46140  0.71210  0.72240  Biso   1.000  H
  Cu7      1.0000 0.30333  0.95680  0.77651  Biso   1.000  Cu
  N85      1.0000 0.84270  0.53180  0.85330  Biso   1.000  N
  C169     1.0000 0.83420  0.55830  0.89670  Biso   1.000  C
  H169     1.0000 0.81060  0.53950  0.90030  Biso   1.000  H
  N86      1.0000 0.86560  0.61650  0.93410  Biso   1.000  N
  N87      1.0000 0.89350  0.62600  0.91380  Biso   1.000  N
  C170     1.0000 0.87930  0.57370  0.86380  Biso   1.000  C
  H170     1.0000 0.89260  0.56750  0.84060  Biso   1.000  H
  C171     1.0000 0.92840  0.68920  0.93480  Biso   1.000  C
  H171     1.0000 0.94150  0.70120  0.97940  Biso   1.000  H
  H172     1.0000 0.95200  0.66650  0.92990  Biso   1.000  H
  C172     1.0000 0.91030  0.77060  0.89770  Biso   1.000  C
  C173     1.0000 0.89960  0.77700  0.83610  Biso   1.000  C
  H173     1.0000 0.90090  0.72660  0.81660  Biso   1.000  H
  C174     1.0000 0.90600  0.84590  0.92330  Biso   1.000  C
  H174     1.0000 0.91340  0.84580  0.96500  Biso   1.000  H
  N88      1.0000 0.75440  0.01830  0.74210  Biso   1.000  N
  C175     1.0000 0.76820  0.09580  0.76590  Biso   1.000  C
  H175     1.0000 0.75070  0.13880  0.76820  Biso   1.000  H
  N89      1.0000 0.81090  0.10210  0.78590  Biso   1.000  N
  N90      1.0000 0.82360  0.02850  0.77450  Biso   1.000  N
  C176     1.0000 0.78860  0.97670  0.74750  Biso   1.000  C
  H176     1.0000 0.78820  0.92030  0.73430  Biso   1.000  H
  C177     1.0000 0.86830  0.00850  0.79100  Biso   1.000  C
  H177     1.0000 0.86870  0.00220  0.75280  Biso   1.000  H
  H178     1.0000 0.88870  0.05500  0.81620  Biso   1.000  H
  C178     1.0000 0.88310  0.92650  0.82800  Biso   1.000  C
  C179     1.0000 0.88730  0.85090  0.80250  Biso   1.000  C
  H179     1.0000 0.88160  0.85100  0.76160  Biso   1.000  H
  C180     1.0000 0.89080  0.92200  0.88820  Biso   1.000  C
  H180     1.0000 0.88570  0.97060  0.90540  Biso   1.000  H
  N91      1.0000 0.76380  0.37600  0.70190  Biso   1.000  N
  C181     1.0000 0.76540  0.29180  0.70790  Biso   1.000  C
  H181     1.0000 0.78270  0.26110  0.74560  Biso   1.000  H
  N92      1.0000 0.73860  0.25840  0.65140  Biso   1.000  N
  N93      1.0000 0.72040  0.32190  0.61070  Biso   1.000  N
  C182     1.0000 0.73590  0.39460  0.64190  Biso   1.000  C
  H182     1.0000 0.72850  0.44980  0.62440  Biso   1.000  H
  C183     1.0000 0.69400  0.31100  0.54320  Biso   1.000  C
  H183     1.0000 0.66980  0.26990  0.53210  Biso   1.000  H
  H184     1.0000 0.68040  0.36540  0.52310  Biso   1.000  H
  C184     1.0000 0.72070  0.27860  0.51850  Biso   1.000  C
  C185     1.0000 0.75000  0.33360  0.51620  Biso   1.000  C
  H185     1.0000 0.75060  0.39130  0.52720  Biso   1.000  H
  C186     1.0000 0.72030  0.19430  0.50250  Biso   1.000  C
  H186     1.0000 0.70080  0.15510  0.50380  Biso   1.000  H
  N94      1.0000 0.85540  0.40790  0.77710  Biso   1.000  N
  C187     1.0000 0.88120  0.33910  0.81210  Biso   1.000  C
  H187     1.0000 0.88420  0.31810  0.84900  Biso   1.000  H
  N95      1.0000 0.90180  0.30650  0.78340  Biso   1.000  N
  N96      1.0000 0.88880  0.35510  0.73080  Biso   1.000  N
  C188     1.0000 0.86010  0.41770  0.72690  Biso   1.000  C
  H188     1.0000 0.84620  0.45980  0.69550  Biso   1.000  H
  C189     1.0000 0.90390  0.35800  0.68800  Biso   1.000  C
  H189     1.0000 0.88650  0.31740  0.65390  Biso   1.000  H
  H190     1.0000 0.89790  0.41570  0.66940  Biso   1.000  H
  C190     1.0000 0.95190  0.33900  0.71800  Biso   1.000  C
  C191     1.0000 0.97660  0.41300  0.73500  Biso   1.000  C
  H191     1.0000 0.96180  0.46590  0.72810  Biso   1.000  H
  C192     1.0000 0.97650  0.26500  0.73400  Biso   1.000  C
  H192     1.0000 0.96140  0.21210  0.72240  Biso   1.000  H
  Cu8      1.0000 0.80333  0.45680  0.77651  Biso   1.000  Cu
