data_image0
_cell_length_a       7.491
_cell_length_b       15.386
_cell_length_c       11.226
_cell_angle_alpha    90
_cell_angle_beta     90
_cell_angle_gamma    90

_symmetry_space_group_name_H-M    "P 1"
_symmetry_int_tables_number       1

loop_
  _symmetry_equiv_pos_as_xyz
  'x, y, z'

loop_
  _atom_site_label
  _atom_site_occupancy
  _atom_site_fract_x
  _atom_site_fract_y
  _atom_site_fract_z
  _atom_site_thermal_displace_type
  _atom_site_B_iso_or_equiv
  _atom_site_type_symbol
  Mn1      1.0000 0.47669  0.21766  0.35745  Biso   1.000  Mn
  C1       1.0000 0.64710  0.39409  0.27430  Biso   1.000  C
  C2       1.0000 0.76120  0.65513  0.01140  Biso   1.000  C
  C3       1.0000 0.59090  0.48003  0.22030  Biso   1.000  C
  C4       1.0000 0.42740  0.51596  0.25540  Biso   1.000  C
  H1       1.0000 0.35470  0.48530  0.30780  Biso   1.000  H
  C5       1.0000 0.37140  0.59640  0.21350  Biso   1.000  C
  C6       1.0000 0.48310  0.64110  0.13550  Biso   1.000  C
  H2       1.0000 0.44890  0.69560  0.10820  Biso   1.000  H
  C7       1.0000 0.64440  0.60612  0.09730  Biso   1.000  C
  C8       1.0000 0.69880  0.52525  0.14070  Biso   1.000  C
  H3       1.0000 0.80720  0.50170  0.11650  Biso   1.000  H
  C9       1.0000 0.19410  0.63420  0.25240  Biso   1.000  C
  H4       1.0000 0.13610  0.59450  0.30580  Biso   1.000  H
  H5       1.0000 0.12000  0.64340  0.18380  Biso   1.000  H
  H6       1.0000 0.21390  0.68850  0.29220  Biso   1.000  H
  O1       1.0000 0.52520  0.34916  0.31940  Biso   1.000  O
  O2       1.0000 0.81030  0.37599  0.27240  Biso   1.000  O
  O3       1.0000 0.71440  0.73122  0.97970  Biso   1.000  O
  O4       1.0000 0.90370  0.62206  0.97580  Biso   1.000  O
  Mn2      1.0000 0.52331  0.78234  0.85745  Biso   1.000  Mn
  C10      1.0000 0.35290  0.60591  0.77430  Biso   1.000  C
  C11      1.0000 0.23880  0.34487  0.51140  Biso   1.000  C
  C12      1.0000 0.40910  0.51997  0.72030  Biso   1.000  C
  C13      1.0000 0.57260  0.48404  0.75540  Biso   1.000  C
  H7       1.0000 0.64530  0.51470  0.80780  Biso   1.000  H
  C14      1.0000 0.62860  0.40360  0.71350  Biso   1.000  C
  C15      1.0000 0.51690  0.35890  0.63550  Biso   1.000  C
  H8       1.0000 0.55110  0.30440  0.60820  Biso   1.000  H
  C16      1.0000 0.35560  0.39388  0.59730  Biso   1.000  C
  C17      1.0000 0.30120  0.47475  0.64070  Biso   1.000  C
  H9       1.0000 0.19280  0.49830  0.61650  Biso   1.000  H
  C18      1.0000 0.80590  0.36580  0.75240  Biso   1.000  C
  H10      1.0000 0.86390  0.40550  0.80580  Biso   1.000  H
  H11      1.0000 0.88000  0.35660  0.68380  Biso   1.000  H
  H12      1.0000 0.78610  0.31150  0.79220  Biso   1.000  H
  O5       1.0000 0.47480  0.65084  0.81940  Biso   1.000  O
  O6       1.0000 0.18970  0.62401  0.77240  Biso   1.000  O
  O7       1.0000 0.28560  0.26878  0.47970  Biso   1.000  O
  O8       1.0000 0.09630  0.37794  0.47580  Biso   1.000  O
  Mn3      1.0000 0.97669  0.28234  0.35745  Biso   1.000  Mn
  C19      1.0000 0.14710  0.10591  0.27430  Biso   1.000  C
  C20      1.0000 0.26120  0.84487  0.01140  Biso   1.000  C
  C21      1.0000 0.09090  0.01997  0.22030  Biso   1.000  C
  C22      1.0000 0.92740  0.98404  0.25540  Biso   1.000  C
  H13      1.0000 0.85470  0.01470  0.30780  Biso   1.000  H
  C23      1.0000 0.87140  0.90360  0.21350  Biso   1.000  C
  C24      1.0000 0.98310  0.85890  0.13550  Biso   1.000  C
  H14      1.0000 0.94890  0.80440  0.10820  Biso   1.000  H
  C25      1.0000 0.14440  0.89388  0.09730  Biso   1.000  C
  C26      1.0000 0.19880  0.97475  0.14070  Biso   1.000  C
  H15      1.0000 0.30720  0.99830  0.11650  Biso   1.000  H
  C27      1.0000 0.69410  0.86580  0.25240  Biso   1.000  C
  H16      1.0000 0.63610  0.90550  0.30580  Biso   1.000  H
  H17      1.0000 0.62000  0.85660  0.18380  Biso   1.000  H
  H18      1.0000 0.71390  0.81150  0.29220  Biso   1.000  H
  O9       1.0000 0.02520  0.15084  0.31940  Biso   1.000  O
  O10      1.0000 0.31030  0.12401  0.27240  Biso   1.000  O
  O11      1.0000 0.21440  0.76878  0.97970  Biso   1.000  O
  O12      1.0000 0.40370  0.87794  0.97580  Biso   1.000  O
  Mn4      1.0000 0.02331  0.71766  0.85745  Biso   1.000  Mn
  C28      1.0000 0.85290  0.89409  0.77430  Biso   1.000  C
  C29      1.0000 0.73880  0.15513  0.51140  Biso   1.000  C
  C30      1.0000 0.90910  0.98003  0.72030  Biso   1.000  C
  C31      1.0000 0.07260  0.01596  0.75540  Biso   1.000  C
  H19      1.0000 0.14530  0.98530  0.80780  Biso   1.000  H
  C32      1.0000 0.12860  0.09640  0.71350  Biso   1.000  C
  C33      1.0000 0.01690  0.14110  0.63550  Biso   1.000  C
  H20      1.0000 0.05110  0.19560  0.60820  Biso   1.000  H
  C34      1.0000 0.85560  0.10612  0.59730  Biso   1.000  C
  C35      1.0000 0.80120  0.02525  0.64070  Biso   1.000  C
  H21      1.0000 0.69280  0.00170  0.61650  Biso   1.000  H
  C36      1.0000 0.30590  0.13420  0.75240  Biso   1.000  C
  H22      1.0000 0.36390  0.09450  0.80580  Biso   1.000  H
  H23      1.0000 0.38000  0.14340  0.68380  Biso   1.000  H
  H24      1.0000 0.28610  0.18850  0.79220  Biso   1.000  H
  O13      1.0000 0.97480  0.84916  0.81940  Biso   1.000  O
  O14      1.0000 0.68970  0.87599  0.77240  Biso   1.000  O
  O15      1.0000 0.78560  0.23122  0.47970  Biso   1.000  O
  O16      1.0000 0.59630  0.12206  0.47580  Biso   1.000  O
