data_ZISYAD_clean
_audit_creation_date              2014-07-02
_audit_creation_method            'Materials Studio'
_symmetry_space_group_name_H-M    'P1'
_symmetry_Int_Tables_number       1
_symmetry_cell_setting            triclinic
loop_
_symmetry_equiv_pos_as_xyz
  x,y,z
_cell_length_a                    7.1110
_cell_length_b                    19.4549
_cell_length_c                    19.4549
_cell_angle_alpha                 88.0860
_cell_angle_beta                  79.4698
_cell_angle_gamma                 79.4697
loop_
_atom_site_label
_atom_site_type_symbol
_atom_site_fract_x
_atom_site_fract_y
_atom_site_fract_z
_atom_site_U_iso_or_equiv
_atom_site_adp_type
_atom_site_occupancy
Cu1    Cu    0.87500   0.05020   0.44980   0.01267  Uiso   1.00
Cu2    Cu    0.37500   0.94980   0.55020   0.01267  Uiso   1.00
Cu3    Cu    0.67520   0.44980   0.94980   0.01267  Uiso   1.00
Cu4    Cu    0.07480   0.55020   0.05020   0.01267  Uiso   1.00
H1     H     0.85050   0.20760   0.42580   0.01267  Uiso   1.00
H2     H     0.61310   0.30960   0.44280   0.01267  Uiso   1.00
H3     H     0.21130   0.18880   0.49720   0.01267  Uiso   1.00
H4     H     0.45000   0.08980   0.47640   0.01267  Uiso   1.00
H5     H     0.04950   0.28220   0.56080   0.01267  Uiso   1.00
H6     H     0.79690   0.37620   0.57400   0.01267  Uiso   1.00
H7     H     0.09360   0.47500   0.41600   0.01267  Uiso   1.00
H8     H     0.34590   0.38000   0.40080   0.01267  Uiso   1.00
H9     H     0.48390   0.79240   0.57420   0.01267  Uiso   1.00
H10    H     0.36550   0.69040   0.55720   0.01267  Uiso   1.00
H11    H     0.89730   0.81120   0.50280   0.01267  Uiso   1.00
H12    H     0.01620   0.91020   0.52360   0.01267  Uiso   1.00
H13    H     0.89250   0.71780   0.43920   0.01267  Uiso   1.00
H14    H     0.74710   0.62380   0.42600   0.01267  Uiso   1.00
H15    H     0.98460   0.52500   0.58400   0.01267  Uiso   1.00
H16    H     0.12670   0.62000   0.59920   0.01267  Uiso   1.00
H17    H     0.72370   0.42580   0.79240   0.01267  Uiso   1.00
H18    H     0.94410   0.44280   0.69040   0.01267  Uiso   1.00
H19    H     0.29150   0.49720   0.81120   0.01267  Uiso   1.00
H20    H     0.07360   0.47640   0.91020   0.01267  Uiso   1.00
H21    H     0.38970   0.56080   0.71780   0.01267  Uiso   1.00
H22    H     0.62910   0.57400   0.62380   0.01267  Uiso   1.00
H23    H     0.49040   0.41600   0.52500   0.01267  Uiso   1.00
H24    H     0.25330   0.40080   0.62000   0.01267  Uiso   1.00
H25    H     0.94190   0.57420   0.20760   0.01267  Uiso   1.00
H26    H     0.07730   0.55720   0.30960   0.01267  Uiso   1.00
H27    H     0.59990   0.50280   0.18880   0.01267  Uiso   1.00
H28    H     0.46020   0.52360   0.08980   0.01267  Uiso   1.00
H29    H     0.66830   0.43920   0.28220   0.01267  Uiso   1.00
H30    H     0.82690   0.42600   0.37620   0.01267  Uiso   1.00
H31    H     0.43140   0.58400   0.47500   0.01267  Uiso   1.00
H32    H     0.27410   0.59920   0.38000   0.01267  Uiso   1.00
H33    H     0.89950   0.07420   0.29240   0.01267  Uiso   1.00
H34    H     0.13690   0.05720   0.19040   0.01267  Uiso   1.00
H35    H     0.53870   0.00280   0.31120   0.01267  Uiso   1.00
H36    H     0.30000   0.02360   0.41020   0.01267  Uiso   1.00
H37    H     0.70050   0.93920   0.21780   0.01267  Uiso   1.00
H38    H     0.95310   0.92600   0.12380   0.01267  Uiso   1.00
H39    H     0.65640   0.08400   0.02500   0.01267  Uiso   1.00
H40    H     0.40410   0.09920   0.12000   0.01267  Uiso   1.00
H41    H     0.26610   0.92580   0.70760   0.01267  Uiso   1.00
H42    H     0.38450   0.94280   0.80960   0.01267  Uiso   1.00
H43    H     0.85270   0.99720   0.68880   0.01267  Uiso   1.00
H44    H     0.73380   0.97640   0.58980   0.01267  Uiso   1.00
H45    H     0.85750   0.06080   0.78220   0.01267  Uiso   1.00
H46    H     0.00290   0.07400   0.87620   0.01267  Uiso   1.00
H47    H     0.76540   0.91600   0.97500   0.01267  Uiso   1.00
H48    H     0.62330   0.90080   0.88000   0.01267  Uiso   1.00
H49    H     0.02630   0.70760   0.07420   0.01267  Uiso   1.00
H50    H     0.80590   0.80960   0.05720   0.01267  Uiso   1.00
H51    H     0.45850   0.68880   0.00280   0.01267  Uiso   1.00
H52    H     0.67640   0.58980   0.02360   0.01267  Uiso   1.00
H53    H     0.36030   0.78220   0.93920   0.01267  Uiso   1.00
H54    H     0.12090   0.87620   0.92600   0.01267  Uiso   1.00
H55    H     0.25960   0.97500   0.08400   0.01267  Uiso   1.00
H56    H     0.49670   0.88000   0.09920   0.01267  Uiso   1.00
H57    H     0.80810   0.29240   0.92580   0.01267  Uiso   1.00
H58    H     0.67270   0.19040   0.94280   0.01267  Uiso   1.00
H59    H     0.15010   0.31120   0.99720   0.01267  Uiso   1.00
H60    H     0.28980   0.41020   0.97640   0.01267  Uiso   1.00
H61    H     0.08170   0.21780   0.06080   0.01267  Uiso   1.00
H62    H     0.92310   0.12380   0.07400   0.01267  Uiso   1.00
H63    H     0.31860   0.02500   0.91600   0.01267  Uiso   1.00
H64    H     0.47590   0.12000   0.90080   0.01267  Uiso   1.00
C1     C     0.71840   0.20400   0.44240   0.01267  Uiso   1.00
C2     C     0.57690   0.26500   0.45100   0.01267  Uiso   1.00
C3     C     0.38500   0.25920   0.47140   0.01267  Uiso   1.00
C4     C     0.34290   0.19390   0.48230   0.01267  Uiso   1.00
C5     C     0.48520   0.13470   0.47230   0.01267  Uiso   1.00
C6     C     0.22250   0.32050   0.47930   0.01267  Uiso   1.00
C7     C     0.05770   0.32130   0.53070   0.01267  Uiso   1.00
C8     C     0.90750   0.37710   0.53850   0.01267  Uiso   1.00
C9     C     0.91470   0.43530   0.49490   0.01267  Uiso   1.00
C10    C     0.08330   0.43490   0.44490   0.01267  Uiso   1.00
C11    C     0.23450   0.37900   0.43600   0.01267  Uiso   1.00
C12    C     0.36480   0.79600   0.55760   0.01267  Uiso   1.00
C13    C     0.29290   0.73500   0.54900   0.01267  Uiso   1.00
C14    C     0.11560   0.74080   0.52860   0.01267  Uiso   1.00
C15    C     0.01910   0.80610   0.51770   0.01267  Uiso   1.00
C16    C     0.09220   0.86530   0.52770   0.01267  Uiso   1.00
C17    C     0.02230   0.67950   0.52070   0.01267  Uiso   1.00
C18    C     0.90970   0.67870   0.46930   0.01267  Uiso   1.00
C19    C     0.82310   0.62290   0.46150   0.01267  Uiso   1.00
C20    C     0.84490   0.56470   0.50510   0.01267  Uiso   1.00
C21    C     0.96310   0.56510   0.55510   0.01267  Uiso   1.00
C22    C     0.04950   0.62100   0.56400   0.01267  Uiso   1.00
C23    C     0.83920   0.44240   0.79600   0.01267  Uiso   1.00
C24    C     0.97210   0.45100   0.73500   0.01267  Uiso   1.00
C25    C     0.14360   0.47140   0.74080   0.01267  Uiso   1.00
C26    C     0.17480   0.48230   0.80610   0.01267  Uiso   1.00
C27    C     0.04250   0.47230   0.86530   0.01267  Uiso   1.00
C28    C     0.29820   0.47930   0.67950   0.01267  Uiso   1.00
C29    C     0.41160   0.53070   0.67870   0.01267  Uiso   1.00
C30    C     0.55400   0.53850   0.62290   0.01267  Uiso   1.00
C31    C     0.59040   0.49490   0.56470   0.01267  Uiso   1.00
C32    C     0.47180   0.44490   0.56510   0.01267  Uiso   1.00
C33    C     0.32950   0.43600   0.62100   0.01267  Uiso   1.00
C34    C     0.07760   0.55760   0.20400   0.01267  Uiso   1.00
C35    C     0.15810   0.54900   0.26500   0.01267  Uiso   1.00
C36    C     0.35580   0.52860   0.25920   0.01267  Uiso   1.00
C37    C     0.46320   0.51770   0.19390   0.01267  Uiso   1.00
C38    C     0.38010   0.52770   0.13470   0.01267  Uiso   1.00
C39    C     0.45700   0.52070   0.32050   0.01267  Uiso   1.00
C40    C     0.62100   0.46930   0.32130   0.01267  Uiso   1.00
C41    C     0.71540   0.46150   0.37710   0.01267  Uiso   1.00
C42    C     0.65000   0.50510   0.43530   0.01267  Uiso   1.00
C43    C     0.48180   0.55510   0.43490   0.01267  Uiso   1.00
C44    C     0.38650   0.56400   0.37900   0.01267  Uiso   1.00
C45    C     0.03160   0.05760   0.29600   0.01267  Uiso   1.00
C46    C     0.17310   0.04900   0.23500   0.01267  Uiso   1.00
C47    C     0.36500   0.02860   0.24080   0.01267  Uiso   1.00
C48    C     0.40710   0.01770   0.30610   0.01267  Uiso   1.00
C49    C     0.26480   0.02770   0.36530   0.01267  Uiso   1.00
C50    C     0.52750   0.02070   0.17950   0.01267  Uiso   1.00
C51    C     0.69230   0.96930   0.17870   0.01267  Uiso   1.00
C52    C     0.84250   0.96150   0.12290   0.01267  Uiso   1.00
C53    C     0.83530   0.00510   0.06470   0.01267  Uiso   1.00
C54    C     0.66670   0.05510   0.06510   0.01267  Uiso   1.00
C55    C     0.51550   0.06400   0.12100   0.01267  Uiso   1.00
C56    C     0.38520   0.94240   0.70400   0.01267  Uiso   1.00
C57    C     0.45710   0.95100   0.76500   0.01267  Uiso   1.00
C58    C     0.63440   0.97140   0.75920   0.01267  Uiso   1.00
C59    C     0.73090   0.98230   0.69390   0.01267  Uiso   1.00
C60    C     0.65780   0.97230   0.63470   0.01267  Uiso   1.00
C61    C     0.72770   0.97930   0.82050   0.01267  Uiso   1.00
C62    C     0.84030   0.03070   0.82130   0.01267  Uiso   1.00
C63    C     0.92690   0.03850   0.87710   0.01267  Uiso   1.00
C64    C     0.90510   0.99490   0.93530   0.01267  Uiso   1.00
C65    C     0.78690   0.94490   0.93490   0.01267  Uiso   1.00
C66    C     0.70050   0.93600   0.87900   0.01267  Uiso   1.00
C67    C     0.91080   0.70400   0.05760   0.01267  Uiso   1.00
C68    C     0.77790   0.76500   0.04900   0.01267  Uiso   1.00
C69    C     0.60640   0.75920   0.02860   0.01267  Uiso   1.00
C70    C     0.57520   0.69390   0.01770   0.01267  Uiso   1.00
C71    C     0.70750   0.63470   0.02770   0.01267  Uiso   1.00
C72    C     0.45180   0.82050   0.02070   0.01267  Uiso   1.00
C73    C     0.33840   0.82130   0.96930   0.01267  Uiso   1.00
C74    C     0.19600   0.87710   0.96150   0.01267  Uiso   1.00
C75    C     0.15960   0.93530   0.00510   0.01267  Uiso   1.00
C76    C     0.27820   0.93490   0.05510   0.01267  Uiso   1.00
C77    C     0.42050   0.87900   0.06400   0.01267  Uiso   1.00
C78    C     0.67240   0.29600   0.94240   0.01267  Uiso   1.00
C79    C     0.59190   0.23500   0.95100   0.01267  Uiso   1.00
C80    C     0.39420   0.24080   0.97140   0.01267  Uiso   1.00
C81    C     0.28680   0.30610   0.98230   0.01267  Uiso   1.00
C82    C     0.36990   0.36530   0.97230   0.01267  Uiso   1.00
C83    C     0.29300   0.17950   0.97930   0.01267  Uiso   1.00
C84    C     0.12900   0.17870   0.03070   0.01267  Uiso   1.00
C85    C     0.03460   0.12290   0.03850   0.01267  Uiso   1.00
C86    C     0.10000   0.06470   0.99490   0.01267  Uiso   1.00
C87    C     0.26820   0.06510   0.94490   0.01267  Uiso   1.00
C88    C     0.36350   0.12100   0.93600   0.01267  Uiso   1.00
C89    C     0.75000   0.50000   0.50000   0.01267  Uiso   1.00
C90    C     0.00000   0.00000   0.00000   0.01267  Uiso   1.00
I1     I     0.67807   0.94693   0.44693   0.01267  Uiso   1.00
I2     I     0.07193   0.05307   0.55307   0.01267  Uiso   1.00
I3     I     0.87500   0.44693   0.05307   0.01267  Uiso   1.00
I4     I     0.37500   0.55307   0.94693   0.01267  Uiso   1.00
N1     N     0.67160   0.14070   0.45690   0.01267  Uiso   1.00
N2     N     0.26920   0.85930   0.54310   0.01267  Uiso   1.00
N3     N     0.87150   0.45690   0.85930   0.01267  Uiso   1.00
N4     N     0.18770   0.54310   0.14070   0.01267  Uiso   1.00
N5     N     0.07840   0.04310   0.35930   0.01267  Uiso   1.00
N6     N     0.48080   0.95690   0.64070   0.01267  Uiso   1.00
N7     N     0.87850   0.64070   0.04310   0.01267  Uiso   1.00
N8     N     0.56230   0.35930   0.95690   0.01267  Uiso   1.00
