data_image0
_cell_length_a       15.692
_cell_length_b       8.8335
_cell_length_c       9.529
_cell_angle_alpha    90
_cell_angle_beta     125.56
_cell_angle_gamma    90

_symmetry_space_group_name_H-M    "P 1"
_symmetry_int_tables_number       1

loop_
  _symmetry_equiv_pos_as_xyz
  'x, y, z'

loop_
  _atom_site_label
  _atom_site_occupancy
  _atom_site_fract_x
  _atom_site_fract_y
  _atom_site_fract_z
  _atom_site_thermal_displace_type
  _atom_site_B_iso_or_equiv
  _atom_site_type_symbol
  N1       1.0000 0.20422  0.03390  0.08460  Biso   1.000  N
  N2       1.0000 0.24870  0.96800  0.21630  Biso   1.000  N
  N3       1.0000 0.29283  0.89890  0.34520  Biso   1.000  N
  N4       1.0000 0.42276  0.22870  0.24280  Biso   1.000  N
  N5       1.0000 0.70422  0.53390  0.08460  Biso   1.000  N
  N6       1.0000 0.74870  0.46800  0.21630  Biso   1.000  N
  N7       1.0000 0.79283  0.39890  0.34520  Biso   1.000  N
  N8       1.0000 0.92276  0.72870  0.24280  Biso   1.000  N
  N9       1.0000 0.79578  0.03390  0.41540  Biso   1.000  N
  N10      1.0000 0.75130  0.96800  0.28370  Biso   1.000  N
  N11      1.0000 0.70717  0.89890  0.15480  Biso   1.000  N
  N12      1.0000 0.57724  0.22870  0.25720  Biso   1.000  N
  N13      1.0000 0.29578  0.53390  0.41540  Biso   1.000  N
  N14      1.0000 0.25130  0.46800  0.28370  Biso   1.000  N
  N15      1.0000 0.20717  0.39890  0.15480  Biso   1.000  N
  N16      1.0000 0.07724  0.72870  0.25720  Biso   1.000  N
  N17      1.0000 0.79578  0.96610  0.91540  Biso   1.000  N
  N18      1.0000 0.75130  0.03200  0.78370  Biso   1.000  N
  N19      1.0000 0.70717  0.10110  0.65480  Biso   1.000  N
  N20      1.0000 0.57724  0.77130  0.75720  Biso   1.000  N
  N21      1.0000 0.29578  0.46610  0.91540  Biso   1.000  N
  N22      1.0000 0.25130  0.53200  0.78370  Biso   1.000  N
  N23      1.0000 0.20717  0.60110  0.65480  Biso   1.000  N
  N24      1.0000 0.07724  0.27130  0.75720  Biso   1.000  N
  N25      1.0000 0.20422  0.96610  0.58460  Biso   1.000  N
  N26      1.0000 0.24870  0.03200  0.71630  Biso   1.000  N
  N27      1.0000 0.29283  0.10110  0.84520  Biso   1.000  N
  N28      1.0000 0.42276  0.77130  0.74280  Biso   1.000  N
  N29      1.0000 0.70422  0.46610  0.58460  Biso   1.000  N
  N30      1.0000 0.74870  0.53200  0.71630  Biso   1.000  N
  N31      1.0000 0.79283  0.60110  0.84520  Biso   1.000  N
  N32      1.0000 0.92276  0.27130  0.74280  Biso   1.000  N
  Cd1      1.0000 0.25000  0.25000  0.00000  Biso   1.000  Cd
  Cd2      1.0000 0.75000  0.25000  0.50000  Biso   1.000  Cd
  Cd3      1.0000 0.75000  0.75000  0.00000  Biso   1.000  Cd
  Cd4      1.0000 0.25000  0.75000  0.50000  Biso   1.000  Cd
  N33      1.0000 0.50000  0.23000  0.25000  Biso   1.000  N
  N34      1.0000 0.00000  0.73000  0.25000  Biso   1.000  N
  N35      1.0000 0.50000  0.77000  0.75000  Biso   1.000  N
  N36      1.0000 0.00000  0.27000  0.75000  Biso   1.000  N
