data_image0
_cell_length_a       10.578
_cell_length_b       10.578
_cell_length_c       10.578
_cell_angle_alpha    90
_cell_angle_beta     90
_cell_angle_gamma    90

_symmetry_space_group_name_H-M    "P 1"
_symmetry_int_tables_number       1

loop_
  _symmetry_equiv_pos_as_xyz
  'x, y, z'

loop_
  _atom_site_label
  _atom_site_occupancy
  _atom_site_fract_x
  _atom_site_fract_y
  _atom_site_fract_z
  _atom_site_thermal_displace_type
  _atom_site_B_iso_or_equiv
  _atom_site_type_symbol
  N1       1.0000 0.84990  0.95090  0.76180  Biso   1.000  N
  C1       1.0000 0.76860  0.86630  0.68350  Biso   1.000  C
  C2       1.0000 0.97140  0.88480  0.78590  Biso   1.000  C
  H1       1.0000 0.81100  0.84600  0.60500  Biso   1.000  H
  H2       1.0000 0.69000  0.90900  0.67500  Biso   1.000  H
  H3       1.0000 0.01600  0.87700  0.70000  Biso   1.000  H
  H4       1.0000 0.02800  0.94000  0.84200  Biso   1.000  H
  N2       1.0000 0.65010  0.04910  0.26180  Biso   1.000  N
  C3       1.0000 0.73140  0.13370  0.18350  Biso   1.000  C
  C4       1.0000 0.52860  0.11520  0.28590  Biso   1.000  C
  H5       1.0000 0.68900  0.15400  0.10500  Biso   1.000  H
  H6       1.0000 0.81000  0.09100  0.17500  Biso   1.000  H
  H7       1.0000 0.48400  0.12300  0.20000  Biso   1.000  H
  H8       1.0000 0.47200  0.06000  0.34200  Biso   1.000  H
  N3       1.0000 0.15010  0.45090  0.73820  Biso   1.000  N
  C5       1.0000 0.23140  0.36630  0.81650  Biso   1.000  C
  C6       1.0000 0.02860  0.38480  0.71410  Biso   1.000  C
  H9       1.0000 0.18900  0.34600  0.89500  Biso   1.000  H
  H10      1.0000 0.31000  0.40900  0.82500  Biso   1.000  H
  H11      1.0000 0.98400  0.37700  0.80000  Biso   1.000  H
  H12      1.0000 0.97200  0.44000  0.65800  Biso   1.000  H
  N4       1.0000 0.34990  0.54910  0.23820  Biso   1.000  N
  C7       1.0000 0.26860  0.63370  0.31650  Biso   1.000  C
  C8       1.0000 0.47140  0.61520  0.21410  Biso   1.000  C
  H13      1.0000 0.31100  0.65400  0.39500  Biso   1.000  H
  H14      1.0000 0.19000  0.59100  0.32500  Biso   1.000  H
  H15      1.0000 0.51600  0.62300  0.30000  Biso   1.000  H
  H16      1.0000 0.52800  0.56000  0.15800  Biso   1.000  H
  N5       1.0000 0.76180  0.84990  0.95090  Biso   1.000  N
  C9       1.0000 0.68350  0.76860  0.86630  Biso   1.000  C
  C10      1.0000 0.78590  0.97140  0.88480  Biso   1.000  C
  H17      1.0000 0.60500  0.81100  0.84600  Biso   1.000  H
  H18      1.0000 0.67500  0.69000  0.90900  Biso   1.000  H
  H19      1.0000 0.70000  0.01600  0.87700  Biso   1.000  H
  H20      1.0000 0.84200  0.02800  0.94000  Biso   1.000  H
  N6       1.0000 0.26180  0.65010  0.04910  Biso   1.000  N
  C11      1.0000 0.18350  0.73140  0.13370  Biso   1.000  C
  C12      1.0000 0.28590  0.52860  0.11520  Biso   1.000  C
  H21      1.0000 0.10500  0.68900  0.15400  Biso   1.000  H
  H22      1.0000 0.17500  0.81000  0.09100  Biso   1.000  H
  H23      1.0000 0.20000  0.48400  0.12300  Biso   1.000  H
  H24      1.0000 0.34200  0.47200  0.06000  Biso   1.000  H
  N7       1.0000 0.73820  0.15010  0.45090  Biso   1.000  N
  C13      1.0000 0.81650  0.23140  0.36630  Biso   1.000  C
  C14      1.0000 0.71410  0.02860  0.38480  Biso   1.000  C
  H25      1.0000 0.89500  0.18900  0.34600  Biso   1.000  H
  H26      1.0000 0.82500  0.31000  0.40900  Biso   1.000  H
  H27      1.0000 0.80000  0.98400  0.37700  Biso   1.000  H
  H28      1.0000 0.65800  0.97200  0.44000  Biso   1.000  H
  N8       1.0000 0.23820  0.34990  0.54910  Biso   1.000  N
  C15      1.0000 0.31650  0.26860  0.63370  Biso   1.000  C
  C16      1.0000 0.21410  0.47140  0.61520  Biso   1.000  C
  H29      1.0000 0.39500  0.31100  0.65400  Biso   1.000  H
  H30      1.0000 0.32500  0.19000  0.59100  Biso   1.000  H
  H31      1.0000 0.30000  0.51600  0.62300  Biso   1.000  H
  H32      1.0000 0.15800  0.52800  0.56000  Biso   1.000  H
  N9       1.0000 0.95090  0.76180  0.84990  Biso   1.000  N
  C17      1.0000 0.86630  0.68350  0.76860  Biso   1.000  C
  C18      1.0000 0.88480  0.78590  0.97140  Biso   1.000  C
  H33      1.0000 0.84600  0.60500  0.81100  Biso   1.000  H
  H34      1.0000 0.90900  0.67500  0.69000  Biso   1.000  H
  H35      1.0000 0.87700  0.70000  0.01600  Biso   1.000  H
  H36      1.0000 0.94000  0.84200  0.02800  Biso   1.000  H
  N10      1.0000 0.04910  0.26180  0.65010  Biso   1.000  N
  C19      1.0000 0.13370  0.18350  0.73140  Biso   1.000  C
  C20      1.0000 0.11520  0.28590  0.52860  Biso   1.000  C
  H37      1.0000 0.15400  0.10500  0.68900  Biso   1.000  H
  H38      1.0000 0.09100  0.17500  0.81000  Biso   1.000  H
  H39      1.0000 0.12300  0.20000  0.48400  Biso   1.000  H
  H40      1.0000 0.06000  0.34200  0.47200  Biso   1.000  H
  N11      1.0000 0.45090  0.73820  0.15010  Biso   1.000  N
  C21      1.0000 0.36630  0.81650  0.23140  Biso   1.000  C
  C22      1.0000 0.38480  0.71410  0.02860  Biso   1.000  C
  H41      1.0000 0.34600  0.89500  0.18900  Biso   1.000  H
  H42      1.0000 0.40900  0.82500  0.31000  Biso   1.000  H
  H43      1.0000 0.37700  0.80000  0.98400  Biso   1.000  H
  H44      1.0000 0.44000  0.65800  0.97200  Biso   1.000  H
  N12      1.0000 0.54910  0.23820  0.34990  Biso   1.000  N
  C23      1.0000 0.63370  0.31650  0.26860  Biso   1.000  C
  C24      1.0000 0.61520  0.21410  0.47140  Biso   1.000  C
  H45      1.0000 0.65400  0.39500  0.31100  Biso   1.000  H
  H46      1.0000 0.59100  0.32500  0.19000  Biso   1.000  H
  H47      1.0000 0.62300  0.30000  0.51600  Biso   1.000  H
  H48      1.0000 0.56000  0.15800  0.52800  Biso   1.000  H
  Ag1      1.0000 0.87008  0.12992  0.62992  Biso   1.000  Ag
  Ag2      1.0000 0.62992  0.87008  0.12992  Biso   1.000  Ag
  Ag3      1.0000 0.12992  0.62992  0.87008  Biso   1.000  Ag
  Ag4      1.0000 0.37008  0.37008  0.37008  Biso   1.000  Ag
  N13      1.0000 0.74530  0.74530  0.74530  Biso   1.000  N
  N14      1.0000 0.75470  0.25470  0.24530  Biso   1.000  N
  N15      1.0000 0.25470  0.24530  0.75470  Biso   1.000  N
  N16      1.0000 0.24530  0.75470  0.25470  Biso   1.000  N
