data_image0
_cell_length_a       8.7982
_cell_length_b       11.8876
_cell_length_c       12.6446
_cell_angle_alpha    95.219
_cell_angle_beta     106.752
_cell_angle_gamma    96.98

_symmetry_space_group_name_H-M    "P 1"
_symmetry_int_tables_number       1

loop_
  _symmetry_equiv_pos_as_xyz
  'x, y, z'

loop_
  _atom_site_label
  _atom_site_occupancy
  _atom_site_fract_x
  _atom_site_fract_y
  _atom_site_fract_z
  _atom_site_thermal_displace_type
  _atom_site_B_iso_or_equiv
  _atom_site_type_symbol
  U1       1.0000 0.15561  0.09440  0.24609  Biso   1.000  U
  C1       1.0000 0.12050  0.27930  0.65690  Biso   1.000  C
  C2       1.0000 0.09100  0.39150  0.65890  Biso   1.000  C
  H1       1.0000 0.07010  0.42550  0.59210  Biso   1.000  H
  C3       1.0000 0.09140  0.45480  0.75730  Biso   1.000  C
  C4       1.0000 0.12250  0.40480  0.85520  Biso   1.000  C
  H2       1.0000 0.12380  0.44760  0.92270  Biso   1.000  H
  C5       1.0000 0.15200  0.29190  0.85460  Biso   1.000  C
  C6       1.0000 0.14990  0.22950  0.75560  Biso   1.000  C
  H3       1.0000 0.16850  0.15250  0.75490  Biso   1.000  H
  C7       1.0000 0.12420  0.21230  0.55050  Biso   1.000  C
  H4       1.0000 0.05840  0.24400  0.48590  Biso   1.000  H
  H5       1.0000 0.07610  0.13170  0.54670  Biso   1.000  H
  C8       1.0000 0.05500  0.57540  0.75770  Biso   1.000  C
  H6       1.0000 0.09240  0.61060  0.69980  Biso   1.000  H
  H7       1.0000 0.11700  0.61980  0.83070  Biso   1.000  H
  C9       1.0000 0.17230  0.23540  0.95930  Biso   1.000  C
  H8       1.0000 0.22530  0.29290  0.02560  Biso   1.000  H
  H9       1.0000 0.24140  0.17550  0.95930  Biso   1.000  H
  O1       1.0000 0.40470  0.34080  0.56520  Biso   1.000  O
  O2       1.0000 0.32290  0.15170  0.43400  Biso   1.000  O
  O3       1.0000 0.42070  0.15880  0.64160  Biso   1.000  O
  H10      1.0000 0.40700  0.07850  0.62500  Biso   1.000  H
  O4       1.0000 0.82430  0.70810  0.71960  Biso   1.000  O
  O5       1.0000 0.74540  0.50220  0.63100  Biso   1.000  O
  O6       1.0000 0.80750  0.54850  0.83840  Biso   1.000  O
  H11      1.0000 0.70200  0.51100  0.82600  Biso   1.000  H
  O7       1.0000 0.86960  0.26860  0.95210  Biso   1.000  O
  H12      1.0000 0.81700  0.27800  0.87790  Biso   1.000  H
  O8       1.0000 0.90900  0.07780  0.87010  Biso   1.000  O
  O9       1.0000 0.99290  0.13930  0.07980  Biso   1.000  O
  P1       1.0000 0.32400  0.21704  0.54220  Biso   1.000  P
  P2       1.0000 0.84662  0.58652  0.73305  Biso   1.000  P
  P3       1.0000 0.97965  0.17263  0.96548  Biso   1.000  P
  U2       1.0000 0.84439  0.90560  0.75391  Biso   1.000  U
  C10      1.0000 0.87950  0.72070  0.34310  Biso   1.000  C
  C11      1.0000 0.90900  0.60850  0.34110  Biso   1.000  C
  H13      1.0000 0.92990  0.57450  0.40790  Biso   1.000  H
  C12      1.0000 0.90860  0.54520  0.24270  Biso   1.000  C
  C13      1.0000 0.87750  0.59520  0.14480  Biso   1.000  C
  H14      1.0000 0.87620  0.55240  0.07730  Biso   1.000  H
  C14      1.0000 0.84800  0.70810  0.14540  Biso   1.000  C
  C15      1.0000 0.85010  0.77050  0.24440  Biso   1.000  C
  H15      1.0000 0.83150  0.84750  0.24510  Biso   1.000  H
  C16      1.0000 0.87580  0.78770  0.44950  Biso   1.000  C
  H16      1.0000 0.94160  0.75600  0.51410  Biso   1.000  H
  H17      1.0000 0.92390  0.86830  0.45330  Biso   1.000  H
  C17      1.0000 0.94500  0.42460  0.24230  Biso   1.000  C
  H18      1.0000 0.90760  0.38940  0.30020  Biso   1.000  H
  H19      1.0000 0.88300  0.38020  0.16930  Biso   1.000  H
  C18      1.0000 0.82770  0.76460  0.04070  Biso   1.000  C
  H20      1.0000 0.77470  0.70710  0.97440  Biso   1.000  H
  H21      1.0000 0.75860  0.82450  0.04070  Biso   1.000  H
  O10      1.0000 0.59530  0.65920  0.43480  Biso   1.000  O
  O11      1.0000 0.67710  0.84830  0.56600  Biso   1.000  O
  O12      1.0000 0.57930  0.84120  0.35840  Biso   1.000  O
  H22      1.0000 0.59300  0.92150  0.37500  Biso   1.000  H
  O13      1.0000 0.17570  0.29190  0.28040  Biso   1.000  O
  O14      1.0000 0.25460  0.49780  0.36900  Biso   1.000  O
  O15      1.0000 0.19250  0.45150  0.16160  Biso   1.000  O
  H23      1.0000 0.29800  0.48900  0.17400  Biso   1.000  H
  O16      1.0000 0.13040  0.73140  0.04790  Biso   1.000  O
  H24      1.0000 0.18300  0.72200  0.12210  Biso   1.000  H
  O17      1.0000 0.09100  0.92220  0.12990  Biso   1.000  O
  O18      1.0000 0.00710  0.86070  0.92020  Biso   1.000  O
  P4       1.0000 0.67600  0.78296  0.45780  Biso   1.000  P
  P5       1.0000 0.15338  0.41348  0.26695  Biso   1.000  P
  P6       1.0000 0.02035  0.82737  0.03452  Biso   1.000  P
  U3       1.0000 0.50000  0.50000  0.50000  Biso   1.000  U
