data_image0
_cell_length_a       20.797
_cell_length_b       20.797
_cell_length_c       16.012
_cell_angle_alpha    90
_cell_angle_beta     90
_cell_angle_gamma    90

_symmetry_space_group_name_H-M    "P 1"
_symmetry_int_tables_number       1

loop_
  _symmetry_equiv_pos_as_xyz
  'x, y, z'

loop_
  _atom_site_label
  _atom_site_occupancy
  _atom_site_fract_x
  _atom_site_fract_y
  _atom_site_fract_z
  _atom_site_thermal_displace_type
  _atom_site_B_iso_or_equiv
  _atom_site_type_symbol
  C1       1.0000 0.39640  0.63750  0.48890  Biso   1.000  C
  C2       1.0000 0.35800  0.61990  0.56140  Biso   1.000  C
  C3       1.0000 0.31970  0.65610  0.61390  Biso   1.000  C
  C4       1.0000 0.30800  0.72540  0.61650  Biso   1.000  C
  C5       1.0000 0.31740  0.55750  0.65570  Biso   1.000  C
  C6       1.0000 0.30100  0.50020  0.70410  Biso   1.000  C
  C7       1.0000 0.23570  0.48420  0.71740  Biso   1.000  C
  H1       1.0000 0.20430  0.51140  0.69620  Biso   1.000  H
  C8       1.0000 0.21660  0.43060  0.76000  Biso   1.000  C
  H2       1.0000 0.17310  0.42280  0.76860  Biso   1.000  H
  C9       1.0000 0.26130  0.38850  0.79010  Biso   1.000  C
  C10      1.0000 0.32690  0.40170  0.78010  Biso   1.000  C
  C11      1.0000 0.34730  0.46020  0.73500  Biso   1.000  C
  H3       1.0000 0.39070  0.46950  0.72780  Biso   1.000  H
  C12      1.0000 0.37210  0.36100  0.81050  Biso   1.000  C
  H4       1.0000 0.41570  0.37040  0.80800  Biso   1.000  H
  C13      1.0000 0.34930  0.30450  0.84570  Biso   1.000  C
  H5       1.0000 0.37910  0.27270  0.85850  Biso   1.000  H
  C14      1.0000 0.28550  0.29220  0.86300  Biso   1.000  C
  H6       1.0000 0.27420  0.25740  0.89650  Biso   1.000  H
  C15      1.0000 0.24040  0.33020  0.83160  Biso   1.000  C
  H7       1.0000 0.19700  0.31990  0.83600  Biso   1.000  H
  N1       1.0000 0.35700  0.55820  0.58880  Biso   1.000  N
  N2       1.0000 0.29420  0.61630  0.67290  Biso   1.000  N
  O1       1.0000 0.42580  0.59390  0.45120  Biso   1.000  O
  O2       1.0000 0.39730  0.69700  0.46400  Biso   1.000  O
  O3       1.0000 0.33020  0.76110  0.56010  Biso   1.000  O
  O4       1.0000 0.27420  0.74520  0.67680  Biso   1.000  O
  Zn1      1.0000 0.41530  0.50012  0.51899  Biso   1.000  Zn
  C16      1.0000 0.89640  0.13750  0.98890  Biso   1.000  C
  C17      1.0000 0.85800  0.11990  0.06140  Biso   1.000  C
  C18      1.0000 0.81970  0.15610  0.11390  Biso   1.000  C
  C19      1.0000 0.80800  0.22540  0.11650  Biso   1.000  C
  C20      1.0000 0.81740  0.05750  0.15570  Biso   1.000  C
  C21      1.0000 0.80100  0.00020  0.20410  Biso   1.000  C
  C22      1.0000 0.73570  0.98420  0.21740  Biso   1.000  C
  H8       1.0000 0.70430  0.01140  0.19620  Biso   1.000  H
  C23      1.0000 0.71660  0.93060  0.26000  Biso   1.000  C
  H9       1.0000 0.67310  0.92280  0.26860  Biso   1.000  H
  C24      1.0000 0.76130  0.88850  0.29010  Biso   1.000  C
  C25      1.0000 0.82690  0.90170  0.28010  Biso   1.000  C
  C26      1.0000 0.84730  0.96020  0.23500  Biso   1.000  C
  H10      1.0000 0.89070  0.96950  0.22780  Biso   1.000  H
  C27      1.0000 0.87210  0.86100  0.31050  Biso   1.000  C
  H11      1.0000 0.91570  0.87040  0.30800  Biso   1.000  H
  C28      1.0000 0.84930  0.80450  0.34570  Biso   1.000  C
  H12      1.0000 0.87910  0.77270  0.35850  Biso   1.000  H
  C29      1.0000 0.78550  0.79220  0.36300  Biso   1.000  C
  H13      1.0000 0.77420  0.75740  0.39650  Biso   1.000  H
  C30      1.0000 0.74040  0.83020  0.33160  Biso   1.000  C
  H14      1.0000 0.69700  0.81990  0.33600  Biso   1.000  H
  N3       1.0000 0.85700  0.05820  0.08880  Biso   1.000  N
  N4       1.0000 0.79420  0.11630  0.17290  Biso   1.000  N
  O5       1.0000 0.92580  0.09390  0.95120  Biso   1.000  O
  O6       1.0000 0.89730  0.19700  0.96400  Biso   1.000  O
  O7       1.0000 0.83020  0.26110  0.06010  Biso   1.000  O
  O8       1.0000 0.77420  0.24520  0.17680  Biso   1.000  O
  Zn2      1.0000 0.91530  0.00012  0.01899  Biso   1.000  Zn
  C31      1.0000 0.10360  0.36250  0.98890  Biso   1.000  C
  C32      1.0000 0.14200  0.38010  0.06140  Biso   1.000  C
  C33      1.0000 0.18030  0.34390  0.11390  Biso   1.000  C
  C34      1.0000 0.19200  0.27460  0.11650  Biso   1.000  C
  C35      1.0000 0.18260  0.44250  0.15570  Biso   1.000  C
  C36      1.0000 0.19900  0.49980  0.20410  Biso   1.000  C
  C37      1.0000 0.26430  0.51580  0.21740  Biso   1.000  C
  H15      1.0000 0.29570  0.48860  0.19620  Biso   1.000  H
  C38      1.0000 0.28340  0.56940  0.26000  Biso   1.000  C
  H16      1.0000 0.32690  0.57720  0.26860  Biso   1.000  H
  C39      1.0000 0.23870  0.61150  0.29010  Biso   1.000  C
  C40      1.0000 0.17310  0.59830  0.28010  Biso   1.000  C
  C41      1.0000 0.15270  0.53980  0.23500  Biso   1.000  C
  H17      1.0000 0.10930  0.53050  0.22780  Biso   1.000  H
  C42      1.0000 0.12790  0.63900  0.31050  Biso   1.000  C
  H18      1.0000 0.08430  0.62960  0.30800  Biso   1.000  H
  C43      1.0000 0.15070  0.69550  0.34570  Biso   1.000  C
  H19      1.0000 0.12090  0.72730  0.35850  Biso   1.000  H
  C44      1.0000 0.21450  0.70780  0.36300  Biso   1.000  C
  H20      1.0000 0.22580  0.74260  0.39650  Biso   1.000  H
  C45      1.0000 0.25960  0.66980  0.33160  Biso   1.000  C
  H21      1.0000 0.30300  0.68010  0.33600  Biso   1.000  H
  N5       1.0000 0.14300  0.44180  0.08880  Biso   1.000  N
  N6       1.0000 0.20580  0.38370  0.17290  Biso   1.000  N
  O9       1.0000 0.07420  0.40610  0.95120  Biso   1.000  O
  O10      1.0000 0.10270  0.30300  0.96400  Biso   1.000  O
  O11      1.0000 0.16980  0.23890  0.06010  Biso   1.000  O
  O12      1.0000 0.22580  0.25480  0.17680  Biso   1.000  O
  Zn3      1.0000 0.08470  0.49988  0.01899  Biso   1.000  Zn
  C46      1.0000 0.60360  0.86250  0.48890  Biso   1.000  C
  C47      1.0000 0.64200  0.88010  0.56140  Biso   1.000  C
  C48      1.0000 0.68030  0.84390  0.61390  Biso   1.000  C
  C49      1.0000 0.69200  0.77460  0.61650  Biso   1.000  C
  C50      1.0000 0.68260  0.94250  0.65570  Biso   1.000  C
  C51      1.0000 0.69900  0.99980  0.70410  Biso   1.000  C
  C52      1.0000 0.76430  0.01580  0.71740  Biso   1.000  C
  H22      1.0000 0.79570  0.98860  0.69620  Biso   1.000  H
  C53      1.0000 0.78340  0.06940  0.76000  Biso   1.000  C
  H23      1.0000 0.82690  0.07720  0.76860  Biso   1.000  H
  C54      1.0000 0.73870  0.11150  0.79010  Biso   1.000  C
  C55      1.0000 0.67310  0.09830  0.78010  Biso   1.000  C
  C56      1.0000 0.65270  0.03980  0.73500  Biso   1.000  C
  H24      1.0000 0.60930  0.03050  0.72780  Biso   1.000  H
  C57      1.0000 0.62790  0.13900  0.81050  Biso   1.000  C
  H25      1.0000 0.58430  0.12960  0.80800  Biso   1.000  H
  C58      1.0000 0.65070  0.19550  0.84570  Biso   1.000  C
  H26      1.0000 0.62090  0.22730  0.85850  Biso   1.000  H
  C59      1.0000 0.71450  0.20780  0.86300  Biso   1.000  C
  H27      1.0000 0.72580  0.24260  0.89650  Biso   1.000  H
  C60      1.0000 0.75960  0.16980  0.83160  Biso   1.000  C
  H28      1.0000 0.80300  0.18010  0.83600  Biso   1.000  H
  N7       1.0000 0.64300  0.94180  0.58880  Biso   1.000  N
  N8       1.0000 0.70580  0.88370  0.67290  Biso   1.000  N
  O13      1.0000 0.57420  0.90610  0.45120  Biso   1.000  O
  O14      1.0000 0.60270  0.80300  0.46400  Biso   1.000  O
  O15      1.0000 0.66980  0.73890  0.56010  Biso   1.000  O
  O16      1.0000 0.72580  0.75480  0.67680  Biso   1.000  O
  Zn4      1.0000 0.58470  0.99988  0.51899  Biso   1.000  Zn
  C61      1.0000 0.11250  0.64640  0.73890  Biso   1.000  C
  C62      1.0000 0.13010  0.60800  0.81140  Biso   1.000  C
  C63      1.0000 0.09390  0.56970  0.86390  Biso   1.000  C
  C64      1.0000 0.02460  0.55800  0.86650  Biso   1.000  C
  C65      1.0000 0.19250  0.56740  0.90570  Biso   1.000  C
  C66      1.0000 0.24980  0.55100  0.95410  Biso   1.000  C
  C67      1.0000 0.26580  0.48570  0.96740  Biso   1.000  C
  H29      1.0000 0.23860  0.45430  0.94620  Biso   1.000  H
  C68      1.0000 0.31940  0.46660  0.01000  Biso   1.000  C
  H30      1.0000 0.32720  0.42310  0.01860  Biso   1.000  H
  C69      1.0000 0.36150  0.51130  0.04010  Biso   1.000  C
  C70      1.0000 0.34830  0.57690  0.03010  Biso   1.000  C
  C71      1.0000 0.28980  0.59730  0.98500  Biso   1.000  C
  H31      1.0000 0.28050  0.64070  0.97780  Biso   1.000  H
  C72      1.0000 0.38900  0.62210  0.06050  Biso   1.000  C
  H32      1.0000 0.37960  0.66570  0.05800  Biso   1.000  H
  C73      1.0000 0.44550  0.59930  0.09570  Biso   1.000  C
  H33      1.0000 0.47730  0.62910  0.10850  Biso   1.000  H
  C74      1.0000 0.45780  0.53550  0.11300  Biso   1.000  C
  H34      1.0000 0.49260  0.52420  0.14650  Biso   1.000  H
  C75      1.0000 0.41980  0.49040  0.08160  Biso   1.000  C
  H35      1.0000 0.43010  0.44700  0.08600  Biso   1.000  H
  N9       1.0000 0.19180  0.60700  0.83880  Biso   1.000  N
  N10      1.0000 0.13370  0.54420  0.92290  Biso   1.000  N
  O17      1.0000 0.15610  0.67580  0.70120  Biso   1.000  O
  O18      1.0000 0.05300  0.64730  0.71400  Biso   1.000  O
  O19      1.0000 0.98890  0.58020  0.81010  Biso   1.000  O
  O20      1.0000 0.00480  0.52420  0.92680  Biso   1.000  O
  Zn5      1.0000 0.24988  0.66530  0.76899  Biso   1.000  Zn
  C76      1.0000 0.61250  0.14640  0.23890  Biso   1.000  C
  C77      1.0000 0.63010  0.10800  0.31140  Biso   1.000  C
  C78      1.0000 0.59390  0.06970  0.36390  Biso   1.000  C
  C79      1.0000 0.52460  0.05800  0.36650  Biso   1.000  C
  C80      1.0000 0.69250  0.06740  0.40570  Biso   1.000  C
  C81      1.0000 0.74980  0.05100  0.45410  Biso   1.000  C
  C82      1.0000 0.76580  0.98570  0.46740  Biso   1.000  C
  H36      1.0000 0.73860  0.95430  0.44620  Biso   1.000  H
  C83      1.0000 0.81940  0.96660  0.51000  Biso   1.000  C
  H37      1.0000 0.82720  0.92310  0.51860  Biso   1.000  H
  C84      1.0000 0.86150  0.01130  0.54010  Biso   1.000  C
  C85      1.0000 0.84830  0.07690  0.53010  Biso   1.000  C
  C86      1.0000 0.78980  0.09730  0.48500  Biso   1.000  C
  H38      1.0000 0.78050  0.14070  0.47780  Biso   1.000  H
  C87      1.0000 0.88900  0.12210  0.56050  Biso   1.000  C
  H39      1.0000 0.87960  0.16570  0.55800  Biso   1.000  H
  C88      1.0000 0.94550  0.09930  0.59570  Biso   1.000  C
  H40      1.0000 0.97730  0.12910  0.60850  Biso   1.000  H
  C89      1.0000 0.95780  0.03550  0.61300  Biso   1.000  C
  H41      1.0000 0.99260  0.02420  0.64650  Biso   1.000  H
  C90      1.0000 0.91980  0.99040  0.58160  Biso   1.000  C
  H42      1.0000 0.93010  0.94700  0.58600  Biso   1.000  H
  N11      1.0000 0.69180  0.10700  0.33880  Biso   1.000  N
  N12      1.0000 0.63370  0.04420  0.42290  Biso   1.000  N
  O21      1.0000 0.65610  0.17580  0.20120  Biso   1.000  O
  O22      1.0000 0.55300  0.14730  0.21400  Biso   1.000  O
  O23      1.0000 0.48890  0.08020  0.31010  Biso   1.000  O
  O24      1.0000 0.50480  0.02420  0.42680  Biso   1.000  O
  Zn6      1.0000 0.74988  0.16530  0.26899  Biso   1.000  Zn
  C91      1.0000 0.38750  0.35360  0.23890  Biso   1.000  C
  C92      1.0000 0.36990  0.39200  0.31140  Biso   1.000  C
  C93      1.0000 0.40610  0.43030  0.36390  Biso   1.000  C
  C94      1.0000 0.47540  0.44200  0.36650  Biso   1.000  C
  C95      1.0000 0.30750  0.43260  0.40570  Biso   1.000  C
  C96      1.0000 0.25020  0.44900  0.45410  Biso   1.000  C
  C97      1.0000 0.23420  0.51430  0.46740  Biso   1.000  C
  H43      1.0000 0.26140  0.54570  0.44620  Biso   1.000  H
  C98      1.0000 0.18060  0.53340  0.51000  Biso   1.000  C
  H44      1.0000 0.17280  0.57690  0.51860  Biso   1.000  H
  C99      1.0000 0.13850  0.48870  0.54010  Biso   1.000  C
  C100     1.0000 0.15170  0.42310  0.53010  Biso   1.000  C
  C101     1.0000 0.21020  0.40270  0.48500  Biso   1.000  C
  H45      1.0000 0.21950  0.35930  0.47780  Biso   1.000  H
  C102     1.0000 0.11100  0.37790  0.56050  Biso   1.000  C
  H46      1.0000 0.12040  0.33430  0.55800  Biso   1.000  H
  C103     1.0000 0.05450  0.40070  0.59570  Biso   1.000  C
  H47      1.0000 0.02270  0.37090  0.60850  Biso   1.000  H
  C104     1.0000 0.04220  0.46450  0.61300  Biso   1.000  C
  H48      1.0000 0.00740  0.47580  0.64650  Biso   1.000  H
  C105     1.0000 0.08020  0.50960  0.58160  Biso   1.000  C
  H49      1.0000 0.06990  0.55300  0.58600  Biso   1.000  H
  N13      1.0000 0.30820  0.39300  0.33880  Biso   1.000  N
  N14      1.0000 0.36630  0.45580  0.42290  Biso   1.000  N
  O25      1.0000 0.34390  0.32420  0.20120  Biso   1.000  O
  O26      1.0000 0.44700  0.35270  0.21400  Biso   1.000  O
  O27      1.0000 0.51110  0.41980  0.31010  Biso   1.000  O
  O28      1.0000 0.49520  0.47580  0.42680  Biso   1.000  O
  Zn7      1.0000 0.25012  0.33470  0.26899  Biso   1.000  Zn
  C106     1.0000 0.88750  0.85360  0.73890  Biso   1.000  C
  C107     1.0000 0.86990  0.89200  0.81140  Biso   1.000  C
  C108     1.0000 0.90610  0.93030  0.86390  Biso   1.000  C
  C109     1.0000 0.97540  0.94200  0.86650  Biso   1.000  C
  C110     1.0000 0.80750  0.93260  0.90570  Biso   1.000  C
  C111     1.0000 0.75020  0.94900  0.95410  Biso   1.000  C
  C112     1.0000 0.73420  0.01430  0.96740  Biso   1.000  C
  H50      1.0000 0.76140  0.04570  0.94620  Biso   1.000  H
  C113     1.0000 0.68060  0.03340  0.01000  Biso   1.000  C
  H51      1.0000 0.67280  0.07690  0.01860  Biso   1.000  H
  C114     1.0000 0.63850  0.98870  0.04010  Biso   1.000  C
  C115     1.0000 0.65170  0.92310  0.03010  Biso   1.000  C
  C116     1.0000 0.71020  0.90270  0.98500  Biso   1.000  C
  H52      1.0000 0.71950  0.85930  0.97780  Biso   1.000  H
  C117     1.0000 0.61100  0.87790  0.06050  Biso   1.000  C
  H53      1.0000 0.62040  0.83430  0.05800  Biso   1.000  H
  C118     1.0000 0.55450  0.90070  0.09570  Biso   1.000  C
  H54      1.0000 0.52270  0.87090  0.10850  Biso   1.000  H
  C119     1.0000 0.54220  0.96450  0.11300  Biso   1.000  C
  H55      1.0000 0.50740  0.97580  0.14650  Biso   1.000  H
  C120     1.0000 0.58020  0.00960  0.08160  Biso   1.000  C
  H56      1.0000 0.56990  0.05300  0.08600  Biso   1.000  H
  N15      1.0000 0.80820  0.89300  0.83880  Biso   1.000  N
  N16      1.0000 0.86630  0.95580  0.92290  Biso   1.000  N
  O29      1.0000 0.84390  0.82420  0.70120  Biso   1.000  O
  O30      1.0000 0.94700  0.85270  0.71400  Biso   1.000  O
  O31      1.0000 0.01110  0.91980  0.81010  Biso   1.000  O
  O32      1.0000 0.99520  0.97580  0.92680  Biso   1.000  O
  Zn8      1.0000 0.75012  0.83470  0.76899  Biso   1.000  Zn
  C121     1.0000 0.60360  0.36250  0.51110  Biso   1.000  C
  C122     1.0000 0.64200  0.38010  0.43860  Biso   1.000  C
  C123     1.0000 0.68030  0.34390  0.38610  Biso   1.000  C
  C124     1.0000 0.69200  0.27460  0.38350  Biso   1.000  C
  C125     1.0000 0.68260  0.44250  0.34430  Biso   1.000  C
  C126     1.0000 0.69900  0.49980  0.29590  Biso   1.000  C
  C127     1.0000 0.76430  0.51580  0.28260  Biso   1.000  C
  H57      1.0000 0.79570  0.48860  0.30380  Biso   1.000  H
  C128     1.0000 0.78340  0.56940  0.24000  Biso   1.000  C
  H58      1.0000 0.82690  0.57720  0.23140  Biso   1.000  H
  C129     1.0000 0.73870  0.61150  0.20990  Biso   1.000  C
  C130     1.0000 0.67310  0.59830  0.21990  Biso   1.000  C
  C131     1.0000 0.65270  0.53980  0.26500  Biso   1.000  C
  H59      1.0000 0.60930  0.53050  0.27220  Biso   1.000  H
  C132     1.0000 0.62790  0.63900  0.18950  Biso   1.000  C
  H60      1.0000 0.58430  0.62960  0.19200  Biso   1.000  H
  C133     1.0000 0.65070  0.69550  0.15430  Biso   1.000  C
  H61      1.0000 0.62090  0.72730  0.14150  Biso   1.000  H
  C134     1.0000 0.71450  0.70780  0.13700  Biso   1.000  C
  H62      1.0000 0.72580  0.74260  0.10350  Biso   1.000  H
  C135     1.0000 0.75960  0.66980  0.16840  Biso   1.000  C
  H63      1.0000 0.80300  0.68010  0.16400  Biso   1.000  H
  N17      1.0000 0.64300  0.44180  0.41120  Biso   1.000  N
  N18      1.0000 0.70580  0.38370  0.32710  Biso   1.000  N
  O33      1.0000 0.57420  0.40610  0.54880  Biso   1.000  O
  O34      1.0000 0.60270  0.30300  0.53600  Biso   1.000  O
  O35      1.0000 0.66980  0.23890  0.43990  Biso   1.000  O
  O36      1.0000 0.72580  0.25480  0.32320  Biso   1.000  O
  Zn9      1.0000 0.58470  0.49988  0.48101  Biso   1.000  Zn
  C136     1.0000 0.10360  0.86250  0.01110  Biso   1.000  C
  C137     1.0000 0.14200  0.88010  0.93860  Biso   1.000  C
  C138     1.0000 0.18030  0.84390  0.88610  Biso   1.000  C
  C139     1.0000 0.19200  0.77460  0.88350  Biso   1.000  C
  C140     1.0000 0.18260  0.94250  0.84430  Biso   1.000  C
  C141     1.0000 0.19900  0.99980  0.79590  Biso   1.000  C
  C142     1.0000 0.26430  0.01580  0.78260  Biso   1.000  C
  H64      1.0000 0.29570  0.98860  0.80380  Biso   1.000  H
  C143     1.0000 0.28340  0.06940  0.74000  Biso   1.000  C
  H65      1.0000 0.32690  0.07720  0.73140  Biso   1.000  H
  C144     1.0000 0.23870  0.11150  0.70990  Biso   1.000  C
  C145     1.0000 0.17310  0.09830  0.71990  Biso   1.000  C
  C146     1.0000 0.15270  0.03980  0.76500  Biso   1.000  C
  H66      1.0000 0.10930  0.03050  0.77220  Biso   1.000  H
  C147     1.0000 0.12790  0.13900  0.68950  Biso   1.000  C
  H67      1.0000 0.08430  0.12960  0.69200  Biso   1.000  H
  C148     1.0000 0.15070  0.19550  0.65430  Biso   1.000  C
  H68      1.0000 0.12090  0.22730  0.64150  Biso   1.000  H
  C149     1.0000 0.21450  0.20780  0.63700  Biso   1.000  C
  H69      1.0000 0.22580  0.24260  0.60350  Biso   1.000  H
  C150     1.0000 0.25960  0.16980  0.66840  Biso   1.000  C
  H70      1.0000 0.30300  0.18010  0.66400  Biso   1.000  H
  N19      1.0000 0.14300  0.94180  0.91120  Biso   1.000  N
  N20      1.0000 0.20580  0.88370  0.82710  Biso   1.000  N
  O37      1.0000 0.07420  0.90610  0.04880  Biso   1.000  O
  O38      1.0000 0.10270  0.80300  0.03600  Biso   1.000  O
  O39      1.0000 0.16980  0.73890  0.93990  Biso   1.000  O
  O40      1.0000 0.22580  0.75480  0.82320  Biso   1.000  O
  Zn10     1.0000 0.08470  0.99988  0.98101  Biso   1.000  Zn
  C151     1.0000 0.89640  0.63750  0.01110  Biso   1.000  C
  C152     1.0000 0.85800  0.61990  0.93860  Biso   1.000  C
  C153     1.0000 0.81970  0.65610  0.88610  Biso   1.000  C
  C154     1.0000 0.80800  0.72540  0.88350  Biso   1.000  C
  C155     1.0000 0.81740  0.55750  0.84430  Biso   1.000  C
  C156     1.0000 0.80100  0.50020  0.79590  Biso   1.000  C
  C157     1.0000 0.73570  0.48420  0.78260  Biso   1.000  C
  H71      1.0000 0.70430  0.51140  0.80380  Biso   1.000  H
  C158     1.0000 0.71660  0.43060  0.74000  Biso   1.000  C
  H72      1.0000 0.67310  0.42280  0.73140  Biso   1.000  H
  C159     1.0000 0.76130  0.38850  0.70990  Biso   1.000  C
  C160     1.0000 0.82690  0.40170  0.71990  Biso   1.000  C
  C161     1.0000 0.84730  0.46020  0.76500  Biso   1.000  C
  H73      1.0000 0.89070  0.46950  0.77220  Biso   1.000  H
  C162     1.0000 0.87210  0.36100  0.68950  Biso   1.000  C
  H74      1.0000 0.91570  0.37040  0.69200  Biso   1.000  H
  C163     1.0000 0.84930  0.30450  0.65430  Biso   1.000  C
  H75      1.0000 0.87910  0.27270  0.64150  Biso   1.000  H
  C164     1.0000 0.78550  0.29220  0.63700  Biso   1.000  C
  H76      1.0000 0.77420  0.25740  0.60350  Biso   1.000  H
  C165     1.0000 0.74040  0.33020  0.66840  Biso   1.000  C
  H77      1.0000 0.69700  0.31990  0.66400  Biso   1.000  H
  N21      1.0000 0.85700  0.55820  0.91120  Biso   1.000  N
  N22      1.0000 0.79420  0.61630  0.82710  Biso   1.000  N
  O41      1.0000 0.92580  0.59390  0.04880  Biso   1.000  O
  O42      1.0000 0.89730  0.69700  0.03600  Biso   1.000  O
  O43      1.0000 0.83020  0.76110  0.93990  Biso   1.000  O
  O44      1.0000 0.77420  0.74520  0.82320  Biso   1.000  O
  Zn11     1.0000 0.91530  0.50012  0.98101  Biso   1.000  Zn
  C166     1.0000 0.39640  0.13750  0.51110  Biso   1.000  C
  C167     1.0000 0.35800  0.11990  0.43860  Biso   1.000  C
  C168     1.0000 0.31970  0.15610  0.38610  Biso   1.000  C
  C169     1.0000 0.30800  0.22540  0.38350  Biso   1.000  C
  C170     1.0000 0.31740  0.05750  0.34430  Biso   1.000  C
  C171     1.0000 0.30100  0.00020  0.29590  Biso   1.000  C
  C172     1.0000 0.23570  0.98420  0.28260  Biso   1.000  C
  H78      1.0000 0.20430  0.01140  0.30380  Biso   1.000  H
  C173     1.0000 0.21660  0.93060  0.24000  Biso   1.000  C
  H79      1.0000 0.17310  0.92280  0.23140  Biso   1.000  H
  C174     1.0000 0.26130  0.88850  0.20990  Biso   1.000  C
  C175     1.0000 0.32690  0.90170  0.21990  Biso   1.000  C
  C176     1.0000 0.34730  0.96020  0.26500  Biso   1.000  C
  H80      1.0000 0.39070  0.96950  0.27220  Biso   1.000  H
  C177     1.0000 0.37210  0.86100  0.18950  Biso   1.000  C
  H81      1.0000 0.41570  0.87040  0.19200  Biso   1.000  H
  C178     1.0000 0.34930  0.80450  0.15430  Biso   1.000  C
  H82      1.0000 0.37910  0.77270  0.14150  Biso   1.000  H
  C179     1.0000 0.28550  0.79220  0.13700  Biso   1.000  C
  H83      1.0000 0.27420  0.75740  0.10350  Biso   1.000  H
  C180     1.0000 0.24040  0.83020  0.16840  Biso   1.000  C
  H84      1.0000 0.19700  0.81990  0.16400  Biso   1.000  H
  N23      1.0000 0.35700  0.05820  0.41120  Biso   1.000  N
  N24      1.0000 0.29420  0.11630  0.32710  Biso   1.000  N
  O45      1.0000 0.42580  0.09390  0.54880  Biso   1.000  O
  O46      1.0000 0.39730  0.19700  0.53600  Biso   1.000  O
  O47      1.0000 0.33020  0.26110  0.43990  Biso   1.000  O
  O48      1.0000 0.27420  0.24520  0.32320  Biso   1.000  O
  Zn12     1.0000 0.41530  0.00012  0.48101  Biso   1.000  Zn
  C181     1.0000 0.88750  0.35360  0.26110  Biso   1.000  C
  C182     1.0000 0.86990  0.39200  0.18860  Biso   1.000  C
  C183     1.0000 0.90610  0.43030  0.13610  Biso   1.000  C
  C184     1.0000 0.97540  0.44200  0.13350  Biso   1.000  C
  C185     1.0000 0.80750  0.43260  0.09430  Biso   1.000  C
  C186     1.0000 0.75020  0.44900  0.04590  Biso   1.000  C
  C187     1.0000 0.73420  0.51430  0.03260  Biso   1.000  C
  H85      1.0000 0.76140  0.54570  0.05380  Biso   1.000  H
  C188     1.0000 0.68060  0.53340  0.99000  Biso   1.000  C
  H86      1.0000 0.67280  0.57690  0.98140  Biso   1.000  H
  C189     1.0000 0.63850  0.48870  0.95990  Biso   1.000  C
  C190     1.0000 0.65170  0.42310  0.96990  Biso   1.000  C
  C191     1.0000 0.71020  0.40270  0.01500  Biso   1.000  C
  H87      1.0000 0.71950  0.35930  0.02220  Biso   1.000  H
  C192     1.0000 0.61100  0.37790  0.93950  Biso   1.000  C
  H88      1.0000 0.62040  0.33430  0.94200  Biso   1.000  H
  C193     1.0000 0.55450  0.40070  0.90430  Biso   1.000  C
  H89      1.0000 0.52270  0.37090  0.89150  Biso   1.000  H
  C194     1.0000 0.54220  0.46450  0.88700  Biso   1.000  C
  H90      1.0000 0.50740  0.47580  0.85350  Biso   1.000  H
  C195     1.0000 0.58020  0.50960  0.91840  Biso   1.000  C
  H91      1.0000 0.56990  0.55300  0.91400  Biso   1.000  H
  N25      1.0000 0.80820  0.39300  0.16120  Biso   1.000  N
  N26      1.0000 0.86630  0.45580  0.07710  Biso   1.000  N
  O49      1.0000 0.84390  0.32420  0.29880  Biso   1.000  O
  O50      1.0000 0.94700  0.35270  0.28600  Biso   1.000  O
  O51      1.0000 0.01110  0.41980  0.18990  Biso   1.000  O
  O52      1.0000 0.99520  0.47580  0.07320  Biso   1.000  O
  Zn13     1.0000 0.75012  0.33470  0.23101  Biso   1.000  Zn
  C196     1.0000 0.38750  0.85360  0.76110  Biso   1.000  C
  C197     1.0000 0.36990  0.89200  0.68860  Biso   1.000  C
  C198     1.0000 0.40610  0.93030  0.63610  Biso   1.000  C
  C199     1.0000 0.47540  0.94200  0.63350  Biso   1.000  C
  C200     1.0000 0.30750  0.93260  0.59430  Biso   1.000  C
  C201     1.0000 0.25020  0.94900  0.54590  Biso   1.000  C
  C202     1.0000 0.23420  0.01430  0.53260  Biso   1.000  C
  H92      1.0000 0.26140  0.04570  0.55380  Biso   1.000  H
  C203     1.0000 0.18060  0.03340  0.49000  Biso   1.000  C
  H93      1.0000 0.17280  0.07690  0.48140  Biso   1.000  H
  C204     1.0000 0.13850  0.98870  0.45990  Biso   1.000  C
  C205     1.0000 0.15170  0.92310  0.46990  Biso   1.000  C
  C206     1.0000 0.21020  0.90270  0.51500  Biso   1.000  C
  H94      1.0000 0.21950  0.85930  0.52220  Biso   1.000  H
  C207     1.0000 0.11100  0.87790  0.43950  Biso   1.000  C
  H95      1.0000 0.12040  0.83430  0.44200  Biso   1.000  H
  C208     1.0000 0.05450  0.90070  0.40430  Biso   1.000  C
  H96      1.0000 0.02270  0.87090  0.39150  Biso   1.000  H
  C209     1.0000 0.04220  0.96450  0.38700  Biso   1.000  C
  H97      1.0000 0.00740  0.97580  0.35350  Biso   1.000  H
  C210     1.0000 0.08020  0.00960  0.41840  Biso   1.000  C
  H98      1.0000 0.06990  0.05300  0.41400  Biso   1.000  H
  N27      1.0000 0.30820  0.89300  0.66120  Biso   1.000  N
  N28      1.0000 0.36630  0.95580  0.57710  Biso   1.000  N
  O53      1.0000 0.34390  0.82420  0.79880  Biso   1.000  O
  O54      1.0000 0.44700  0.85270  0.78600  Biso   1.000  O
  O55      1.0000 0.51110  0.91980  0.68990  Biso   1.000  O
  O56      1.0000 0.49520  0.97580  0.57320  Biso   1.000  O
  Zn14     1.0000 0.25012  0.83470  0.73101  Biso   1.000  Zn
  C211     1.0000 0.61250  0.64640  0.76110  Biso   1.000  C
  C212     1.0000 0.63010  0.60800  0.68860  Biso   1.000  C
  C213     1.0000 0.59390  0.56970  0.63610  Biso   1.000  C
  C214     1.0000 0.52460  0.55800  0.63350  Biso   1.000  C
  C215     1.0000 0.69250  0.56740  0.59430  Biso   1.000  C
  C216     1.0000 0.74980  0.55100  0.54590  Biso   1.000  C
  C217     1.0000 0.76580  0.48570  0.53260  Biso   1.000  C
  H99      1.0000 0.73860  0.45430  0.55380  Biso   1.000  H
  C218     1.0000 0.81940  0.46660  0.49000  Biso   1.000  C
  H100     1.0000 0.82720  0.42310  0.48140  Biso   1.000  H
  C219     1.0000 0.86150  0.51130  0.45990  Biso   1.000  C
  C220     1.0000 0.84830  0.57690  0.46990  Biso   1.000  C
  C221     1.0000 0.78980  0.59730  0.51500  Biso   1.000  C
  H101     1.0000 0.78050  0.64070  0.52220  Biso   1.000  H
  C222     1.0000 0.88900  0.62210  0.43950  Biso   1.000  C
  H102     1.0000 0.87960  0.66570  0.44200  Biso   1.000  H
  C223     1.0000 0.94550  0.59930  0.40430  Biso   1.000  C
  H103     1.0000 0.97730  0.62910  0.39150  Biso   1.000  H
  C224     1.0000 0.95780  0.53550  0.38700  Biso   1.000  C
  H104     1.0000 0.99260  0.52420  0.35350  Biso   1.000  H
  C225     1.0000 0.91980  0.49040  0.41840  Biso   1.000  C
  H105     1.0000 0.93010  0.44700  0.41400  Biso   1.000  H
  N29      1.0000 0.69180  0.60700  0.66120  Biso   1.000  N
  N30      1.0000 0.63370  0.54420  0.57710  Biso   1.000  N
  O57      1.0000 0.65610  0.67580  0.79880  Biso   1.000  O
  O58      1.0000 0.55300  0.64730  0.78600  Biso   1.000  O
  O59      1.0000 0.48890  0.58020  0.68990  Biso   1.000  O
  O60      1.0000 0.50480  0.52420  0.57320  Biso   1.000  O
  Zn15     1.0000 0.74988  0.66530  0.73101  Biso   1.000  Zn
  C226     1.0000 0.11250  0.14640  0.26110  Biso   1.000  C
  C227     1.0000 0.13010  0.10800  0.18860  Biso   1.000  C
  C228     1.0000 0.09390  0.06970  0.13610  Biso   1.000  C
  C229     1.0000 0.02460  0.05800  0.13350  Biso   1.000  C
  C230     1.0000 0.19250  0.06740  0.09430  Biso   1.000  C
  C231     1.0000 0.24980  0.05100  0.04590  Biso   1.000  C
  C232     1.0000 0.26580  0.98570  0.03260  Biso   1.000  C
  H106     1.0000 0.23860  0.95430  0.05380  Biso   1.000  H
  C233     1.0000 0.31940  0.96660  0.99000  Biso   1.000  C
  H107     1.0000 0.32720  0.92310  0.98140  Biso   1.000  H
  C234     1.0000 0.36150  0.01130  0.95990  Biso   1.000  C
  C235     1.0000 0.34830  0.07690  0.96990  Biso   1.000  C
  C236     1.0000 0.28980  0.09730  0.01500  Biso   1.000  C
  H108     1.0000 0.28050  0.14070  0.02220  Biso   1.000  H
  C237     1.0000 0.38900  0.12210  0.93950  Biso   1.000  C
  H109     1.0000 0.37960  0.16570  0.94200  Biso   1.000  H
  C238     1.0000 0.44550  0.09930  0.90430  Biso   1.000  C
  H110     1.0000 0.47730  0.12910  0.89150  Biso   1.000  H
  C239     1.0000 0.45780  0.03550  0.88700  Biso   1.000  C
  H111     1.0000 0.49260  0.02420  0.85350  Biso   1.000  H
  C240     1.0000 0.41980  0.99040  0.91840  Biso   1.000  C
  H112     1.0000 0.43010  0.94700  0.91400  Biso   1.000  H
  N31      1.0000 0.19180  0.10700  0.16120  Biso   1.000  N
  N32      1.0000 0.13370  0.04420  0.07710  Biso   1.000  N
  O61      1.0000 0.15610  0.17580  0.29880  Biso   1.000  O
  O62      1.0000 0.05300  0.14730  0.28600  Biso   1.000  O
  O63      1.0000 0.98890  0.08020  0.18990  Biso   1.000  O
  O64      1.0000 0.00480  0.02420  0.07320  Biso   1.000  O
  Zn16     1.0000 0.24988  0.16530  0.23101  Biso   1.000  Zn
