data_image0
_cell_length_a       19.1999
_cell_length_b       19.1999
_cell_length_c       25.815
_cell_angle_alpha    90
_cell_angle_beta     90
_cell_angle_gamma    90

_symmetry_space_group_name_H-M    "P 1"
_symmetry_int_tables_number       1

loop_
  _symmetry_equiv_pos_as_xyz
  'x, y, z'

loop_
  _atom_site_label
  _atom_site_occupancy
  _atom_site_fract_x
  _atom_site_fract_y
  _atom_site_fract_z
  _atom_site_thermal_displace_type
  _atom_site_B_iso_or_equiv
  _atom_site_type_symbol
  Mn1      1.0000 0.27324  0.78719  0.98364  Biso   1.000  Mn
  Mn2      1.0000 0.38754  0.80931  0.09078  Biso   1.000  Mn
  O1       1.0000 0.15660  0.20760  0.40910  Biso   1.000  O
  O2       1.0000 0.29550  0.87130  0.45120  Biso   1.000  O
  O3       1.0000 0.20970  0.18790  0.48405  Biso   1.000  O
  O4       1.0000 0.25700  0.90570  0.99115  Biso   1.000  O
  O5       1.0000 0.29190  0.94240  0.51850  Biso   1.000  O
  O6       1.0000 0.22000  0.20830  0.08813  Biso   1.000  O
  O7       1.0000 0.28560  0.84330  0.05969  Biso   1.000  O
  O8       1.0000 0.22370  0.15900  0.01150  Biso   1.000  O
  C1       1.0000 0.26490  0.90050  0.03880  Biso   1.000  C
  C2       1.0000 0.24900  0.96200  0.07380  Biso   1.000  C
  C3       1.0000 0.24180  0.02680  0.05230  Biso   1.000  C
  H1       1.0000 0.24540  0.03260  0.01670  Biso   1.000  H
  C4       1.0000 0.22930  0.08350  0.08380  Biso   1.000  C
  C5       1.0000 0.22400  0.15400  0.05900  Biso   1.000  C
  C6       1.0000 0.22240  0.07450  0.13620  Biso   1.000  C
  H2       1.0000 0.21340  0.11250  0.15760  Biso   1.000  H
  C7       1.0000 0.22900  0.00850  0.15730  Biso   1.000  C
  C8       1.0000 0.24440  0.95230  0.12590  Biso   1.000  C
  H3       1.0000 0.25150  0.90840  0.14010  Biso   1.000  H
  C9       1.0000 0.21970  0.99750  0.21240  Biso   1.000  C
  C10      1.0000 0.22960  0.04050  0.25340  Biso   1.000  C
  H4       1.0000 0.24080  0.08760  0.25210  Biso   1.000  H
  C11      1.0000 0.19090  0.17090  0.43910  Biso   1.000  C
  C12      1.0000 0.20470  0.08420  0.36820  Biso   1.000  C
  H5       1.0000 0.18530  0.11650  0.34550  Biso   1.000  H
  C13      1.0000 0.21300  0.10060  0.42080  Biso   1.000  C
  C14      1.0000 0.22550  0.02040  0.35060  Biso   1.000  C
  C15      1.0000 0.25130  0.96980  0.38410  Biso   1.000  C
  H6       1.0000 0.26410  0.92620  0.37150  Biso   1.000  H
  C16      1.0000 0.25790  0.98510  0.43650  Biso   1.000  C
  C17      1.0000 0.23990  0.05170  0.45400  Biso   1.000  C
  H7       1.0000 0.24620  0.06300  0.48870  Biso   1.000  H
  C18      1.0000 0.28450  0.92790  0.47230  Biso   1.000  C
  N1       1.0000 0.19900  0.93620  0.28070  Biso   1.000  N
  N2       1.0000 0.20080  0.93380  0.23150  Biso   1.000  N
  N3       1.0000 0.22010  0.00210  0.29610  Biso   1.000  N
  Mn3      1.0000 0.72676  0.21281  0.98364  Biso   1.000  Mn
  Mn4      1.0000 0.61246  0.19069  0.09078  Biso   1.000  Mn
  O9       1.0000 0.84340  0.79240  0.40910  Biso   1.000  O
  O10      1.0000 0.70450  0.12870  0.45120  Biso   1.000  O
  O11      1.0000 0.79030  0.81210  0.48405  Biso   1.000  O
  O12      1.0000 0.74300  0.09430  0.99115  Biso   1.000  O
  O13      1.0000 0.70810  0.05760  0.51850  Biso   1.000  O
  O14      1.0000 0.78000  0.79170  0.08813  Biso   1.000  O
  O15      1.0000 0.71440  0.15670  0.05969  Biso   1.000  O
  O16      1.0000 0.77630  0.84100  0.01150  Biso   1.000  O
  C19      1.0000 0.73510  0.09950  0.03880  Biso   1.000  C
  C20      1.0000 0.75100  0.03800  0.07380  Biso   1.000  C
  C21      1.0000 0.75820  0.97320  0.05230  Biso   1.000  C
  H8       1.0000 0.75460  0.96740  0.01670  Biso   1.000  H
  C22      1.0000 0.77070  0.91650  0.08380  Biso   1.000  C
  C23      1.0000 0.77600  0.84600  0.05900  Biso   1.000  C
  C24      1.0000 0.77760  0.92550  0.13620  Biso   1.000  C
  H9       1.0000 0.78660  0.88750  0.15760  Biso   1.000  H
  C25      1.0000 0.77100  0.99150  0.15730  Biso   1.000  C
  C26      1.0000 0.75560  0.04770  0.12590  Biso   1.000  C
  H10      1.0000 0.74850  0.09160  0.14010  Biso   1.000  H
  C27      1.0000 0.78030  0.00250  0.21240  Biso   1.000  C
  C28      1.0000 0.77040  0.95950  0.25340  Biso   1.000  C
  H11      1.0000 0.75920  0.91240  0.25210  Biso   1.000  H
  C29      1.0000 0.80910  0.82910  0.43910  Biso   1.000  C
  C30      1.0000 0.79530  0.91580  0.36820  Biso   1.000  C
  H12      1.0000 0.81470  0.88350  0.34550  Biso   1.000  H
  C31      1.0000 0.78700  0.89940  0.42080  Biso   1.000  C
  C32      1.0000 0.77450  0.97960  0.35060  Biso   1.000  C
  C33      1.0000 0.74870  0.03020  0.38410  Biso   1.000  C
  H13      1.0000 0.73590  0.07380  0.37150  Biso   1.000  H
  C34      1.0000 0.74210  0.01490  0.43650  Biso   1.000  C
  C35      1.0000 0.76010  0.94830  0.45400  Biso   1.000  C
  H14      1.0000 0.75380  0.93700  0.48870  Biso   1.000  H
  C36      1.0000 0.71550  0.07210  0.47230  Biso   1.000  C
  N4       1.0000 0.80100  0.06380  0.28070  Biso   1.000  N
  N5       1.0000 0.79920  0.06620  0.23150  Biso   1.000  N
  N6       1.0000 0.77990  0.99790  0.29610  Biso   1.000  N
  Mn5      1.0000 0.78719  0.72676  0.01636  Biso   1.000  Mn
  Mn6      1.0000 0.80931  0.61246  0.90922  Biso   1.000  Mn
  O17      1.0000 0.20760  0.84340  0.59090  Biso   1.000  O
  O18      1.0000 0.87130  0.70450  0.54880  Biso   1.000  O
  O19      1.0000 0.18790  0.79030  0.51595  Biso   1.000  O
  O20      1.0000 0.90570  0.74300  0.00885  Biso   1.000  O
  O21      1.0000 0.94240  0.70810  0.48150  Biso   1.000  O
  O22      1.0000 0.20830  0.78000  0.91187  Biso   1.000  O
  O23      1.0000 0.84330  0.71440  0.94031  Biso   1.000  O
  O24      1.0000 0.15900  0.77630  0.98850  Biso   1.000  O
  C37      1.0000 0.90050  0.73510  0.96120  Biso   1.000  C
  C38      1.0000 0.96200  0.75100  0.92620  Biso   1.000  C
  C39      1.0000 0.02680  0.75820  0.94770  Biso   1.000  C
  H15      1.0000 0.03260  0.75460  0.98330  Biso   1.000  H
  C40      1.0000 0.08350  0.77070  0.91620  Biso   1.000  C
  C41      1.0000 0.15400  0.77600  0.94100  Biso   1.000  C
  C42      1.0000 0.07450  0.77760  0.86380  Biso   1.000  C
  H16      1.0000 0.11250  0.78660  0.84240  Biso   1.000  H
  C43      1.0000 0.00850  0.77100  0.84270  Biso   1.000  C
  C44      1.0000 0.95230  0.75560  0.87410  Biso   1.000  C
  H17      1.0000 0.90840  0.74850  0.85990  Biso   1.000  H
  C45      1.0000 0.99750  0.78030  0.78760  Biso   1.000  C
  C46      1.0000 0.04050  0.77040  0.74660  Biso   1.000  C
  H18      1.0000 0.08760  0.75920  0.74790  Biso   1.000  H
  C47      1.0000 0.17090  0.80910  0.56090  Biso   1.000  C
  C48      1.0000 0.08420  0.79530  0.63180  Biso   1.000  C
  H19      1.0000 0.11650  0.81470  0.65450  Biso   1.000  H
  C49      1.0000 0.10060  0.78700  0.57920  Biso   1.000  C
  C50      1.0000 0.02040  0.77450  0.64940  Biso   1.000  C
  C51      1.0000 0.96980  0.74870  0.61590  Biso   1.000  C
  H20      1.0000 0.92620  0.73590  0.62850  Biso   1.000  H
  C52      1.0000 0.98510  0.74210  0.56350  Biso   1.000  C
  C53      1.0000 0.05170  0.76010  0.54600  Biso   1.000  C
  H21      1.0000 0.06300  0.75380  0.51130  Biso   1.000  H
  C54      1.0000 0.92790  0.71550  0.52770  Biso   1.000  C
  N7       1.0000 0.93620  0.80100  0.71930  Biso   1.000  N
  N8       1.0000 0.93380  0.79920  0.76850  Biso   1.000  N
  N9       1.0000 0.00210  0.77990  0.70390  Biso   1.000  N
  Mn7      1.0000 0.21281  0.27324  0.01636  Biso   1.000  Mn
  Mn8      1.0000 0.19069  0.38754  0.90922  Biso   1.000  Mn
  O25      1.0000 0.79240  0.15660  0.59090  Biso   1.000  O
  O26      1.0000 0.12870  0.29550  0.54880  Biso   1.000  O
  O27      1.0000 0.81210  0.20970  0.51595  Biso   1.000  O
  O28      1.0000 0.09430  0.25700  0.00885  Biso   1.000  O
  O29      1.0000 0.05760  0.29190  0.48150  Biso   1.000  O
  O30      1.0000 0.79170  0.22000  0.91187  Biso   1.000  O
  O31      1.0000 0.15670  0.28560  0.94031  Biso   1.000  O
  O32      1.0000 0.84100  0.22370  0.98850  Biso   1.000  O
  C55      1.0000 0.09950  0.26490  0.96120  Biso   1.000  C
  C56      1.0000 0.03800  0.24900  0.92620  Biso   1.000  C
  C57      1.0000 0.97320  0.24180  0.94770  Biso   1.000  C
  H22      1.0000 0.96740  0.24540  0.98330  Biso   1.000  H
  C58      1.0000 0.91650  0.22930  0.91620  Biso   1.000  C
  C59      1.0000 0.84600  0.22400  0.94100  Biso   1.000  C
  C60      1.0000 0.92550  0.22240  0.86380  Biso   1.000  C
  H23      1.0000 0.88750  0.21340  0.84240  Biso   1.000  H
  C61      1.0000 0.99150  0.22900  0.84270  Biso   1.000  C
  C62      1.0000 0.04770  0.24440  0.87410  Biso   1.000  C
  H24      1.0000 0.09160  0.25150  0.85990  Biso   1.000  H
  C63      1.0000 0.00250  0.21970  0.78760  Biso   1.000  C
  C64      1.0000 0.95950  0.22960  0.74660  Biso   1.000  C
  H25      1.0000 0.91240  0.24080  0.74790  Biso   1.000  H
  C65      1.0000 0.82910  0.19090  0.56090  Biso   1.000  C
  C66      1.0000 0.91580  0.20470  0.63180  Biso   1.000  C
  H26      1.0000 0.88350  0.18530  0.65450  Biso   1.000  H
  C67      1.0000 0.89940  0.21300  0.57920  Biso   1.000  C
  C68      1.0000 0.97960  0.22550  0.64940  Biso   1.000  C
  C69      1.0000 0.03020  0.25130  0.61590  Biso   1.000  C
  H27      1.0000 0.07380  0.26410  0.62850  Biso   1.000  H
  C70      1.0000 0.01490  0.25790  0.56350  Biso   1.000  C
  C71      1.0000 0.94830  0.23990  0.54600  Biso   1.000  C
  H28      1.0000 0.93700  0.24620  0.51130  Biso   1.000  H
  C72      1.0000 0.07210  0.28450  0.52770  Biso   1.000  C
  N10      1.0000 0.06380  0.19900  0.71930  Biso   1.000  N
  N11      1.0000 0.06620  0.20080  0.76850  Biso   1.000  N
  N12      1.0000 0.99790  0.22010  0.70390  Biso   1.000  N
  Mn9      1.0000 0.22676  0.28719  0.51636  Biso   1.000  Mn
  Mn10     1.0000 0.11246  0.30931  0.40922  Biso   1.000  Mn
  O33      1.0000 0.34340  0.70760  0.09090  Biso   1.000  O
  O34      1.0000 0.20450  0.37130  0.04880  Biso   1.000  O
  O35      1.0000 0.29030  0.68790  0.01595  Biso   1.000  O
  O36      1.0000 0.24300  0.40570  0.50885  Biso   1.000  O
  O37      1.0000 0.20810  0.44240  0.98150  Biso   1.000  O
  O38      1.0000 0.28000  0.70830  0.41187  Biso   1.000  O
  O39      1.0000 0.21440  0.34330  0.44031  Biso   1.000  O
  O40      1.0000 0.27630  0.65900  0.48850  Biso   1.000  O
  C73      1.0000 0.23510  0.40050  0.46120  Biso   1.000  C
  C74      1.0000 0.25100  0.46200  0.42620  Biso   1.000  C
  C75      1.0000 0.25820  0.52680  0.44770  Biso   1.000  C
  H29      1.0000 0.25460  0.53260  0.48330  Biso   1.000  H
  C76      1.0000 0.27070  0.58350  0.41620  Biso   1.000  C
  C77      1.0000 0.27600  0.65400  0.44100  Biso   1.000  C
  C78      1.0000 0.27760  0.57450  0.36380  Biso   1.000  C
  H30      1.0000 0.28660  0.61250  0.34240  Biso   1.000  H
  C79      1.0000 0.27100  0.50850  0.34270  Biso   1.000  C
  C80      1.0000 0.25560  0.45230  0.37410  Biso   1.000  C
  H31      1.0000 0.24850  0.40840  0.35990  Biso   1.000  H
  C81      1.0000 0.28030  0.49750  0.28760  Biso   1.000  C
  C82      1.0000 0.27040  0.54050  0.24660  Biso   1.000  C
  H32      1.0000 0.25920  0.58760  0.24790  Biso   1.000  H
  C83      1.0000 0.30910  0.67090  0.06090  Biso   1.000  C
  C84      1.0000 0.29530  0.58420  0.13180  Biso   1.000  C
  H33      1.0000 0.31470  0.61650  0.15450  Biso   1.000  H
  C85      1.0000 0.28700  0.60060  0.07920  Biso   1.000  C
  C86      1.0000 0.27450  0.52040  0.14940  Biso   1.000  C
  C87      1.0000 0.24870  0.46980  0.11590  Biso   1.000  C
  H34      1.0000 0.23590  0.42620  0.12850  Biso   1.000  H
  C88      1.0000 0.24210  0.48510  0.06350  Biso   1.000  C
  C89      1.0000 0.26010  0.55170  0.04600  Biso   1.000  C
  H35      1.0000 0.25380  0.56300  0.01130  Biso   1.000  H
  C90      1.0000 0.21550  0.42790  0.02770  Biso   1.000  C
  N13      1.0000 0.30100  0.43620  0.21930  Biso   1.000  N
  N14      1.0000 0.29920  0.43380  0.26850  Biso   1.000  N
  N15      1.0000 0.27990  0.50210  0.20390  Biso   1.000  N
  Mn11     1.0000 0.77324  0.71281  0.51636  Biso   1.000  Mn
  Mn12     1.0000 0.88754  0.69069  0.40922  Biso   1.000  Mn
  O41      1.0000 0.65660  0.29240  0.09090  Biso   1.000  O
  O42      1.0000 0.79550  0.62870  0.04880  Biso   1.000  O
  O43      1.0000 0.70970  0.31210  0.01595  Biso   1.000  O
  O44      1.0000 0.75700  0.59430  0.50885  Biso   1.000  O
  O45      1.0000 0.79190  0.55760  0.98150  Biso   1.000  O
  O46      1.0000 0.72000  0.29170  0.41187  Biso   1.000  O
  O47      1.0000 0.78560  0.65670  0.44031  Biso   1.000  O
  O48      1.0000 0.72370  0.34100  0.48850  Biso   1.000  O
  C91      1.0000 0.76490  0.59950  0.46120  Biso   1.000  C
  C92      1.0000 0.74900  0.53800  0.42620  Biso   1.000  C
  C93      1.0000 0.74180  0.47320  0.44770  Biso   1.000  C
  H36      1.0000 0.74540  0.46740  0.48330  Biso   1.000  H
  C94      1.0000 0.72930  0.41650  0.41620  Biso   1.000  C
  C95      1.0000 0.72400  0.34600  0.44100  Biso   1.000  C
  C96      1.0000 0.72240  0.42550  0.36380  Biso   1.000  C
  H37      1.0000 0.71340  0.38750  0.34240  Biso   1.000  H
  C97      1.0000 0.72900  0.49150  0.34270  Biso   1.000  C
  C98      1.0000 0.74440  0.54770  0.37410  Biso   1.000  C
  H38      1.0000 0.75150  0.59160  0.35990  Biso   1.000  H
  C99      1.0000 0.71970  0.50250  0.28760  Biso   1.000  C
  C100     1.0000 0.72960  0.45950  0.24660  Biso   1.000  C
  H39      1.0000 0.74080  0.41240  0.24790  Biso   1.000  H
  C101     1.0000 0.69090  0.32910  0.06090  Biso   1.000  C
  C102     1.0000 0.70470  0.41580  0.13180  Biso   1.000  C
  H40      1.0000 0.68530  0.38350  0.15450  Biso   1.000  H
  C103     1.0000 0.71300  0.39940  0.07920  Biso   1.000  C
  C104     1.0000 0.72550  0.47960  0.14940  Biso   1.000  C
  C105     1.0000 0.75130  0.53020  0.11590  Biso   1.000  C
  H41      1.0000 0.76410  0.57380  0.12850  Biso   1.000  H
  C106     1.0000 0.75790  0.51490  0.06350  Biso   1.000  C
  C107     1.0000 0.73990  0.44830  0.04600  Biso   1.000  C
  H42      1.0000 0.74620  0.43700  0.01130  Biso   1.000  H
  C108     1.0000 0.78450  0.57210  0.02770  Biso   1.000  C
  N16      1.0000 0.69900  0.56380  0.21930  Biso   1.000  N
  N17      1.0000 0.70080  0.56620  0.26850  Biso   1.000  N
  N18      1.0000 0.72010  0.49790  0.20390  Biso   1.000  N
  Mn13     1.0000 0.71281  0.22676  0.48364  Biso   1.000  Mn
  Mn14     1.0000 0.69069  0.11246  0.59078  Biso   1.000  Mn
  O49      1.0000 0.29240  0.34340  0.90910  Biso   1.000  O
  O50      1.0000 0.62870  0.20450  0.95120  Biso   1.000  O
  O51      1.0000 0.31210  0.29030  0.98405  Biso   1.000  O
  O52      1.0000 0.59430  0.24300  0.49115  Biso   1.000  O
  O53      1.0000 0.55760  0.20810  0.01850  Biso   1.000  O
  O54      1.0000 0.29170  0.28000  0.58813  Biso   1.000  O
  O55      1.0000 0.65670  0.21440  0.55969  Biso   1.000  O
  O56      1.0000 0.34100  0.27630  0.51150  Biso   1.000  O
  C109     1.0000 0.59950  0.23510  0.53880  Biso   1.000  C
  C110     1.0000 0.53800  0.25100  0.57380  Biso   1.000  C
  C111     1.0000 0.47320  0.25820  0.55230  Biso   1.000  C
  H43      1.0000 0.46740  0.25460  0.51670  Biso   1.000  H
  C112     1.0000 0.41650  0.27070  0.58380  Biso   1.000  C
  C113     1.0000 0.34600  0.27600  0.55900  Biso   1.000  C
  C114     1.0000 0.42550  0.27760  0.63620  Biso   1.000  C
  H44      1.0000 0.38750  0.28660  0.65760  Biso   1.000  H
  C115     1.0000 0.49150  0.27100  0.65730  Biso   1.000  C
  C116     1.0000 0.54770  0.25560  0.62590  Biso   1.000  C
  H45      1.0000 0.59160  0.24850  0.64010  Biso   1.000  H
  C117     1.0000 0.50250  0.28030  0.71240  Biso   1.000  C
  C118     1.0000 0.45950  0.27040  0.75340  Biso   1.000  C
  H46      1.0000 0.41240  0.25920  0.75210  Biso   1.000  H
  C119     1.0000 0.32910  0.30910  0.93910  Biso   1.000  C
  C120     1.0000 0.41580  0.29530  0.86820  Biso   1.000  C
  H47      1.0000 0.38350  0.31470  0.84550  Biso   1.000  H
  C121     1.0000 0.39940  0.28700  0.92080  Biso   1.000  C
  C122     1.0000 0.47960  0.27450  0.85060  Biso   1.000  C
  C123     1.0000 0.53020  0.24870  0.88410  Biso   1.000  C
  H48      1.0000 0.57380  0.23590  0.87150  Biso   1.000  H
  C124     1.0000 0.51490  0.24210  0.93650  Biso   1.000  C
  C125     1.0000 0.44830  0.26010  0.95400  Biso   1.000  C
  H49      1.0000 0.43700  0.25380  0.98870  Biso   1.000  H
  C126     1.0000 0.57210  0.21550  0.97230  Biso   1.000  C
  N19      1.0000 0.56380  0.30100  0.78070  Biso   1.000  N
  N20      1.0000 0.56620  0.29920  0.73150  Biso   1.000  N
  N21      1.0000 0.49790  0.27990  0.79610  Biso   1.000  N
  Mn15     1.0000 0.28719  0.77324  0.48364  Biso   1.000  Mn
  Mn16     1.0000 0.30931  0.88754  0.59078  Biso   1.000  Mn
  O57      1.0000 0.70760  0.65660  0.90910  Biso   1.000  O
  O58      1.0000 0.37130  0.79550  0.95120  Biso   1.000  O
  O59      1.0000 0.68790  0.70970  0.98405  Biso   1.000  O
  O60      1.0000 0.40570  0.75700  0.49115  Biso   1.000  O
  O61      1.0000 0.44240  0.79190  0.01850  Biso   1.000  O
  O62      1.0000 0.70830  0.72000  0.58813  Biso   1.000  O
  O63      1.0000 0.34330  0.78560  0.55969  Biso   1.000  O
  O64      1.0000 0.65900  0.72370  0.51150  Biso   1.000  O
  C127     1.0000 0.40050  0.76490  0.53880  Biso   1.000  C
  C128     1.0000 0.46200  0.74900  0.57380  Biso   1.000  C
  C129     1.0000 0.52680  0.74180  0.55230  Biso   1.000  C
  H50      1.0000 0.53260  0.74540  0.51670  Biso   1.000  H
  C130     1.0000 0.58350  0.72930  0.58380  Biso   1.000  C
  C131     1.0000 0.65400  0.72400  0.55900  Biso   1.000  C
  C132     1.0000 0.57450  0.72240  0.63620  Biso   1.000  C
  H51      1.0000 0.61250  0.71340  0.65760  Biso   1.000  H
  C133     1.0000 0.50850  0.72900  0.65730  Biso   1.000  C
  C134     1.0000 0.45230  0.74440  0.62590  Biso   1.000  C
  H52      1.0000 0.40840  0.75150  0.64010  Biso   1.000  H
  C135     1.0000 0.49750  0.71970  0.71240  Biso   1.000  C
  C136     1.0000 0.54050  0.72960  0.75340  Biso   1.000  C
  H53      1.0000 0.58760  0.74080  0.75210  Biso   1.000  H
  C137     1.0000 0.67090  0.69090  0.93910  Biso   1.000  C
  C138     1.0000 0.58420  0.70470  0.86820  Biso   1.000  C
  H54      1.0000 0.61650  0.68530  0.84550  Biso   1.000  H
  C139     1.0000 0.60060  0.71300  0.92080  Biso   1.000  C
  C140     1.0000 0.52040  0.72550  0.85060  Biso   1.000  C
  C141     1.0000 0.46980  0.75130  0.88410  Biso   1.000  C
  H55      1.0000 0.42620  0.76410  0.87150  Biso   1.000  H
  C142     1.0000 0.48510  0.75790  0.93650  Biso   1.000  C
  C143     1.0000 0.55170  0.73990  0.95400  Biso   1.000  C
  H56      1.0000 0.56300  0.74620  0.98870  Biso   1.000  H
  C144     1.0000 0.42790  0.78450  0.97230  Biso   1.000  C
  N22      1.0000 0.43620  0.69900  0.78070  Biso   1.000  N
  N23      1.0000 0.43380  0.70080  0.73150  Biso   1.000  N
  N24      1.0000 0.50210  0.72010  0.79610  Biso   1.000  N
