data_image0
_cell_length_a       10.213
_cell_length_b       17.607
_cell_length_c       28.123
_cell_angle_alpha    90
_cell_angle_beta     98.6
_cell_angle_gamma    90

_symmetry_space_group_name_H-M    "P 1"
_symmetry_int_tables_number       1

loop_
  _symmetry_equiv_pos_as_xyz
  'x, y, z'

loop_
  _atom_site_label
  _atom_site_occupancy
  _atom_site_fract_x
  _atom_site_fract_y
  _atom_site_fract_z
  _atom_site_thermal_displace_type
  _atom_site_B_iso_or_equiv
  _atom_site_type_symbol
  Co1      1.0000 0.20943  0.62384  0.16944  Biso   1.000  Co
  Co2      1.0000 0.00826  0.54941  0.25564  Biso   1.000  Co
  O1       1.0000 0.66920  0.34560  0.87725  Biso   1.000  O
  O2       1.0000 0.54260  0.38440  0.81130  Biso   1.000  O
  O3       1.0000 0.21120  0.51261  0.16813  Biso   1.000  O
  O4       1.0000 0.11920  0.46510  0.22943  Biso   1.000  O
  O5       1.0000 0.27650  0.19990  0.27846  Biso   1.000  O
  O6       1.0000 0.34110  0.12400  0.22294  Biso   1.000  O
  O7       1.0000 0.05460  0.39390  0.80726  Biso   1.000  O
  O8       1.0000 0.96610  0.35310  0.86943  Biso   1.000  O
  C1       1.0000 0.17980  0.45930  0.19412  Biso   1.000  C
  C2       1.0000 0.22260  0.38110  0.18045  Biso   1.000  C
  C3       1.0000 0.23390  0.32150  0.21291  Biso   1.000  C
  H1       1.0000 0.20890  0.32850  0.24310  Biso   1.000  H
  C4       1.0000 0.28230  0.25110  0.20096  Biso   1.000  C
  C5       1.0000 0.31730  0.23980  0.15513  Biso   1.000  C
  H2       1.0000 0.34980  0.19310  0.14680  Biso   1.000  H
  C6       1.0000 0.30300  0.29890  0.12244  Biso   1.000  C
  C7       1.0000 0.25540  0.36970  0.13505  Biso   1.000  C
  H3       1.0000 0.24580  0.40910  0.11280  Biso   1.000  H
  C8       1.0000 0.28420  0.32010  0.03333  Biso   1.000  C
  H4       1.0000 0.20920  0.35060  0.02860  Biso   1.000  H
  C9       1.0000 0.34130  0.31780  0.94901  Biso   1.000  C
  C10      1.0000 0.55660  0.36090  0.85317  Biso   1.000  C
  C11      1.0000 0.43690  0.34900  0.87759  Biso   1.000  C
  C12      1.0000 0.30980  0.36270  0.85309  Biso   1.000  C
  H5       1.0000 0.29870  0.37840  0.82120  Biso   1.000  H
  C13      1.0000 0.45240  0.32690  0.92592  Biso   1.000  C
  H6       1.0000 0.53670  0.31820  0.94270  Biso   1.000  H
  C14      1.0000 0.30180  0.18640  0.23687  Biso   1.000  C
  C15      1.0000 0.06390  0.36900  0.84860  Biso   1.000  C
  C16      1.0000 0.20020  0.35310  0.87613  Biso   1.000  C
  C17      1.0000 0.21540  0.33070  0.92352  Biso   1.000  C
  H7       1.0000 0.14120  0.32410  0.93860  Biso   1.000  H
  C18      1.0000 0.35630  0.29780  0.99929  Biso   1.000  C
  N1       1.0000 0.34020  0.29020  0.07474  Biso   1.000  N
  N2       1.0000 0.44840  0.25150  0.06710  Biso   1.000  N
  N3       1.0000 0.45830  0.25720  0.02130  Biso   1.000  N
  Co3      1.0000 0.29057  0.12384  0.33056  Biso   1.000  Co
  Co4      1.0000 0.49174  0.04941  0.24436  Biso   1.000  Co
  O9       1.0000 0.83080  0.84560  0.62275  Biso   1.000  O
  O10      1.0000 0.95740  0.88440  0.68870  Biso   1.000  O
  O11      1.0000 0.28880  0.01261  0.33187  Biso   1.000  O
  O12      1.0000 0.38080  0.96510  0.27057  Biso   1.000  O
  O13      1.0000 0.22350  0.69990  0.22154  Biso   1.000  O
  O14      1.0000 0.15890  0.62400  0.27706  Biso   1.000  O
  O15      1.0000 0.44540  0.89390  0.69274  Biso   1.000  O
  O16      1.0000 0.53390  0.85310  0.63057  Biso   1.000  O
  C19      1.0000 0.32020  0.95930  0.30588  Biso   1.000  C
  C20      1.0000 0.27740  0.88110  0.31955  Biso   1.000  C
  C21      1.0000 0.26610  0.82150  0.28709  Biso   1.000  C
  H8       1.0000 0.29110  0.82850  0.25690  Biso   1.000  H
  C22      1.0000 0.21770  0.75110  0.29904  Biso   1.000  C
  C23      1.0000 0.18270  0.73980  0.34487  Biso   1.000  C
  H9       1.0000 0.15020  0.69310  0.35320  Biso   1.000  H
  C24      1.0000 0.19700  0.79890  0.37756  Biso   1.000  C
  C25      1.0000 0.24460  0.86970  0.36495  Biso   1.000  C
  H10      1.0000 0.25420  0.90910  0.38720  Biso   1.000  H
  C26      1.0000 0.21580  0.82010  0.46667  Biso   1.000  C
  H11      1.0000 0.29080  0.85060  0.47140  Biso   1.000  H
  C27      1.0000 0.15870  0.81780  0.55099  Biso   1.000  C
  C28      1.0000 0.94340  0.86090  0.64683  Biso   1.000  C
  C29      1.0000 0.06310  0.84900  0.62241  Biso   1.000  C
  C30      1.0000 0.19020  0.86270  0.64691  Biso   1.000  C
  H12      1.0000 0.20130  0.87840  0.67880  Biso   1.000  H
  C31      1.0000 0.04760  0.82690  0.57408  Biso   1.000  C
  H13      1.0000 0.96330  0.81820  0.55730  Biso   1.000  H
  C32      1.0000 0.19820  0.68640  0.26313  Biso   1.000  C
  C33      1.0000 0.43610  0.86900  0.65140  Biso   1.000  C
  C34      1.0000 0.29980  0.85310  0.62387  Biso   1.000  C
  C35      1.0000 0.28460  0.83070  0.57648  Biso   1.000  C
  H14      1.0000 0.35880  0.82410  0.56140  Biso   1.000  H
  C36      1.0000 0.14370  0.79780  0.50071  Biso   1.000  C
  N4       1.0000 0.15980  0.79020  0.42526  Biso   1.000  N
  N5       1.0000 0.05160  0.75150  0.43290  Biso   1.000  N
  N6       1.0000 0.04170  0.75720  0.47870  Biso   1.000  N
  Co5      1.0000 0.79057  0.37616  0.83056  Biso   1.000  Co
  Co6      1.0000 0.99174  0.45059  0.74436  Biso   1.000  Co
  O17      1.0000 0.33080  0.65440  0.12275  Biso   1.000  O
  O18      1.0000 0.45740  0.61560  0.18870  Biso   1.000  O
  O19      1.0000 0.78880  0.48739  0.83187  Biso   1.000  O
  O20      1.0000 0.88080  0.53490  0.77057  Biso   1.000  O
  O21      1.0000 0.72350  0.80010  0.72154  Biso   1.000  O
  O22      1.0000 0.65890  0.87600  0.77706  Biso   1.000  O
  O23      1.0000 0.94540  0.60610  0.19274  Biso   1.000  O
  O24      1.0000 0.03390  0.64690  0.13057  Biso   1.000  O
  C37      1.0000 0.82020  0.54070  0.80588  Biso   1.000  C
  C38      1.0000 0.77740  0.61890  0.81955  Biso   1.000  C
  C39      1.0000 0.76610  0.67850  0.78709  Biso   1.000  C
  H15      1.0000 0.79110  0.67150  0.75690  Biso   1.000  H
  C40      1.0000 0.71770  0.74890  0.79904  Biso   1.000  C
  C41      1.0000 0.68270  0.76020  0.84487  Biso   1.000  C
  H16      1.0000 0.65020  0.80690  0.85320  Biso   1.000  H
  C42      1.0000 0.69700  0.70110  0.87756  Biso   1.000  C
  C43      1.0000 0.74460  0.63030  0.86495  Biso   1.000  C
  H17      1.0000 0.75420  0.59090  0.88720  Biso   1.000  H
  C44      1.0000 0.71580  0.67990  0.96667  Biso   1.000  C
  H18      1.0000 0.79080  0.64940  0.97140  Biso   1.000  H
  C45      1.0000 0.65870  0.68220  0.05099  Biso   1.000  C
  C46      1.0000 0.44340  0.63910  0.14683  Biso   1.000  C
  C47      1.0000 0.56310  0.65100  0.12241  Biso   1.000  C
  C48      1.0000 0.69020  0.63730  0.14691  Biso   1.000  C
  H19      1.0000 0.70130  0.62160  0.17880  Biso   1.000  H
  C49      1.0000 0.54760  0.67310  0.07408  Biso   1.000  C
  H20      1.0000 0.46330  0.68180  0.05730  Biso   1.000  H
  C50      1.0000 0.69820  0.81360  0.76313  Biso   1.000  C
  C51      1.0000 0.93610  0.63100  0.15140  Biso   1.000  C
  C52      1.0000 0.79980  0.64690  0.12387  Biso   1.000  C
  C53      1.0000 0.78460  0.66930  0.07648  Biso   1.000  C
  H21      1.0000 0.85880  0.67590  0.06140  Biso   1.000  H
  C54      1.0000 0.64370  0.70220  0.00071  Biso   1.000  C
  N7       1.0000 0.65980  0.70980  0.92526  Biso   1.000  N
  N8       1.0000 0.55160  0.74850  0.93290  Biso   1.000  N
  N9       1.0000 0.54170  0.74280  0.97870  Biso   1.000  N
  Co7      1.0000 0.70943  0.87616  0.66944  Biso   1.000  Co
  Co8      1.0000 0.50826  0.95059  0.75564  Biso   1.000  Co
  O25      1.0000 0.16920  0.15440  0.37725  Biso   1.000  O
  O26      1.0000 0.04260  0.11560  0.31130  Biso   1.000  O
  O27      1.0000 0.71120  0.98739  0.66813  Biso   1.000  O
  O28      1.0000 0.61920  0.03490  0.72943  Biso   1.000  O
  O29      1.0000 0.77650  0.30010  0.77846  Biso   1.000  O
  O30      1.0000 0.84110  0.37600  0.72294  Biso   1.000  O
  O31      1.0000 0.55460  0.10610  0.30726  Biso   1.000  O
  O32      1.0000 0.46610  0.14690  0.36943  Biso   1.000  O
  C55      1.0000 0.67980  0.04070  0.69412  Biso   1.000  C
  C56      1.0000 0.72260  0.11890  0.68045  Biso   1.000  C
  C57      1.0000 0.73390  0.17850  0.71291  Biso   1.000  C
  H22      1.0000 0.70890  0.17150  0.74310  Biso   1.000  H
  C58      1.0000 0.78230  0.24890  0.70096  Biso   1.000  C
  C59      1.0000 0.81730  0.26020  0.65513  Biso   1.000  C
  H23      1.0000 0.84980  0.30690  0.64680  Biso   1.000  H
  C60      1.0000 0.80300  0.20110  0.62244  Biso   1.000  C
  C61      1.0000 0.75540  0.13030  0.63505  Biso   1.000  C
  H24      1.0000 0.74580  0.09090  0.61280  Biso   1.000  H
  C62      1.0000 0.78420  0.17990  0.53333  Biso   1.000  C
  H25      1.0000 0.70920  0.14940  0.52860  Biso   1.000  H
  C63      1.0000 0.84130  0.18220  0.44901  Biso   1.000  C
  C64      1.0000 0.05660  0.13910  0.35317  Biso   1.000  C
  C65      1.0000 0.93690  0.15100  0.37759  Biso   1.000  C
  C66      1.0000 0.80980  0.13730  0.35309  Biso   1.000  C
  H26      1.0000 0.79870  0.12160  0.32120  Biso   1.000  H
  C67      1.0000 0.95240  0.17310  0.42592  Biso   1.000  C
  H27      1.0000 0.03670  0.18180  0.44270  Biso   1.000  H
  C68      1.0000 0.80180  0.31360  0.73687  Biso   1.000  C
  C69      1.0000 0.56390  0.13100  0.34860  Biso   1.000  C
  C70      1.0000 0.70020  0.14690  0.37613  Biso   1.000  C
  C71      1.0000 0.71540  0.16930  0.42352  Biso   1.000  C
  H28      1.0000 0.64120  0.17590  0.43860  Biso   1.000  H
  C72      1.0000 0.85630  0.20220  0.49929  Biso   1.000  C
  N10      1.0000 0.84020  0.20980  0.57474  Biso   1.000  N
  N11      1.0000 0.94840  0.24850  0.56710  Biso   1.000  N
  N12      1.0000 0.95830  0.24280  0.52130  Biso   1.000  N
