data_image0
_cell_length_a       15.8585
_cell_length_b       13.419
_cell_length_c       6.6158
_cell_angle_alpha    90
_cell_angle_beta     97.925
_cell_angle_gamma    90

_symmetry_space_group_name_H-M    "P 1"
_symmetry_int_tables_number       1

loop_
  _symmetry_equiv_pos_as_xyz
  'x, y, z'

loop_
  _atom_site_label
  _atom_site_occupancy
  _atom_site_fract_x
  _atom_site_fract_y
  _atom_site_fract_z
  _atom_site_thermal_displace_type
  _atom_site_B_iso_or_equiv
  _atom_site_type_symbol
  Er1      1.0000 0.24882  0.56099  0.03600  Biso   1.000  Er
  C1       1.0000 0.14290  0.38850  0.98330  Biso   1.000  C
  C2       1.0000 0.08680  0.29680  0.94610  Biso   1.000  C
  C3       1.0000 0.12440  0.20320  0.95210  Biso   1.000  C
  C4       1.0000 0.99550  0.12630  0.87970  Biso   1.000  C
  C5       1.0000 0.95150  0.21610  0.87700  Biso   1.000  C
  C6       1.0000 0.99970  0.30370  0.90740  Biso   1.000  C
  C7       1.0000 0.85650  0.21690  0.83670  Biso   1.000  C
  C8       1.0000 0.39950  0.55190  0.33330  Biso   1.000  C
  C9       1.0000 0.47810  0.54860  0.49040  Biso   1.000  C
  N1       1.0000 0.07988  0.11876  0.91700  Biso   1.000  N
  O1       1.0000 0.11087  0.47319  0.94280  Biso   1.000  O
  O2       1.0000 0.21950  0.37756  0.05610  Biso   1.000  O
  O3       1.0000 0.81892  0.13690  0.78280  Biso   1.000  O
  O4       1.0000 0.81898  0.29670  0.86550  Biso   1.000  O
  O5       1.0000 0.38482  0.48790  0.19280  Biso   1.000  O
  O6       1.0000 0.34680  0.62110  0.34600  Biso   1.000  O
  H1       1.0000 0.18330  0.19900  0.98190  Biso   1.000  H
  H2       1.0000 0.96400  0.06800  0.85390  Biso   1.000  H
  H3       1.0000 0.97310  0.36550  0.90140  Biso   1.000  H
  H4       1.0000 0.51780  0.59860  0.45570  Biso   1.000  H
  H5       1.0000 0.46210  0.56630  0.62210  Biso   1.000  H
  Er2      1.0000 0.75118  0.06099  0.46400  Biso   1.000  Er
  C10      1.0000 0.85710  0.88850  0.51670  Biso   1.000  C
  C11      1.0000 0.91320  0.79680  0.55390  Biso   1.000  C
  C12      1.0000 0.87560  0.70320  0.54790  Biso   1.000  C
  C13      1.0000 0.00450  0.62630  0.62030  Biso   1.000  C
  C14      1.0000 0.04850  0.71610  0.62300  Biso   1.000  C
  C15      1.0000 0.00030  0.80370  0.59260  Biso   1.000  C
  C16      1.0000 0.14350  0.71690  0.66330  Biso   1.000  C
  C17      1.0000 0.60050  0.05190  0.16670  Biso   1.000  C
  C18      1.0000 0.52190  0.04860  0.00960  Biso   1.000  C
  N2       1.0000 0.92012  0.61876  0.58300  Biso   1.000  N
  O7       1.0000 0.88913  0.97319  0.55720  Biso   1.000  O
  O8       1.0000 0.78050  0.87756  0.44390  Biso   1.000  O
  O9       1.0000 0.18108  0.63690  0.71720  Biso   1.000  O
  O10      1.0000 0.18102  0.79670  0.63450  Biso   1.000  O
  O11      1.0000 0.61518  0.98790  0.30720  Biso   1.000  O
  O12      1.0000 0.65320  0.12110  0.15400  Biso   1.000  O
  H6       1.0000 0.81670  0.69900  0.51810  Biso   1.000  H
  H7       1.0000 0.03600  0.56800  0.64610  Biso   1.000  H
  H8       1.0000 0.02690  0.86550  0.59860  Biso   1.000  H
  H9       1.0000 0.48220  0.09860  0.04430  Biso   1.000  H
  H10      1.0000 0.53790  0.06630  0.87790  Biso   1.000  H
  Er3      1.0000 0.75118  0.43901  0.96400  Biso   1.000  Er
  C19      1.0000 0.85710  0.61150  0.01670  Biso   1.000  C
  C20      1.0000 0.91320  0.70320  0.05390  Biso   1.000  C
  C21      1.0000 0.87560  0.79680  0.04790  Biso   1.000  C
  C22      1.0000 0.00450  0.87370  0.12030  Biso   1.000  C
  C23      1.0000 0.04850  0.78390  0.12300  Biso   1.000  C
  C24      1.0000 0.00030  0.69630  0.09260  Biso   1.000  C
  C25      1.0000 0.14350  0.78310  0.16330  Biso   1.000  C
  C26      1.0000 0.60050  0.44810  0.66670  Biso   1.000  C
  C27      1.0000 0.52190  0.45140  0.50960  Biso   1.000  C
  N3       1.0000 0.92012  0.88124  0.08300  Biso   1.000  N
  O13      1.0000 0.88913  0.52681  0.05720  Biso   1.000  O
  O14      1.0000 0.78050  0.62244  0.94390  Biso   1.000  O
  O15      1.0000 0.18108  0.86310  0.21720  Biso   1.000  O
  O16      1.0000 0.18102  0.70330  0.13450  Biso   1.000  O
  O17      1.0000 0.61518  0.51210  0.80720  Biso   1.000  O
  O18      1.0000 0.65320  0.37890  0.65400  Biso   1.000  O
  H11      1.0000 0.81670  0.80100  0.01810  Biso   1.000  H
  H12      1.0000 0.03600  0.93200  0.14610  Biso   1.000  H
  H13      1.0000 0.02690  0.63450  0.09860  Biso   1.000  H
  H14      1.0000 0.48220  0.40140  0.54430  Biso   1.000  H
  H15      1.0000 0.53790  0.43370  0.37790  Biso   1.000  H
  Er4      1.0000 0.24882  0.93901  0.53600  Biso   1.000  Er
  C28      1.0000 0.14290  0.11150  0.48330  Biso   1.000  C
  C29      1.0000 0.08680  0.20320  0.44610  Biso   1.000  C
  C30      1.0000 0.12440  0.29680  0.45210  Biso   1.000  C
  C31      1.0000 0.99550  0.37370  0.37970  Biso   1.000  C
  C32      1.0000 0.95150  0.28390  0.37700  Biso   1.000  C
  C33      1.0000 0.99970  0.19630  0.40740  Biso   1.000  C
  C34      1.0000 0.85650  0.28310  0.33670  Biso   1.000  C
  C35      1.0000 0.39950  0.94810  0.83330  Biso   1.000  C
  C36      1.0000 0.47810  0.95140  0.99040  Biso   1.000  C
  N4       1.0000 0.07988  0.38124  0.41700  Biso   1.000  N
  O19      1.0000 0.11087  0.02681  0.44280  Biso   1.000  O
  O20      1.0000 0.21950  0.12244  0.55610  Biso   1.000  O
  O21      1.0000 0.81892  0.36310  0.28280  Biso   1.000  O
  O22      1.0000 0.81898  0.20330  0.36550  Biso   1.000  O
  O23      1.0000 0.38482  0.01210  0.69280  Biso   1.000  O
  O24      1.0000 0.34680  0.87890  0.84600  Biso   1.000  O
  H16      1.0000 0.18330  0.30100  0.48190  Biso   1.000  H
  H17      1.0000 0.96400  0.43200  0.35390  Biso   1.000  H
  H18      1.0000 0.97310  0.13450  0.40140  Biso   1.000  H
  H19      1.0000 0.51780  0.90140  0.95570  Biso   1.000  H
  H20      1.0000 0.46210  0.93370  0.12210  Biso   1.000  H
