data_image0
_cell_length_a       8.4548
_cell_length_b       13.1047
_cell_length_c       9.4885
_cell_angle_alpha    90
_cell_angle_beta     94.439
_cell_angle_gamma    90

_symmetry_space_group_name_H-M    "P 1"
_symmetry_int_tables_number       1

loop_
  _symmetry_equiv_pos_as_xyz
  'x, y, z'

loop_
  _atom_site_label
  _atom_site_occupancy
  _atom_site_fract_x
  _atom_site_fract_y
  _atom_site_fract_z
  _atom_site_thermal_displace_type
  _atom_site_B_iso_or_equiv
  _atom_site_type_symbol
  Tb1      1.0000 0.03815  0.76903  0.49144  Biso   1.000  Tb
  O1       1.0000 0.84050  0.64040  0.38600  Biso   1.000  O
  O2       1.0000 0.78280  0.71280  0.58340  Biso   1.000  O
  O3       1.0000 0.65000  0.61390  0.84220  Biso   1.000  O
  O4       1.0000 0.83430  0.51110  0.76680  Biso   1.000  O
  O5       1.0000 0.54920  0.56790  0.12550  Biso   1.000  O
  O6       1.0000 0.53540  0.70620  0.25050  Biso   1.000  O
  C1       1.0000 0.75240  0.64830  0.48830  Biso   1.000  C
  C2       1.0000 0.52410  0.54920  0.37430  Biso   1.000  C
  C3       1.0000 0.61700  0.57490  0.49590  Biso   1.000  C
  C4       1.0000 0.59250  0.52660  0.62440  Biso   1.000  C
  C5       1.0000 0.69980  0.55270  0.75680  Biso   1.000  C
  C6       1.0000 0.53900  0.61050  0.24200  Biso   1.000  C
  Tb2      1.0000 0.46185  0.26902  0.00856  Biso   1.000  Tb
  O7       1.0000 0.65950  0.14040  0.11400  Biso   1.000  O
  O8       1.0000 0.71720  0.21280  0.91660  Biso   1.000  O
  O9       1.0000 0.85000  0.11390  0.65780  Biso   1.000  O
  O10      1.0000 0.66570  0.01110  0.73320  Biso   1.000  O
  O11      1.0000 0.95080  0.06790  0.37450  Biso   1.000  O
  O12      1.0000 0.96460  0.20620  0.24950  Biso   1.000  O
  C7       1.0000 0.74760  0.14830  0.01170  Biso   1.000  C
  C8       1.0000 0.97590  0.04920  0.12570  Biso   1.000  C
  C9       1.0000 0.88300  0.07490  0.00410  Biso   1.000  C
  C10      1.0000 0.90750  0.02660  0.87560  Biso   1.000  C
  C11      1.0000 0.80020  0.05270  0.74320  Biso   1.000  C
  C12      1.0000 0.96100  0.11050  0.25800  Biso   1.000  C
  Tb3      1.0000 0.96185  0.23098  0.50856  Biso   1.000  Tb
  O13      1.0000 0.15950  0.35960  0.61400  Biso   1.000  O
  O14      1.0000 0.21720  0.28720  0.41660  Biso   1.000  O
  O15      1.0000 0.35000  0.38610  0.15780  Biso   1.000  O
  O16      1.0000 0.16570  0.48890  0.23320  Biso   1.000  O
  O17      1.0000 0.45080  0.43210  0.87450  Biso   1.000  O
  O18      1.0000 0.46460  0.29380  0.74950  Biso   1.000  O
  C13      1.0000 0.24760  0.35170  0.51170  Biso   1.000  C
  C14      1.0000 0.47590  0.45080  0.62570  Biso   1.000  C
  C15      1.0000 0.38300  0.42510  0.50410  Biso   1.000  C
  C16      1.0000 0.40750  0.47340  0.37560  Biso   1.000  C
  C17      1.0000 0.30020  0.44730  0.24320  Biso   1.000  C
  C18      1.0000 0.46100  0.38950  0.75800  Biso   1.000  C
  Tb4      1.0000 0.53815  0.73098  0.99144  Biso   1.000  Tb
  O19      1.0000 0.34050  0.85960  0.88600  Biso   1.000  O
  O20      1.0000 0.28280  0.78720  0.08340  Biso   1.000  O
  O21      1.0000 0.15000  0.88610  0.34220  Biso   1.000  O
  O22      1.0000 0.33430  0.98890  0.26680  Biso   1.000  O
  O23      1.0000 0.04920  0.93210  0.62550  Biso   1.000  O
  O24      1.0000 0.03540  0.79380  0.75050  Biso   1.000  O
  C19      1.0000 0.25240  0.85170  0.98830  Biso   1.000  C
  C20      1.0000 0.02410  0.95080  0.87430  Biso   1.000  C
  C21      1.0000 0.11700  0.92510  0.99590  Biso   1.000  C
  C22      1.0000 0.09250  0.97340  0.12440  Biso   1.000  C
  C23      1.0000 0.19980  0.94730  0.25680  Biso   1.000  C
  C24      1.0000 0.03900  0.88950  0.74200  Biso   1.000  C
