data_image0
_cell_length_a       13.971
_cell_length_b       12.841
_cell_length_c       7.137
_cell_angle_alpha    90
_cell_angle_beta     90.74
_cell_angle_gamma    90

_symmetry_space_group_name_H-M    "P 1"
_symmetry_int_tables_number       1

loop_
  _symmetry_equiv_pos_as_xyz
  'x, y, z'

loop_
  _atom_site_label
  _atom_site_occupancy
  _atom_site_fract_x
  _atom_site_fract_y
  _atom_site_fract_z
  _atom_site_thermal_displace_type
  _atom_site_B_iso_or_equiv
  _atom_site_type_symbol
  C1       1.0000 0.13670  0.26550  0.82100  Biso   1.000  C
  H1       1.0000 0.11380  0.29740  0.71260  Biso   1.000  H
  C2       1.0000 0.14460  0.26560  0.12700  Biso   1.000  C
  H2       1.0000 0.13320  0.29470  0.24400  Biso   1.000  H
  C3       1.0000 0.20550  0.17260  0.11500  Biso   1.000  C
  H3       1.0000 0.22340  0.13580  0.22170  Biso   1.000  H
  C4       1.0000 0.19570  0.18300  0.79200  Biso   1.000  C
  H4       1.0000 0.20750  0.15750  0.67250  Biso   1.000  H
  C5       1.0000 0.23510  0.14170  0.94200  Biso   1.000  C
  C6       1.0000 0.30220  0.04330  0.92600  Biso   1.000  C
  H5       1.0000 0.27190  0.98440  0.98650  Biso   1.000  H
  H6       1.0000 0.31020  0.02610  0.79500  Biso   1.000  H
  C7       1.0000 0.45030  0.15180  0.97300  Biso   1.000  C
  H7       1.0000 0.41940  0.21030  0.03350  Biso   1.000  H
  H8       1.0000 0.44590  0.16330  0.83880  Biso   1.000  H
  N1       1.0000 0.10630  0.30800  0.97940  Biso   1.000  N
  N2       1.0000 0.39890  0.06170  0.01520  Biso   1.000  N
  H9       1.0000 0.42260  0.01680  0.09210  Biso   1.000  H
  O1       1.0000 0.01720  0.43040  0.29920  Biso   1.000  O
  C8       1.0000 0.63670  0.76550  0.82100  Biso   1.000  C
  H10      1.0000 0.61380  0.79740  0.71260  Biso   1.000  H
  C9       1.0000 0.64460  0.76560  0.12700  Biso   1.000  C
  H11      1.0000 0.63320  0.79470  0.24400  Biso   1.000  H
  C10      1.0000 0.70550  0.67260  0.11500  Biso   1.000  C
  H12      1.0000 0.72340  0.63580  0.22170  Biso   1.000  H
  C11      1.0000 0.69570  0.68300  0.79200  Biso   1.000  C
  H13      1.0000 0.70750  0.65750  0.67250  Biso   1.000  H
  C12      1.0000 0.73510  0.64170  0.94200  Biso   1.000  C
  C13      1.0000 0.80220  0.54330  0.92600  Biso   1.000  C
  H14      1.0000 0.77190  0.48440  0.98650  Biso   1.000  H
  H15      1.0000 0.81020  0.52610  0.79500  Biso   1.000  H
  C14      1.0000 0.95030  0.65180  0.97300  Biso   1.000  C
  H16      1.0000 0.91940  0.71030  0.03350  Biso   1.000  H
  H17      1.0000 0.94590  0.66330  0.83880  Biso   1.000  H
  N3       1.0000 0.60630  0.80800  0.97940  Biso   1.000  N
  N4       1.0000 0.89890  0.56170  0.01520  Biso   1.000  N
  H18      1.0000 0.92260  0.51680  0.09210  Biso   1.000  H
  O2       1.0000 0.51720  0.93040  0.29920  Biso   1.000  O
  C15      1.0000 0.86330  0.26550  0.17900  Biso   1.000  C
  H19      1.0000 0.88620  0.29740  0.28740  Biso   1.000  H
  C16      1.0000 0.85540  0.26560  0.87300  Biso   1.000  C
  H20      1.0000 0.86680  0.29470  0.75600  Biso   1.000  H
  C17      1.0000 0.79450  0.17260  0.88500  Biso   1.000  C
  H21      1.0000 0.77660  0.13580  0.77830  Biso   1.000  H
  C18      1.0000 0.80430  0.18300  0.20800  Biso   1.000  C
  H22      1.0000 0.79250  0.15750  0.32750  Biso   1.000  H
  C19      1.0000 0.76490  0.14170  0.05800  Biso   1.000  C
  C20      1.0000 0.69780  0.04330  0.07400  Biso   1.000  C
  H23      1.0000 0.72810  0.98440  0.01350  Biso   1.000  H
  H24      1.0000 0.68980  0.02610  0.20500  Biso   1.000  H
  C21      1.0000 0.54970  0.15180  0.02700  Biso   1.000  C
  H25      1.0000 0.58060  0.21030  0.96650  Biso   1.000  H
  H26      1.0000 0.55410  0.16330  0.16120  Biso   1.000  H
  N5       1.0000 0.89370  0.30800  0.02060  Biso   1.000  N
  N6       1.0000 0.60110  0.06170  0.98480  Biso   1.000  N
  H27      1.0000 0.57740  0.01680  0.90790  Biso   1.000  H
  O3       1.0000 0.98280  0.43040  0.70080  Biso   1.000  O
  C22      1.0000 0.36330  0.76550  0.17900  Biso   1.000  C
  H28      1.0000 0.38620  0.79740  0.28740  Biso   1.000  H
  C23      1.0000 0.35540  0.76560  0.87300  Biso   1.000  C
  H29      1.0000 0.36680  0.79470  0.75600  Biso   1.000  H
  C24      1.0000 0.29450  0.67260  0.88500  Biso   1.000  C
  H30      1.0000 0.27660  0.63580  0.77830  Biso   1.000  H
  C25      1.0000 0.30430  0.68300  0.20800  Biso   1.000  C
  H31      1.0000 0.29250  0.65750  0.32750  Biso   1.000  H
  C26      1.0000 0.26490  0.64170  0.05800  Biso   1.000  C
  C27      1.0000 0.19780  0.54330  0.07400  Biso   1.000  C
  H32      1.0000 0.22810  0.48440  0.01350  Biso   1.000  H
  H33      1.0000 0.18980  0.52610  0.20500  Biso   1.000  H
  C28      1.0000 0.04970  0.65180  0.02700  Biso   1.000  C
  H34      1.0000 0.08060  0.71030  0.96650  Biso   1.000  H
  H35      1.0000 0.05410  0.66330  0.16120  Biso   1.000  H
  N7       1.0000 0.39370  0.80800  0.02060  Biso   1.000  N
  N8       1.0000 0.10110  0.56170  0.98480  Biso   1.000  N
  H36      1.0000 0.07740  0.51680  0.90790  Biso   1.000  H
  O4       1.0000 0.48280  0.93040  0.70080  Biso   1.000  O
  Mo1      1.0000 0.00000  0.50868  0.50000  Biso   1.000  Mo
  Mo2      1.0000 0.50000  0.00868  0.50000  Biso   1.000  Mo
  Zn1      1.0000 0.00000  0.42832  0.00000  Biso   1.000  Zn
  Zn2      1.0000 0.50000  0.92832  0.00000  Biso   1.000  Zn
