data_image0
_cell_length_a       13.901
_cell_length_b       12.713
_cell_length_c       7.07
_cell_angle_alpha    90
_cell_angle_beta     91.139
_cell_angle_gamma    90

_symmetry_space_group_name_H-M    "P 1"
_symmetry_int_tables_number       1

loop_
  _symmetry_equiv_pos_as_xyz
  'x, y, z'

loop_
  _atom_site_label
  _atom_site_occupancy
  _atom_site_fract_x
  _atom_site_fract_y
  _atom_site_fract_z
  _atom_site_thermal_displace_type
  _atom_site_B_iso_or_equiv
  _atom_site_type_symbol
  C1       1.0000 0.80490  0.96520  0.42950  Biso   1.000  C
  H1       1.0000 0.81420  0.98020  0.29670  Biso   1.000  H
  H2       1.0000 0.77480  0.02640  0.48510  Biso   1.000  H
  C2       1.0000 0.73650  0.87250  0.44480  Biso   1.000  C
  C3       1.0000 0.94820  0.85350  0.46530  Biso   1.000  C
  H3       1.0000 0.94630  0.84690  0.32860  Biso   1.000  H
  H4       1.0000 0.91530  0.79320  0.51770  Biso   1.000  H
  C4       1.0000 0.70940  0.83780  0.61530  Biso   1.000  C
  H5       1.0000 0.73160  0.87100  0.72500  Biso   1.000  H
  C5       1.0000 0.69610  0.82750  0.29120  Biso   1.000  C
  H6       1.0000 0.70820  0.85430  0.17160  Biso   1.000  H
  C6       1.0000 0.63550  0.74000  0.31030  Biso   1.000  C
  H7       1.0000 0.61430  0.70550  0.20110  Biso   1.000  H
  C7       1.0000 0.64610  0.74920  0.62630  Biso   1.000  C
  H8       1.0000 0.63160  0.72220  0.74470  Biso   1.000  H
  N1       1.0000 0.89780  0.95010  0.51960  Biso   1.000  N
  H9       1.0000 0.88600  0.94300  0.64510  Biso   1.000  H
  N2       1.0000 0.60740  0.70430  0.47350  Biso   1.000  N
  O1       1.0000 0.97870  0.07980  0.20150  Biso   1.000  O
  C8       1.0000 0.30490  0.46520  0.42950  Biso   1.000  C
  H10      1.0000 0.31420  0.48020  0.29670  Biso   1.000  H
  H11      1.0000 0.27480  0.52640  0.48510  Biso   1.000  H
  C9       1.0000 0.23650  0.37250  0.44480  Biso   1.000  C
  C10      1.0000 0.44820  0.35350  0.46530  Biso   1.000  C
  H12      1.0000 0.44630  0.34690  0.32860  Biso   1.000  H
  H13      1.0000 0.41530  0.29320  0.51770  Biso   1.000  H
  C11      1.0000 0.20940  0.33780  0.61530  Biso   1.000  C
  H14      1.0000 0.23160  0.37100  0.72500  Biso   1.000  H
  C12      1.0000 0.19610  0.32750  0.29120  Biso   1.000  C
  H15      1.0000 0.20820  0.35430  0.17160  Biso   1.000  H
  C13      1.0000 0.13550  0.24000  0.31030  Biso   1.000  C
  H16      1.0000 0.11430  0.20550  0.20110  Biso   1.000  H
  C14      1.0000 0.14610  0.24920  0.62630  Biso   1.000  C
  H17      1.0000 0.13160  0.22220  0.74470  Biso   1.000  H
  N3       1.0000 0.39780  0.45010  0.51960  Biso   1.000  N
  H18      1.0000 0.38600  0.44300  0.64510  Biso   1.000  H
  N4       1.0000 0.10740  0.20430  0.47350  Biso   1.000  N
  O2       1.0000 0.47870  0.57980  0.20150  Biso   1.000  O
  C15      1.0000 0.19510  0.96520  0.57050  Biso   1.000  C
  H19      1.0000 0.18580  0.98020  0.70330  Biso   1.000  H
  H20      1.0000 0.22520  0.02640  0.51490  Biso   1.000  H
  C16      1.0000 0.26350  0.87250  0.55520  Biso   1.000  C
  C17      1.0000 0.05180  0.85350  0.53470  Biso   1.000  C
  H21      1.0000 0.05370  0.84690  0.67140  Biso   1.000  H
  H22      1.0000 0.08470  0.79320  0.48230  Biso   1.000  H
  C18      1.0000 0.29060  0.83780  0.38470  Biso   1.000  C
  H23      1.0000 0.26840  0.87100  0.27500  Biso   1.000  H
  C19      1.0000 0.30390  0.82750  0.70880  Biso   1.000  C
  H24      1.0000 0.29180  0.85430  0.82840  Biso   1.000  H
  C20      1.0000 0.36450  0.74000  0.68970  Biso   1.000  C
  H25      1.0000 0.38570  0.70550  0.79890  Biso   1.000  H
  C21      1.0000 0.35390  0.74920  0.37370  Biso   1.000  C
  H26      1.0000 0.36840  0.72220  0.25530  Biso   1.000  H
  N5       1.0000 0.10220  0.95010  0.48040  Biso   1.000  N
  H27      1.0000 0.11400  0.94300  0.35490  Biso   1.000  H
  N6       1.0000 0.39260  0.70430  0.52650  Biso   1.000  N
  O3       1.0000 0.02130  0.07980  0.79850  Biso   1.000  O
  C22      1.0000 0.69510  0.46520  0.57050  Biso   1.000  C
  H28      1.0000 0.68580  0.48020  0.70330  Biso   1.000  H
  H29      1.0000 0.72520  0.52640  0.51490  Biso   1.000  H
  C23      1.0000 0.76350  0.37250  0.55520  Biso   1.000  C
  C24      1.0000 0.55180  0.35350  0.53470  Biso   1.000  C
  H30      1.0000 0.55370  0.34690  0.67140  Biso   1.000  H
  H31      1.0000 0.58470  0.29320  0.48230  Biso   1.000  H
  C25      1.0000 0.79060  0.33780  0.38470  Biso   1.000  C
  H32      1.0000 0.76840  0.37100  0.27500  Biso   1.000  H
  C26      1.0000 0.80390  0.32750  0.70880  Biso   1.000  C
  H33      1.0000 0.79180  0.35430  0.82840  Biso   1.000  H
  C27      1.0000 0.86450  0.24000  0.68970  Biso   1.000  C
  H34      1.0000 0.88570  0.20550  0.79890  Biso   1.000  H
  C28      1.0000 0.85390  0.24920  0.37370  Biso   1.000  C
  H35      1.0000 0.86840  0.22220  0.25530  Biso   1.000  H
  N7       1.0000 0.60220  0.45010  0.48040  Biso   1.000  N
  H36      1.0000 0.61400  0.44300  0.35490  Biso   1.000  H
  N8       1.0000 0.89260  0.20430  0.52650  Biso   1.000  N
  O4       1.0000 0.52130  0.57980  0.79850  Biso   1.000  O
  Zn1      1.0000 0.00000  0.08125  0.50000  Biso   1.000  Zn
  Zn2      1.0000 0.50000  0.58125  0.50000  Biso   1.000  Zn
  Mo1      1.0000 0.00000  0.00072  0.00000  Biso   1.000  Mo
  Mo2      1.0000 0.50000  0.50072  0.00000  Biso   1.000  Mo
