data_image0
_cell_length_a       13.85
_cell_length_b       12.77
_cell_length_c       6.939
_cell_angle_alpha    90
_cell_angle_beta     91.45
_cell_angle_gamma    90

_symmetry_space_group_name_H-M    "P 1"
_symmetry_int_tables_number       1

loop_
  _symmetry_equiv_pos_as_xyz
  'x, y, z'

loop_
  _atom_site_label
  _atom_site_occupancy
  _atom_site_fract_x
  _atom_site_fract_y
  _atom_site_fract_z
  _atom_site_thermal_displace_type
  _atom_site_B_iso_or_equiv
  _atom_site_type_symbol
  C1       1.0000 0.94720  0.65920  0.46240  Biso   1.000  C
  H1       1.0000 0.94560  0.65500  0.32280  Biso   1.000  H
  H2       1.0000 0.91390  0.59840  0.51200  Biso   1.000  H
  C2       1.0000 0.80320  0.77100  0.42240  Biso   1.000  C
  H3       1.0000 0.81450  0.78370  0.28700  Biso   1.000  H
  H4       1.0000 0.77270  0.83300  0.47390  Biso   1.000  H
  C3       1.0000 0.73510  0.68020  0.43900  Biso   1.000  C
  C4       1.0000 0.69740  0.62870  0.28160  Biso   1.000  C
  H5       1.0000 0.71270  0.65130  0.15860  Biso   1.000  H
  C5       1.0000 0.63620  0.54270  0.30260  Biso   1.000  C
  H6       1.0000 0.61430  0.50810  0.19180  Biso   1.000  H
  C6       1.0000 0.64520  0.55470  0.62340  Biso   1.000  C
  H7       1.0000 0.63090  0.52860  0.74460  Biso   1.000  H
  C7       1.0000 0.70610  0.64280  0.61340  Biso   1.000  C
  H8       1.0000 0.72690  0.67590  0.72640  Biso   1.000  H
  N1       1.0000 0.89740  0.75550  0.52370  Biso   1.000  N
  H9       1.0000 0.88510  0.74790  0.65120  Biso   1.000  H
  N2       1.0000 0.60740  0.50740  0.47200  Biso   1.000  N
  O1       1.0000 0.97750  0.88330  0.18980  Biso   1.000  O
  C8       1.0000 0.44720  0.15920  0.46240  Biso   1.000  C
  H10      1.0000 0.44560  0.15500  0.32280  Biso   1.000  H
  H11      1.0000 0.41390  0.09840  0.51200  Biso   1.000  H
  C9       1.0000 0.30320  0.27100  0.42240  Biso   1.000  C
  H12      1.0000 0.31450  0.28370  0.28700  Biso   1.000  H
  H13      1.0000 0.27270  0.33300  0.47390  Biso   1.000  H
  C10      1.0000 0.23510  0.18020  0.43900  Biso   1.000  C
  C11      1.0000 0.19740  0.12870  0.28160  Biso   1.000  C
  H14      1.0000 0.21270  0.15130  0.15860  Biso   1.000  H
  C12      1.0000 0.13620  0.04270  0.30260  Biso   1.000  C
  H15      1.0000 0.11430  0.00810  0.19180  Biso   1.000  H
  C13      1.0000 0.14520  0.05470  0.62340  Biso   1.000  C
  H16      1.0000 0.13090  0.02860  0.74460  Biso   1.000  H
  C14      1.0000 0.20610  0.14280  0.61340  Biso   1.000  C
  H17      1.0000 0.22690  0.17590  0.72640  Biso   1.000  H
  N3       1.0000 0.39740  0.25550  0.52370  Biso   1.000  N
  H18      1.0000 0.38510  0.24790  0.65120  Biso   1.000  H
  N4       1.0000 0.10740  0.00740  0.47200  Biso   1.000  N
  O2       1.0000 0.47750  0.38330  0.18980  Biso   1.000  O
  C15      1.0000 0.05280  0.65920  0.53760  Biso   1.000  C
  H19      1.0000 0.05440  0.65500  0.67720  Biso   1.000  H
  H20      1.0000 0.08610  0.59840  0.48800  Biso   1.000  H
  C16      1.0000 0.19680  0.77100  0.57760  Biso   1.000  C
  H21      1.0000 0.18550  0.78370  0.71300  Biso   1.000  H
  H22      1.0000 0.22730  0.83300  0.52610  Biso   1.000  H
  C17      1.0000 0.26490  0.68020  0.56100  Biso   1.000  C
  C18      1.0000 0.30260  0.62870  0.71840  Biso   1.000  C
  H23      1.0000 0.28730  0.65130  0.84140  Biso   1.000  H
  C19      1.0000 0.36380  0.54270  0.69740  Biso   1.000  C
  H24      1.0000 0.38570  0.50810  0.80820  Biso   1.000  H
  C20      1.0000 0.35480  0.55470  0.37660  Biso   1.000  C
  H25      1.0000 0.36910  0.52860  0.25540  Biso   1.000  H
  C21      1.0000 0.29390  0.64280  0.38660  Biso   1.000  C
  H26      1.0000 0.27310  0.67590  0.27360  Biso   1.000  H
  N5       1.0000 0.10260  0.75550  0.47630  Biso   1.000  N
  H27      1.0000 0.11490  0.74790  0.34880  Biso   1.000  H
  N6       1.0000 0.39260  0.50740  0.52800  Biso   1.000  N
  O3       1.0000 0.02250  0.88330  0.81020  Biso   1.000  O
  C22      1.0000 0.55280  0.15920  0.53760  Biso   1.000  C
  H28      1.0000 0.55440  0.15500  0.67720  Biso   1.000  H
  H29      1.0000 0.58610  0.09840  0.48800  Biso   1.000  H
  C23      1.0000 0.69680  0.27100  0.57760  Biso   1.000  C
  H30      1.0000 0.68550  0.28370  0.71300  Biso   1.000  H
  H31      1.0000 0.72730  0.33300  0.52610  Biso   1.000  H
  C24      1.0000 0.76490  0.18020  0.56100  Biso   1.000  C
  C25      1.0000 0.80260  0.12870  0.71840  Biso   1.000  C
  H32      1.0000 0.78730  0.15130  0.84140  Biso   1.000  H
  C26      1.0000 0.86380  0.04270  0.69740  Biso   1.000  C
  H33      1.0000 0.88570  0.00810  0.80820  Biso   1.000  H
  C27      1.0000 0.85480  0.05470  0.37660  Biso   1.000  C
  H34      1.0000 0.86910  0.02860  0.25540  Biso   1.000  H
  C28      1.0000 0.79390  0.14280  0.38660  Biso   1.000  C
  H35      1.0000 0.77310  0.17590  0.27360  Biso   1.000  H
  N7       1.0000 0.60260  0.25550  0.47630  Biso   1.000  N
  H36      1.0000 0.61490  0.24790  0.34880  Biso   1.000  H
  N8       1.0000 0.89260  0.00740  0.52800  Biso   1.000  N
  O4       1.0000 0.52250  0.38330  0.81020  Biso   1.000  O
  Zn1      1.0000 0.00000  0.88497  0.50000  Biso   1.000  Zn
  Zn2      1.0000 0.50000  0.38497  0.50000  Biso   1.000  Zn
  Cr1      1.0000 0.00000  0.80964  0.00000  Biso   1.000  Cr
  Cr2      1.0000 0.50000  0.30964  0.00000  Biso   1.000  Cr
