data_ZONBAH_clean
_audit_creation_date              2015-10-29
_audit_creation_method            'Materials Studio'
_symmetry_space_group_name_H-M    'P1'
_symmetry_Int_Tables_number       1
_symmetry_cell_setting            triclinic
loop_
_symmetry_equiv_pos_as_xyz
  x,y,z
_cell_length_a                    7.8022
_cell_length_b                    11.1795
_cell_length_c                    13.4306
_cell_angle_alpha                 114.5950
_cell_angle_beta                  102.5820
_cell_angle_gamma                 90.0000
loop_
_atom_site_label
_atom_site_type_symbol
_atom_site_fract_x
_atom_site_fract_y
_atom_site_fract_z
_atom_site_U_iso_or_equiv
_atom_site_adp_type
_atom_site_occupancy
Zr1    Zr    0.67802   0.03151   0.11366   0.01267  Uiso   1.00
Zr2    Zr    0.82232   0.91885   0.88640   0.01267  Uiso   1.00
Zr3    Zr    0.32232   0.96827   0.88647   0.01267  Uiso   1.00
Zr4    Zr    0.17806   0.08188   0.11366   0.01267  Uiso   1.00
C5     C     0.46817   0.04361   0.29562   0.01267  Uiso   1.00
C6     C     0.48581   0.02304   0.40111   0.01267  Uiso   1.00
C7     C     0.61940   0.95149   0.43218   0.01267  Uiso   1.00
C8     C     0.36637   0.07137   0.47055   0.01267  Uiso   1.00
C9     C     0.78517   0.49062   0.90907   0.01267  Uiso   1.00
C10    C     0.78415   0.36565   0.91010   0.01267  Uiso   1.00
C11    C     0.03185   0.74775   0.70395   0.01267  Uiso   1.00
C12    C     0.01393   0.62149   0.59854   0.01267  Uiso   1.00
C13    C     0.87948   0.51932   0.56719   0.01267  Uiso   1.00
C14    C     0.13414   0.59970   0.52952   0.01267  Uiso   1.00
C15    C     0.71351   0.58131   0.09513   0.01267  Uiso   1.00
C16    C     0.71471   0.45551   0.09359   0.01267  Uiso   1.00
C17    C     0.53172   0.95697   0.70414   0.01267  Uiso   1.00
C18    C     0.51382   0.97757   0.59864   0.01267  Uiso   1.00
C19    C     0.38018   0.04910   0.56756   0.01267  Uiso   1.00
C20    C     0.63325   0.92926   0.52919   0.01267  Uiso   1.00
C21    C     0.21525   0.50955   0.09124   0.01267  Uiso   1.00
C22    C     0.21561   0.63516   0.09140   0.01267  Uiso   1.00
C23    C     0.96812   0.25188   0.29590   0.01267  Uiso   1.00
C24    C     0.98583   0.37810   0.40130   0.01267  Uiso   1.00
C25    C     0.12024   0.48028   0.43265   0.01267  Uiso   1.00
C26    C     0.86562   0.39986   0.47032   0.01267  Uiso   1.00
C27    C     0.28510   0.41843   0.90887   0.01267  Uiso   1.00
C28    C     0.28450   0.54390   0.90874   0.01267  Uiso   1.00
C29    C     0.74975   0.21215   0.00073   0.01267  Uiso   1.00
C30    C     0.75058   0.73474  -0.00065   0.01267  Uiso   1.00
C31    C     0.75051   0.60146  -0.00071   0.01267  Uiso   1.00
C32    C     0.74955   0.34626   0.00145   0.01267  Uiso   1.00
C33    C     0.24989   0.78819   0.00008   0.01267  Uiso   1.00
C34    C     0.25029   0.26549   0.00003   0.01267  Uiso   1.00
C35    C     0.25022   0.39928   0.00005   0.01267  Uiso   1.00
C36    C     0.24997   0.65431   0.00007   0.01267  Uiso   1.00
O37    O     0.71483   0.19991   0.08541   0.01267  Uiso   1.00
O38    O     0.58161  -0.00433   0.23596   0.01267  Uiso   1.00
O39    O     0.41790   0.08843   0.05829   0.01267  Uiso   1.00
O40    O     0.69987   0.82960   0.07972   0.01267  Uiso   1.00
O41    O     0.33907   0.10568   0.27044   0.01267  Uiso   1.00
O42    O     0.78475   0.11584   0.91561   0.01267  Uiso   1.00
O43    O     0.91610   0.76092   0.76235   0.01267  Uiso   1.00
O44    O     0.08271   1.03067   0.94185   0.01267  Uiso   1.00
O45    O     0.80126   0.75003   0.91928   0.01267  Uiso   1.00
O46    O     0.16290   0.83376   0.72981   0.01267  Uiso   1.00
O47    O     0.28507   0.80004   0.91525   0.01267  Uiso   1.00
O48    O     0.41659   1.00290   0.76290   0.01267  Uiso   1.00
O49    O     0.58265   0.91168   0.94172   0.01267  Uiso   1.00
O50    O     0.30116   0.17025   0.91990   0.01267  Uiso   1.00
O51    O     0.66238   0.89641   0.72982   0.01267  Uiso   1.00
O52    O     0.21467   0.88482   0.08493   0.01267  Uiso   1.00
O53    O     0.08240   0.23969   0.23669   0.01267  Uiso   1.00
O54    O     0.91784  -0.03025   0.05814   0.01267  Uiso   1.00
O55    O     0.19934   0.25034   0.08012   0.01267  Uiso   1.00
O56    O     0.83836   0.16501   0.27049   0.01267  Uiso   1.00
H57    H     0.71369   0.91190   0.38122   0.00000  Uiso   1.00
H58    H     0.26124   0.12654   0.44994   0.00000  Uiso   1.00
H59    H     0.81320   0.50009   0.83702   0.00000  Uiso   1.00
H60    H     0.81154   0.28324   0.83842   0.00000  Uiso   1.00
H61    H     0.78461   0.53120   0.61785   0.00000  Uiso   1.00
H62    H     0.23993   0.67507   0.55032   0.00000  Uiso   1.00
H63    H     0.68540   0.66327   0.16681   0.00000  Uiso   1.00
H64    H     0.68739   0.44375   0.16485   0.00000  Uiso   1.00
H65    H     0.28594   0.08870   0.61855   0.00000  Uiso   1.00
H66    H     0.73840   0.87409   0.54976   0.00000  Uiso   1.00
H67    H     0.18759   0.49903   0.16295   0.00000  Uiso   1.00
H68    H     0.18822   0.71732   0.16324   0.00000  Uiso   1.00
H69    H     0.21515   0.46842   0.38202   0.00000  Uiso   1.00
H70    H     0.75984   0.32447   0.44950   0.00000  Uiso   1.00
H71    H     0.31287   0.33627   0.83717   0.00000  Uiso   1.00
H72    H     0.31184   0.55428   0.83690   0.00000  Uiso   1.00
loop_
_geom_bond_atom_site_label_1
_geom_bond_atom_site_label_2
_geom_bond_distance
_geom_bond_site_symmetry_2
_ccdc_geom_bond_type
Zr1    O37     2.101   .     S
Zr1    O38     2.124   .     S
Zr1    O39     2.194   .     S
Zr1    O40     2.124   1_545 S
Zr1    O49     2.087   1_544 S
Zr1    O54     2.171   .     S
Zr1    O56     2.113   .     S
Zr2    O42     2.103   1_565 S
Zr2    O43     2.124   .     S
Zr2    O44     2.193   1_655 S
Zr2    O45     2.123   .     S
Zr2    O49     2.170   .     S
Zr2    O51     2.112   .     S
Zr2    O54     2.088   1_566 S
Zr3    O39     2.087   1_566 S
Zr3    O44     2.170   .     S
Zr3    O46     2.112   .     S
Zr3    O47     2.104   .     S
Zr3    O48     2.124   .     S
Zr3    O49     2.193   .     S
Zr3    O50     2.125   1_565 S
Zr4    O39     2.171   .     S
Zr4    O41     2.113   .     S
Zr4    O44     2.088   1_544 S
Zr4    O52     2.103   1_545 S
Zr4    O53     2.124   .     S
Zr4    O54     2.194   1_455 S
Zr4    O55     2.125   .     S
C5     C6      1.505   .     S
C5     O38     1.290   .     A
C5     O41     1.287   .     A
C6     C7      1.410   1_545 A
C6     C8      1.410   .     A
C7     C6      1.410   1_565 A
C7     C20     1.407   .     A
C7     H57     1.083   .     S
C8     C19     1.407   .     A
C8     H58     1.083   .     S
C9     C10     1.403   .     A
C9     C31     1.403   1_556 A
C9     H59     1.083   .     S
C10    C32     1.411   1_556 A
C10    H60     1.083   .     S
C11    C12     1.505   .     S
C11    O43     1.290   1_455 A
C11    O46     1.288   .     A
C12    C13     1.410   1_455 A
C12    C14     1.410   .     A
C13    C12     1.410   1_655 A
C13    C26     1.407   .     A
C13    H61     1.083   .     S
C14    C25     1.407   .     A
C14    H62     1.083   .     S
C15    C16     1.398   .     A
C15    C31     1.481   .     S
C15    H63     1.083   .     S
C16    C32     1.409   .     A
C16    H64     1.083   .     S
C17    C18     1.505   .     S
C17    O48     1.290   .     A
C17    O51     1.287   .     A
C18    C19     1.410   1_565 A
C18    C20     1.410   .     A
C19    C18     1.410   1_545 A
C19    H65     1.083   .     S
C20    H66     1.083   .     S
C21    C22     1.403   .     A
C21    C35     1.408   .     A
C21    H67     1.083   .     S
C22    C36     1.409   .     A
C22    H68     1.083   .     S
C23    C24     1.505   .     S
C23    O53     1.290   1_655 A
C23    O56     1.288   .     A
C24    C25     1.410   1_655 A
C24    C26     1.410   .     A
C25    C24     1.410   1_455 A
C25    H69     1.083   .     S
C26    H70     1.083   .     S
C27    C28     1.403   .     A
C27    C35     1.408   1_556 A
C27    H71     1.083   .     S
C28    C36     1.409   1_556 A
C28    H72     1.083   .     S
C29    C32     1.495   .     S
C29    O37     1.285   .     A
C29    O42     1.285   1_554 A
C30    C31     1.490   .     S
C30    O40     1.296   .     A
C30    O45     1.296   1_554 A
C31    C9      1.403   1_554 A
C32    C10     1.411   1_554 A
C33    C36     1.497   .     S
C33    O47     1.286   1_554 A
C33    O52     1.286   .     A
C34    C35     1.496   .     S
C34    O50     1.297   1_554 A
C34    O55     1.297   .     A
C35    C27     1.408   1_554 A
C36    C28     1.409   1_554 A
O39    Zr3     2.087   1_544 S
O40    Zr1     2.124   1_565 S
O42    C29     1.285   1_556 A
O42    Zr2     2.103   1_545 S
O43    C11     1.290   1_655 A
O44    Zr4     2.088   1_566 S
O44    Zr2     2.193   1_455 S
O45    C30     1.296   1_556 A
O47    C33     1.286   1_556 A
O49    Zr1     2.087   1_566 S
O50    C34     1.297   1_556 A
O50    Zr3     2.125   1_545 S
O52    Zr4     2.103   1_565 S
O53    C23     1.290   1_455 A
O54    Zr4     2.194   1_655 S
O54    Zr2     2.088   1_544 S
