data_ZOXFAV_charged
_audit_creation_date              2015-10-16
_audit_creation_method            'Materials Studio'
_symmetry_space_group_name_H-M    'P1'
_symmetry_Int_Tables_number       1
_symmetry_cell_setting            triclinic
loop_
_symmetry_equiv_pos_as_xyz
  x,y,z
_cell_length_a                    11.6290
_cell_length_b                    12.3800
_cell_length_c                    17.9020
_cell_angle_alpha                 90.0000
_cell_angle_beta                  90.0000
_cell_angle_gamma                 109.0510
loop_
_atom_site_label
_atom_site_type_symbol
_atom_site_fract_x
_atom_site_fract_y
_atom_site_fract_z
_atom_site_U_iso_or_equiv
_atom_site_adp_type
_atom_site_occupancy
Cd1    Cd    0.50000   0.50000   0.50000   0.01267  Uiso   1.00
Cd2    Cd    0.00000   0.00000   0.00000   0.01267  Uiso   1.00
H1     H     0.72560   0.54140   0.35790   0.01267  Uiso   1.00
H2     H     0.53610   0.09790   0.41790   0.01267  Uiso   1.00
H3     H     0.26120   0.57450   0.44480   0.01267  Uiso   1.00
H4     H     0.52810   0.76870   0.99930   0.01267  Uiso   1.00
H5     H     0.79480   0.32770   0.79230   0.01267  Uiso   1.00
H6     H     0.26860   0.18550   0.94510   0.01267  Uiso   1.00
H7     H     0.03610   0.59790   0.08210   0.01267  Uiso   1.00
H8     H     0.99900   0.87560   0.17260   0.01267  Uiso   1.00
H9     H     0.87380   0.13910   0.26470   0.01267  Uiso   1.00
H10    H     0.62010   0.80890   0.76860   0.01267  Uiso   1.00
H11    H     0.29480   0.82770   0.70770   0.01267  Uiso   1.00
H12    H     0.59130   0.10620   0.07900   0.01267  Uiso   1.00
H13    H     0.73880   0.42550   0.55520   0.01267  Uiso   1.00
H14    H     0.97500   0.91440   0.80730   0.01267  Uiso   1.00
H15    H     0.52500   0.58560   0.30730   0.01267  Uiso   1.00
H16    H     0.00380   0.72060   0.98290   0.01267  Uiso   1.00
H17    H     0.37380   0.63910   0.23530   0.01267  Uiso   1.00
H18    H     0.20520   0.67230   0.20770   0.01267  Uiso   1.00
H19    H     0.47190   0.23130   0.00070   0.01267  Uiso   1.00
H20    H     0.37990   0.19110   0.23140   0.01267  Uiso   1.00
H21    H     0.50100   0.62440   0.67260   0.01267  Uiso   1.00
H22    H     0.23880   0.92550   0.94480   0.01267  Uiso   1.00
H23    H     0.96390   0.40210   0.91790   0.01267  Uiso   1.00
H24    H     0.27440   0.45860   0.64210   0.01267  Uiso   1.00
H25    H     0.12620   0.86090   0.73530   0.01267  Uiso   1.00
H26    H     0.73140   0.81450   0.05490   0.01267  Uiso   1.00
H27    H     0.87990   0.69110   0.26860   0.01267  Uiso   1.00
H28    H     0.62620   0.36090   0.76470   0.01267  Uiso   1.00
H29    H     0.09130   0.60620   0.42100   0.01267  Uiso   1.00
H30    H     0.97190   0.73130   0.49930   0.01267  Uiso   1.00
H31    H     0.40870   0.89380   0.92100   0.01267  Uiso   1.00
H32    H     0.23140   0.31450   0.44510   0.01267  Uiso   1.00
H33    H     0.70520   0.17230   0.29230   0.01267  Uiso   1.00
H34    H     0.50380   0.22060   0.51710   0.01267  Uiso   1.00
H35    H     0.00100   0.12440   0.82740   0.01267  Uiso   1.00
H36    H     0.02810   0.26870   0.50070   0.01267  Uiso   1.00
H37    H     0.49620   0.77940   0.48290   0.01267  Uiso   1.00
H38    H     0.90870   0.39380   0.57900   0.01267  Uiso   1.00
H39    H     0.02500   0.08560   0.19270   0.01267  Uiso   1.00
H40    H     0.76120   0.07450   0.05520   0.01267  Uiso   1.00
H41    H     0.49900   0.37560   0.32740   0.01267  Uiso   1.00
H42    H     0.46390   0.90210   0.58210   0.01267  Uiso   1.00
H43    H     0.99620   0.27940   0.01710   0.01267  Uiso   1.00
H44    H     0.77440   0.95860   0.85790   0.01267  Uiso   1.00
H45    H     0.76860   0.68550   0.55490   0.01267  Uiso   1.00
H46    H     0.12010   0.30890   0.73140   0.01267  Uiso   1.00
H47    H     0.22560   0.04140   0.14210   0.01267  Uiso   1.00
H48    H     0.47500   0.41440   0.69270   0.01267  Uiso   1.00
C1     C     0.52790   0.85230   0.85288   0.01267  Uiso   1.00
C2     C     0.95200   0.09000   0.17405   0.01267  Uiso   1.00
C3     C     0.46040   0.81350   0.72775   0.01267  Uiso   1.00
C4     C     0.23920   0.41710   0.59996   0.01267  Uiso   1.00
C5     C     0.95170   0.67750   0.28082   0.01267  Uiso   1.00
C6     C     0.60150   0.81160   0.97761   0.01267  Uiso   1.00
C7     C     0.50700   0.23670   0.46621   0.01267  Uiso   1.00
C8     C     0.73920   0.91710   0.90004   0.01267  Uiso   1.00
C9     C     0.14670   0.66610   0.24435   0.01267  Uiso   1.00
C10    C     0.97520   0.33170   0.91175   0.01267  Uiso   1.00
C11    C     0.53960   0.18650   0.27225   0.01267  Uiso   1.00
C12    C     0.80800   0.08360   0.09836   0.01267  Uiso   1.00
C13    C     0.69200   0.41640   0.59836   0.01267  Uiso   1.00
C14    C     0.78560   0.66190   0.50809   0.01267  Uiso   1.00
C15    C     0.64670   0.16610   0.25565   0.01267  Uiso   1.00
C16    C     0.16480   0.63630   0.31686   0.01267  Uiso   1.00
C17    C     0.36920   0.61980   0.28571   0.01267  Uiso   1.00
C18    C     0.35330   0.83390   0.74435   0.01267  Uiso   1.00
C19    C     0.47210   0.14770   0.14712   0.01267  Uiso   1.00
C20    C     0.86920   0.11980   0.21429   0.01267  Uiso   1.00
C21    C     0.63080   0.38020   0.71429   0.01267  Uiso   1.00
C22    C     0.19200   0.91640   0.90164   0.01267  Uiso   1.00
C23    C     0.49590   0.67770   0.63729   0.01267  Uiso   1.00
C24    C     0.52480   0.16830   0.41175   0.01267  Uiso   1.00
C25    C     0.10150   0.31160   0.52239   0.01267  Uiso   1.00
C26    C     0.97210   0.64770   0.35288   0.01267  Uiso   1.00
C27    C     0.47520   0.83170   0.58825   0.01267  Uiso   1.00
C28    C     0.76080   0.58290   0.40004   0.01267  Uiso   1.00
C29    C     0.03960   0.68650   0.22775   0.01267  Uiso   1.00
C30    C     0.33520   0.86370   0.81686   0.01267  Uiso   1.00
C31    C     0.49300   0.76330   0.53379   0.01267  Uiso   1.00
C32    C     0.00410   0.82230   0.13729   0.01267  Uiso   1.00
C33    C     0.57850   0.12640   0.12757   0.01267  Uiso   1.00
C34    C     0.00700   0.73670   0.03379   0.01267  Uiso   1.00
C35    C     0.45200   0.59000   0.32595   0.01267  Uiso   1.00
C36    C     0.50410   0.32230   0.36271   0.01267  Uiso   1.00
C37    C     0.99590   0.17770   0.86271   0.01267  Uiso   1.00
C38    C     0.07850   0.62640   0.37243   0.01267  Uiso   1.00
C39    C     0.42150   0.87360   0.87243   0.01267  Uiso   1.00
C40    C     0.54830   0.82250   0.78082   0.01267  Uiso   1.00
C41    C     0.28560   0.16190   0.99191   0.01267  Uiso   1.00
C42    C     0.83520   0.36370   0.68314   0.01267  Uiso   1.00
C43    C     0.85330   0.33390   0.75565   0.01267  Uiso   1.00
C44    C     0.39850   0.18840   0.02239   0.01267  Uiso   1.00
C45    C     0.02480   0.66830   0.08825   0.01267  Uiso   1.00
C46    C     0.54800   0.41000   0.67405   0.01267  Uiso   1.00
C47    C     0.45170   0.17750   0.21918   0.01267  Uiso   1.00
C48    C     0.71440   0.83810   0.00809   0.01267  Uiso   1.00
C49    C     0.99300   0.26330   0.96621   0.01267  Uiso   1.00
C50    C     0.89850   0.68840   0.47761   0.01267  Uiso   1.00
C51    C     0.04800   0.91000   0.82595   0.01267  Uiso   1.00
C52    C     0.13080   0.88020   0.78571   0.01267  Uiso   1.00
C53    C     0.21440   0.33810   0.49191   0.01267  Uiso   1.00
C54    C     0.30800   0.58360   0.40164   0.01267  Uiso   1.00
C55    C     0.04830   0.32250   0.71918   0.01267  Uiso   1.00
C56    C     0.66480   0.13630   0.18314   0.01267  Uiso   1.00
C57    C     0.26080   0.08290   0.09996   0.01267  Uiso   1.00
C58    C     0.02790   0.35230   0.64712   0.01267  Uiso   1.00
C59    C     0.96040   0.31350   0.77225   0.01267  Uiso   1.00
C60    C     0.92150   0.37360   0.62757   0.01267  Uiso   1.00
N1     N     0.72432   0.38416   0.66531   0.01267  Uiso   1.00
N2     N     0.88147   0.63861   0.40821   0.01267  Uiso   1.00
N3     N     0.00580   0.16596   0.93490   0.01267  Uiso   1.00
N4     N     0.61853   0.86139   0.90821   0.01267  Uiso   1.00
N5     N     0.58662   0.43304   0.60189   0.01267  Uiso   1.00
N6     N     0.50580   0.66596   0.56510   0.01267  Uiso   1.00
N7     N     0.97721   0.27677   0.84606   0.01267  Uiso   1.00
N8     N     0.52279   0.22323   0.34606   0.01267  Uiso   1.00
N9     N     0.08662   0.93304   0.89811   0.01267  Uiso   1.00
N10    N     0.29999   0.40484   0.54058   0.01267  Uiso   1.00
N11    N     0.47721   0.77677   0.65394   0.01267  Uiso   1.00
N12    N     0.11853   0.36139   0.59179   0.01267  Uiso   1.00
N13    N     0.27568   0.61584   0.33469   0.01267  Uiso   1.00
N14    N     0.79999   0.90484   0.95942   0.01267  Uiso   1.00
N15    N     0.49420   0.33404   0.43490   0.01267  Uiso   1.00
N16    N     0.41338   0.56696   0.39811   0.01267  Uiso   1.00
N17    N     0.38147   0.13861   0.09179   0.01267  Uiso   1.00
N18    N     0.22432   0.88416   0.83469   0.01267  Uiso   1.00
N19    N     0.91338   0.06696   0.10189   0.01267  Uiso   1.00
N20    N     0.02279   0.72323   0.15394   0.01267  Uiso   1.00
N21    N     0.70001   0.59516   0.45942   0.01267  Uiso   1.00
N22    N     0.77568   0.11584   0.16531   0.01267  Uiso   1.00
N23    N     0.20001   0.09516   0.04058   0.01267  Uiso   1.00
N24    N     0.99420   0.83404   0.06510   0.01267  Uiso   1.00
N25    N     0.13900   0.67430   0.60778   0.01267  Uiso   1.00
O1     O     0.12020   0.76810   0.61094   0.01267  Uiso   1.00
O2     O     0.14370   0.62920   0.54741   0.01267  Uiso   1.00
O3     O     0.15310   0.62740   0.66652   0.01267  Uiso   1.00
N26    N     0.63900   0.17430   0.89222   0.01267  Uiso   1.00
O4     O     0.62020   0.26810   0.88906   0.01267  Uiso   1.00
O5     O     0.64370   0.12920   0.95259   0.01267  Uiso   1.00
O6     O     0.65310   0.12740   0.83348   0.01267  Uiso   1.00
N27    N     0.86100   0.32570   0.39222   0.01267  Uiso   1.00
O7     O     0.85630   0.37080   0.45259   0.01267  Uiso   1.00
O8     O     0.84690   0.37260   0.33348   0.01267  Uiso   1.00
O9     O     0.87980   0.23190   0.38906   0.01267  Uiso   1.00
N28    N     0.36100   0.82570   0.10778   0.01267  Uiso   1.00
O10    O     0.34690   0.87260   0.16652   0.01267  Uiso   1.00
O11    O     0.35630   0.87080   0.04741   0.01267  Uiso   1.00
O12    O     0.37980   0.73190   0.11094   0.01267  Uiso   1.00
