data_image0
_cell_length_a       17.573
_cell_length_b       16.528
_cell_length_c       17.595
_cell_angle_alpha    90
_cell_angle_beta     90
_cell_angle_gamma    90

_symmetry_space_group_name_H-M    "P 1"
_symmetry_int_tables_number       1

loop_
  _symmetry_equiv_pos_as_xyz
  'x, y, z'

loop_
  _atom_site_label
  _atom_site_occupancy
  _atom_site_fract_x
  _atom_site_fract_y
  _atom_site_fract_z
  _atom_site_thermal_displace_type
  _atom_site_B_iso_or_equiv
  _atom_site_type_symbol
  N1       1.0000 0.33460  0.66550  0.38790  Biso   1.000  N
  N2       1.0000 0.16580  0.58930  0.17940  Biso   1.000  N
  N3       1.0000 0.11010  0.82550  0.33540  Biso   1.000  N
  C1       1.0000 0.26700  0.67890  0.34430  Biso   1.000  C
  C2       1.0000 0.15890  0.75760  0.31690  Biso   1.000  C
  C3       1.0000 0.22310  0.74460  0.36050  Biso   1.000  C
  H1       1.0000 0.23590  0.77960  0.39980  Biso   1.000  H
  N4       1.0000 0.04920  0.91710  0.40200  Biso   1.000  N
  C4       1.0000 0.09250  0.85280  0.40460  Biso   1.000  C
  H2       1.0000 0.10910  0.82890  0.44940  Biso   1.000  H
  C5       1.0000 0.18460  0.64170  0.24140  Biso   1.000  C
  C6       1.0000 0.13940  0.70800  0.25690  Biso   1.000  C
  H3       1.0000 0.09670  0.71900  0.22740  Biso   1.000  H
  C7       1.0000 0.24970  0.62680  0.28370  Biso   1.000  C
  H4       1.0000 0.28110  0.58320  0.27220  Biso   1.000  H
  C8       1.0000 0.10350  0.59190  0.13670  Biso   1.000  C
  H5       1.0000 0.06440  0.62890  0.14420  Biso   1.000  H
  C9       1.0000 0.36440  0.59390  0.40840  Biso   1.000  C
  H6       1.0000 0.34380  0.54390  0.39590  Biso   1.000  H
  C10      1.0000 0.07720  0.87720  0.28430  Biso   1.000  C
  H7       1.0000 0.08010  0.87430  0.23160  Biso   1.000  H
  C11      1.0000 0.38280  0.72480  0.41550  Biso   1.000  C
  H8       1.0000 0.37720  0.78040  0.40980  Biso   1.000  H
  C12      1.0000 0.03930  0.93330  0.32580  Biso   1.000  C
  H9       1.0000 0.01110  0.97600  0.30600  Biso   1.000  H
  C13      1.0000 0.20890  0.52660  0.15090  Biso   1.000  C
  H10      1.0000 0.25600  0.50930  0.16860  Biso   1.000  H
  N5       1.0000 0.10260  0.53700  0.08300  Biso   1.000  N
  C14      1.0000 0.16940  0.49570  0.09300  Biso   1.000  C
  H11      1.0000 0.18510  0.45200  0.06350  Biso   1.000  H
  N6       1.0000 0.42720  0.60430  0.44880  Biso   1.000  N
  C15      1.0000 0.43880  0.68660  0.45180  Biso   1.000  C
  H12      1.0000 0.47960  0.71180  0.47560  Biso   1.000  H
  N7       1.0000 0.16540  0.33450  0.88790  Biso   1.000  N
  N8       1.0000 0.33420  0.41070  0.67940  Biso   1.000  N
  N9       1.0000 0.38990  0.17450  0.83540  Biso   1.000  N
  C16      1.0000 0.23300  0.32110  0.84430  Biso   1.000  C
  C17      1.0000 0.34110  0.24240  0.81690  Biso   1.000  C
  C18      1.0000 0.27690  0.25540  0.86050  Biso   1.000  C
  H13      1.0000 0.26410  0.22040  0.89980  Biso   1.000  H
  N10      1.0000 0.45080  0.08290  0.90200  Biso   1.000  N
  C19      1.0000 0.40750  0.14720  0.90460  Biso   1.000  C
  H14      1.0000 0.39090  0.17110  0.94940  Biso   1.000  H
  C20      1.0000 0.31540  0.35830  0.74140  Biso   1.000  C
  C21      1.0000 0.36060  0.29200  0.75690  Biso   1.000  C
  H15      1.0000 0.40330  0.28100  0.72740  Biso   1.000  H
  C22      1.0000 0.25030  0.37320  0.78370  Biso   1.000  C
  H16      1.0000 0.21890  0.41680  0.77220  Biso   1.000  H
  C23      1.0000 0.39650  0.40810  0.63670  Biso   1.000  C
  H17      1.0000 0.43560  0.37110  0.64420  Biso   1.000  H
  C24      1.0000 0.13560  0.40610  0.90840  Biso   1.000  C
  H18      1.0000 0.15620  0.45610  0.89590  Biso   1.000  H
  C25      1.0000 0.42280  0.12280  0.78430  Biso   1.000  C
  H19      1.0000 0.41990  0.12570  0.73160  Biso   1.000  H
  C26      1.0000 0.11720  0.27520  0.91550  Biso   1.000  C
  H20      1.0000 0.12280  0.21960  0.90980  Biso   1.000  H
  C27      1.0000 0.46070  0.06670  0.82580  Biso   1.000  C
  H21      1.0000 0.48890  0.02400  0.80600  Biso   1.000  H
  C28      1.0000 0.29110  0.47340  0.65090  Biso   1.000  C
  H22      1.0000 0.24400  0.49070  0.66860  Biso   1.000  H
  N11      1.0000 0.39740  0.46300  0.58300  Biso   1.000  N
  C29      1.0000 0.33060  0.50430  0.59300  Biso   1.000  C
  H23      1.0000 0.31490  0.54800  0.56350  Biso   1.000  H
  N12      1.0000 0.07280  0.39570  0.94880  Biso   1.000  N
  C30      1.0000 0.06120  0.31340  0.95180  Biso   1.000  C
  H24      1.0000 0.02040  0.28820  0.97560  Biso   1.000  H
  N13      1.0000 0.66540  0.16550  0.11210  Biso   1.000  N
  N14      1.0000 0.83420  0.08930  0.32060  Biso   1.000  N
  N15      1.0000 0.88990  0.32550  0.16460  Biso   1.000  N
  C31      1.0000 0.73300  0.17890  0.15570  Biso   1.000  C
  C32      1.0000 0.84110  0.25760  0.18310  Biso   1.000  C
  C33      1.0000 0.77690  0.24460  0.13950  Biso   1.000  C
  H25      1.0000 0.76410  0.27960  0.10020  Biso   1.000  H
  N16      1.0000 0.95080  0.41710  0.09800  Biso   1.000  N
  C34      1.0000 0.90750  0.35280  0.09540  Biso   1.000  C
  H26      1.0000 0.89090  0.32890  0.05060  Biso   1.000  H
  C35      1.0000 0.81540  0.14170  0.25860  Biso   1.000  C
  C36      1.0000 0.86060  0.20800  0.24310  Biso   1.000  C
  H27      1.0000 0.90330  0.21900  0.27260  Biso   1.000  H
  C37      1.0000 0.75030  0.12680  0.21630  Biso   1.000  C
  H28      1.0000 0.71890  0.08320  0.22780  Biso   1.000  H
  C38      1.0000 0.89650  0.09190  0.36330  Biso   1.000  C
  H29      1.0000 0.93560  0.12890  0.35580  Biso   1.000  H
  C39      1.0000 0.63560  0.09390  0.09160  Biso   1.000  C
  H30      1.0000 0.65620  0.04390  0.10410  Biso   1.000  H
  C40      1.0000 0.92280  0.37720  0.21570  Biso   1.000  C
  H31      1.0000 0.91990  0.37430  0.26840  Biso   1.000  H
  C41      1.0000 0.61720  0.22480  0.08450  Biso   1.000  C
  H32      1.0000 0.62280  0.28040  0.09020  Biso   1.000  H
  C42      1.0000 0.96070  0.43330  0.17420  Biso   1.000  C
  H33      1.0000 0.98890  0.47600  0.19400  Biso   1.000  H
  C43      1.0000 0.79110  0.02660  0.34910  Biso   1.000  C
  H34      1.0000 0.74400  0.00930  0.33140  Biso   1.000  H
  N17      1.0000 0.89740  0.03700  0.41700  Biso   1.000  N
  C44      1.0000 0.83060  0.99570  0.40700  Biso   1.000  C
  H35      1.0000 0.81490  0.95200  0.43650  Biso   1.000  H
  N18      1.0000 0.57280  0.10430  0.05120  Biso   1.000  N
  C45      1.0000 0.56120  0.18660  0.04820  Biso   1.000  C
  H36      1.0000 0.52040  0.21180  0.02440  Biso   1.000  H
  N19      1.0000 0.83460  0.83450  0.61210  Biso   1.000  N
  N20      1.0000 0.66580  0.91070  0.82060  Biso   1.000  N
  N21      1.0000 0.61010  0.67450  0.66460  Biso   1.000  N
  C46      1.0000 0.76700  0.82110  0.65570  Biso   1.000  C
  C47      1.0000 0.65890  0.74240  0.68310  Biso   1.000  C
  C48      1.0000 0.72310  0.75540  0.63950  Biso   1.000  C
  H37      1.0000 0.73590  0.72040  0.60020  Biso   1.000  H
  N22      1.0000 0.54920  0.58290  0.59800  Biso   1.000  N
  C49      1.0000 0.59250  0.64720  0.59540  Biso   1.000  C
  H38      1.0000 0.60910  0.67110  0.55060  Biso   1.000  H
  C50      1.0000 0.68460  0.85830  0.75860  Biso   1.000  C
  C51      1.0000 0.63940  0.79200  0.74310  Biso   1.000  C
  H39      1.0000 0.59670  0.78100  0.77260  Biso   1.000  H
  C52      1.0000 0.74970  0.87320  0.71630  Biso   1.000  C
  H40      1.0000 0.78110  0.91680  0.72780  Biso   1.000  H
  C53      1.0000 0.60350  0.90810  0.86330  Biso   1.000  C
  H41      1.0000 0.56440  0.87110  0.85580  Biso   1.000  H
  C54      1.0000 0.86440  0.90610  0.59160  Biso   1.000  C
  H42      1.0000 0.84380  0.95610  0.60410  Biso   1.000  H
  C55      1.0000 0.57720  0.62280  0.71570  Biso   1.000  C
  H43      1.0000 0.58010  0.62570  0.76840  Biso   1.000  H
  C56      1.0000 0.88280  0.77520  0.58450  Biso   1.000  C
  H44      1.0000 0.87720  0.71960  0.59020  Biso   1.000  H
  C57      1.0000 0.53930  0.56670  0.67420  Biso   1.000  C
  H45      1.0000 0.51110  0.52400  0.69400  Biso   1.000  H
  C58      1.0000 0.70890  0.97340  0.84910  Biso   1.000  C
  H46      1.0000 0.75600  0.99070  0.83140  Biso   1.000  H
  N23      1.0000 0.60260  0.96300  0.91700  Biso   1.000  N
  C59      1.0000 0.66940  0.00430  0.90700  Biso   1.000  C
  H47      1.0000 0.68510  0.04800  0.93650  Biso   1.000  H
  N24      1.0000 0.92720  0.89570  0.55120  Biso   1.000  N
  C60      1.0000 0.93880  0.81340  0.54820  Biso   1.000  C
  H48      1.0000 0.97960  0.78820  0.52440  Biso   1.000  H
  N25      1.0000 0.66540  0.33450  0.61210  Biso   1.000  N
  N26      1.0000 0.83420  0.41070  0.82060  Biso   1.000  N
  N27      1.0000 0.88990  0.17450  0.66460  Biso   1.000  N
  C61      1.0000 0.73300  0.32110  0.65570  Biso   1.000  C
  C62      1.0000 0.84110  0.24240  0.68310  Biso   1.000  C
  C63      1.0000 0.77690  0.25540  0.63950  Biso   1.000  C
  H49      1.0000 0.76410  0.22040  0.60020  Biso   1.000  H
  N28      1.0000 0.95080  0.08290  0.59800  Biso   1.000  N
  C64      1.0000 0.90750  0.14720  0.59540  Biso   1.000  C
  H50      1.0000 0.89090  0.17110  0.55060  Biso   1.000  H
  C65      1.0000 0.81540  0.35830  0.75860  Biso   1.000  C
  C66      1.0000 0.86060  0.29200  0.74310  Biso   1.000  C
  H51      1.0000 0.90330  0.28100  0.77260  Biso   1.000  H
  C67      1.0000 0.75030  0.37320  0.71630  Biso   1.000  C
  H52      1.0000 0.71890  0.41680  0.72780  Biso   1.000  H
  C68      1.0000 0.89650  0.40810  0.86330  Biso   1.000  C
  H53      1.0000 0.93560  0.37110  0.85580  Biso   1.000  H
  C69      1.0000 0.63560  0.40610  0.59160  Biso   1.000  C
  H54      1.0000 0.65620  0.45610  0.60410  Biso   1.000  H
  C70      1.0000 0.92280  0.12280  0.71570  Biso   1.000  C
  H55      1.0000 0.91990  0.12570  0.76840  Biso   1.000  H
  C71      1.0000 0.61720  0.27520  0.58450  Biso   1.000  C
  H56      1.0000 0.62280  0.21960  0.59020  Biso   1.000  H
  C72      1.0000 0.96070  0.06670  0.67420  Biso   1.000  C
  H57      1.0000 0.98890  0.02400  0.69400  Biso   1.000  H
  C73      1.0000 0.79110  0.47340  0.84910  Biso   1.000  C
  H58      1.0000 0.74400  0.49070  0.83140  Biso   1.000  H
  N29      1.0000 0.89740  0.46300  0.91700  Biso   1.000  N
  C74      1.0000 0.83060  0.50430  0.90700  Biso   1.000  C
  H59      1.0000 0.81490  0.54800  0.93650  Biso   1.000  H
  N30      1.0000 0.57280  0.39570  0.55120  Biso   1.000  N
  C75      1.0000 0.56120  0.31340  0.54820  Biso   1.000  C
  H60      1.0000 0.52040  0.28820  0.52440  Biso   1.000  H
  N31      1.0000 0.83460  0.66550  0.11210  Biso   1.000  N
  N32      1.0000 0.66580  0.58930  0.32060  Biso   1.000  N
  N33      1.0000 0.61010  0.82550  0.16460  Biso   1.000  N
  C76      1.0000 0.76700  0.67890  0.15570  Biso   1.000  C
  C77      1.0000 0.65890  0.75760  0.18310  Biso   1.000  C
  C78      1.0000 0.72310  0.74460  0.13950  Biso   1.000  C
  H61      1.0000 0.73590  0.77960  0.10020  Biso   1.000  H
  N34      1.0000 0.54920  0.91710  0.09800  Biso   1.000  N
  C79      1.0000 0.59250  0.85280  0.09540  Biso   1.000  C
  H62      1.0000 0.60910  0.82890  0.05060  Biso   1.000  H
  C80      1.0000 0.68460  0.64170  0.25860  Biso   1.000  C
  C81      1.0000 0.63940  0.70800  0.24310  Biso   1.000  C
  H63      1.0000 0.59670  0.71900  0.27260  Biso   1.000  H
  C82      1.0000 0.74970  0.62680  0.21630  Biso   1.000  C
  H64      1.0000 0.78110  0.58320  0.22780  Biso   1.000  H
  C83      1.0000 0.60350  0.59190  0.36330  Biso   1.000  C
  H65      1.0000 0.56440  0.62890  0.35580  Biso   1.000  H
  C84      1.0000 0.86440  0.59390  0.09160  Biso   1.000  C
  H66      1.0000 0.84380  0.54390  0.10410  Biso   1.000  H
  C85      1.0000 0.57720  0.87720  0.21570  Biso   1.000  C
  H67      1.0000 0.58010  0.87430  0.26840  Biso   1.000  H
  C86      1.0000 0.88280  0.72480  0.08450  Biso   1.000  C
  H68      1.0000 0.87720  0.78040  0.09020  Biso   1.000  H
  C87      1.0000 0.53930  0.93330  0.17420  Biso   1.000  C
  H69      1.0000 0.51110  0.97600  0.19400  Biso   1.000  H
  C88      1.0000 0.70890  0.52660  0.34910  Biso   1.000  C
  H70      1.0000 0.75600  0.50930  0.33140  Biso   1.000  H
  N35      1.0000 0.60260  0.53700  0.41700  Biso   1.000  N
  C89      1.0000 0.66940  0.49570  0.40700  Biso   1.000  C
  H71      1.0000 0.68510  0.45200  0.43650  Biso   1.000  H
  N36      1.0000 0.92720  0.60430  0.05120  Biso   1.000  N
  C90      1.0000 0.93880  0.68660  0.04820  Biso   1.000  C
  H72      1.0000 0.97960  0.71180  0.02440  Biso   1.000  H
  N37      1.0000 0.33460  0.83450  0.88790  Biso   1.000  N
  N38      1.0000 0.16580  0.91070  0.67940  Biso   1.000  N
  N39      1.0000 0.11010  0.67450  0.83540  Biso   1.000  N
  C91      1.0000 0.26700  0.82110  0.84430  Biso   1.000  C
  C92      1.0000 0.15890  0.74240  0.81690  Biso   1.000  C
  C93      1.0000 0.22310  0.75540  0.86050  Biso   1.000  C
  H73      1.0000 0.23590  0.72040  0.89980  Biso   1.000  H
  N40      1.0000 0.04920  0.58290  0.90200  Biso   1.000  N
  C94      1.0000 0.09250  0.64720  0.90460  Biso   1.000  C
  H74      1.0000 0.10910  0.67110  0.94940  Biso   1.000  H
  C95      1.0000 0.18460  0.85830  0.74140  Biso   1.000  C
  C96      1.0000 0.13940  0.79200  0.75690  Biso   1.000  C
  H75      1.0000 0.09670  0.78100  0.72740  Biso   1.000  H
  C97      1.0000 0.24970  0.87320  0.78370  Biso   1.000  C
  H76      1.0000 0.28110  0.91680  0.77220  Biso   1.000  H
  C98      1.0000 0.10350  0.90810  0.63670  Biso   1.000  C
  H77      1.0000 0.06440  0.87110  0.64420  Biso   1.000  H
  C99      1.0000 0.36440  0.90610  0.90840  Biso   1.000  C
  H78      1.0000 0.34380  0.95610  0.89590  Biso   1.000  H
  C100     1.0000 0.07720  0.62280  0.78430  Biso   1.000  C
  H79      1.0000 0.08010  0.62570  0.73160  Biso   1.000  H
  C101     1.0000 0.38280  0.77520  0.91550  Biso   1.000  C
  H80      1.0000 0.37720  0.71960  0.90980  Biso   1.000  H
  C102     1.0000 0.03930  0.56670  0.82580  Biso   1.000  C
  H81      1.0000 0.01110  0.52400  0.80600  Biso   1.000  H
  C103     1.0000 0.20890  0.97340  0.65090  Biso   1.000  C
  H82      1.0000 0.25600  0.99070  0.66860  Biso   1.000  H
  N41      1.0000 0.10260  0.96300  0.58300  Biso   1.000  N
  C104     1.0000 0.16940  0.00430  0.59300  Biso   1.000  C
  H83      1.0000 0.18510  0.04800  0.56350  Biso   1.000  H
  N42      1.0000 0.42720  0.89570  0.94880  Biso   1.000  N
  C105     1.0000 0.43880  0.81340  0.95180  Biso   1.000  C
  H84      1.0000 0.47960  0.78820  0.97560  Biso   1.000  H
  N43      1.0000 0.16540  0.16550  0.38790  Biso   1.000  N
  N44      1.0000 0.33420  0.08930  0.17940  Biso   1.000  N
  N45      1.0000 0.38990  0.32550  0.33540  Biso   1.000  N
  C106     1.0000 0.23300  0.17890  0.34430  Biso   1.000  C
  C107     1.0000 0.34110  0.25760  0.31690  Biso   1.000  C
  C108     1.0000 0.27690  0.24460  0.36050  Biso   1.000  C
  H85      1.0000 0.26410  0.27960  0.39980  Biso   1.000  H
  N46      1.0000 0.45080  0.41710  0.40200  Biso   1.000  N
  C109     1.0000 0.40750  0.35280  0.40460  Biso   1.000  C
  H86      1.0000 0.39090  0.32890  0.44940  Biso   1.000  H
  C110     1.0000 0.31540  0.14170  0.24140  Biso   1.000  C
  C111     1.0000 0.36060  0.20800  0.25690  Biso   1.000  C
  H87      1.0000 0.40330  0.21900  0.22740  Biso   1.000  H
  C112     1.0000 0.25030  0.12680  0.28370  Biso   1.000  C
  H88      1.0000 0.21890  0.08320  0.27220  Biso   1.000  H
  C113     1.0000 0.39650  0.09190  0.13670  Biso   1.000  C
  H89      1.0000 0.43560  0.12890  0.14420  Biso   1.000  H
  C114     1.0000 0.13560  0.09390  0.40840  Biso   1.000  C
  H90      1.0000 0.15620  0.04390  0.39590  Biso   1.000  H
  C115     1.0000 0.42280  0.37720  0.28430  Biso   1.000  C
  H91      1.0000 0.41990  0.37430  0.23160  Biso   1.000  H
  C116     1.0000 0.11720  0.22480  0.41550  Biso   1.000  C
  H92      1.0000 0.12280  0.28040  0.40980  Biso   1.000  H
  C117     1.0000 0.46070  0.43330  0.32580  Biso   1.000  C
  H93      1.0000 0.48890  0.47600  0.30600  Biso   1.000  H
  C118     1.0000 0.29110  0.02660  0.15090  Biso   1.000  C
  H94      1.0000 0.24400  0.00930  0.16860  Biso   1.000  H
  N47      1.0000 0.39740  0.03700  0.08300  Biso   1.000  N
  C119     1.0000 0.33060  0.99570  0.09300  Biso   1.000  C
  H95      1.0000 0.31490  0.95200  0.06350  Biso   1.000  H
  N48      1.0000 0.07280  0.10430  0.44880  Biso   1.000  N
  C120     1.0000 0.06120  0.18660  0.45180  Biso   1.000  C
  H96      1.0000 0.02040  0.21180  0.47560  Biso   1.000  H
  Cd1      1.0000 0.00000  0.00000  0.50000  Biso   1.000  Cd
  Cd2      1.0000 0.50000  0.00000  0.00000  Biso   1.000  Cd
  Cd3      1.0000 0.00000  0.50000  0.00000  Biso   1.000  Cd
  Cd4      1.0000 0.50000  0.50000  0.50000  Biso   1.000  Cd
