data_image0
_cell_length_a       13.757
_cell_length_b       20.753
_cell_length_c       7.86
_cell_angle_alpha    90
_cell_angle_beta     91.66
_cell_angle_gamma    90

_symmetry_space_group_name_H-M    "P 1"
_symmetry_int_tables_number       1

loop_
  _symmetry_equiv_pos_as_xyz
  'x, y, z'

loop_
  _atom_site_label
  _atom_site_occupancy
  _atom_site_fract_x
  _atom_site_fract_y
  _atom_site_fract_z
  _atom_site_thermal_displace_type
  _atom_site_B_iso_or_equiv
  _atom_site_type_symbol
  Cu1      1.0000 0.08405  0.51081  0.07707  Biso   1.000  Cu
  Cu2      1.0000 0.50302  0.66455  0.53406  Biso   1.000  Cu
  O1       1.0000 0.36576  0.66004  0.50560  Biso   1.000  O
  O2       1.0000 0.32234  0.75572  0.39440  Biso   1.000  O
  O3       1.0000 0.64339  0.82701  0.07630  Biso   1.000  O
  O4       1.0000 0.60760  0.72383  0.03100  Biso   1.000  O
  O5       1.0000 0.86247  0.56571  0.03340  Biso   1.000  O
  O6       1.0000 0.12031  0.55995  0.87540  Biso   1.000  O
  O7       1.0000 0.00871  0.58525  0.15240  Biso   1.000  O
  O8       1.0000 0.97360  0.54508  0.75180  Biso   1.000  O
  C1       1.0000 0.30370  0.70234  0.45510  Biso   1.000  C
  C2       1.0000 0.19940  0.68166  0.47700  Biso   1.000  C
  C3       1.0000 0.12520  0.70645  0.37110  Biso   1.000  C
  H1       1.0000 0.14500  0.74000  0.28500  Biso   1.000  H
  C4       1.0000 0.01170  0.63523  0.50320  Biso   1.000  C
  H2       1.0000 0.95500  0.61810  0.50700  Biso   1.000  H
  C5       1.0000 0.03040  0.68220  0.38340  Biso   1.000  C
  C6       1.0000 0.94560  0.70602  0.27770  Biso   1.000  C
  C7       1.0000 0.91750  0.76974  0.28980  Biso   1.000  C
  H3       1.0000 0.95000  0.79740  0.34800  Biso   1.000  H
  C8       1.0000 0.82910  0.79150  0.21930  Biso   1.000  C
  H4       1.0000 0.81200  0.83160  0.23000  Biso   1.000  H
  C9       1.0000 0.76570  0.74836  0.14080  Biso   1.000  C
  C10      1.0000 0.79550  0.68540  0.12020  Biso   1.000  C
  H5       1.0000 0.75400  0.65650  0.06430  Biso   1.000  H
  C11      1.0000 0.88610  0.66386  0.18080  Biso   1.000  C
  C12      1.0000 0.92140  0.59941  0.12150  Biso   1.000  C
  C13      1.0000 0.05780  0.56863  0.75770  Biso   1.000  C
  C14      1.0000 0.08390  0.61347  0.61710  Biso   1.000  C
  C15      1.0000 0.17850  0.63583  0.59920  Biso   1.000  C
  H6       1.0000 0.22700  0.62470  0.66200  Biso   1.000  H
  C16      1.0000 0.66620  0.76720  0.07560  Biso   1.000  C
  Cu3      1.0000 0.91595  0.01081  0.42293  Biso   1.000  Cu
  Cu4      1.0000 0.49698  0.16455  0.96594  Biso   1.000  Cu
  O9       1.0000 0.63424  0.16004  0.99440  Biso   1.000  O
  O10      1.0000 0.67766  0.25572  0.10560  Biso   1.000  O
  O11      1.0000 0.35661  0.32701  0.42370  Biso   1.000  O
  O12      1.0000 0.39240  0.22383  0.46900  Biso   1.000  O
  O13      1.0000 0.13753  0.06571  0.46660  Biso   1.000  O
  O14      1.0000 0.87969  0.05995  0.62460  Biso   1.000  O
  O15      1.0000 0.99129  0.08525  0.34760  Biso   1.000  O
  O16      1.0000 0.02640  0.04508  0.74820  Biso   1.000  O
  C17      1.0000 0.69630  0.20234  0.04490  Biso   1.000  C
  C18      1.0000 0.80060  0.18166  0.02300  Biso   1.000  C
  C19      1.0000 0.87480  0.20645  0.12890  Biso   1.000  C
  H7       1.0000 0.85500  0.24000  0.21500  Biso   1.000  H
  C20      1.0000 0.98830  0.13523  0.99680  Biso   1.000  C
  H8       1.0000 0.04500  0.11810  0.99300  Biso   1.000  H
  C21      1.0000 0.96960  0.18220  0.11660  Biso   1.000  C
  C22      1.0000 0.05440  0.20602  0.22230  Biso   1.000  C
  C23      1.0000 0.08250  0.26974  0.21020  Biso   1.000  C
  H9       1.0000 0.05000  0.29740  0.15200  Biso   1.000  H
  C24      1.0000 0.17090  0.29150  0.28070  Biso   1.000  C
  H10      1.0000 0.18800  0.33160  0.27000  Biso   1.000  H
  C25      1.0000 0.23430  0.24836  0.35920  Biso   1.000  C
  C26      1.0000 0.20450  0.18540  0.37980  Biso   1.000  C
  H11      1.0000 0.24600  0.15650  0.43570  Biso   1.000  H
  C27      1.0000 0.11390  0.16386  0.31920  Biso   1.000  C
  C28      1.0000 0.07860  0.09941  0.37850  Biso   1.000  C
  C29      1.0000 0.94220  0.06863  0.74230  Biso   1.000  C
  C30      1.0000 0.91610  0.11347  0.88290  Biso   1.000  C
  C31      1.0000 0.82150  0.13583  0.90080  Biso   1.000  C
  H12      1.0000 0.77300  0.12470  0.83800  Biso   1.000  H
  C32      1.0000 0.33380  0.26720  0.42440  Biso   1.000  C
  Cu5      1.0000 0.91595  0.48919  0.92293  Biso   1.000  Cu
  Cu6      1.0000 0.49698  0.33545  0.46594  Biso   1.000  Cu
  O17      1.0000 0.63424  0.33996  0.49440  Biso   1.000  O
  O18      1.0000 0.67766  0.24428  0.60560  Biso   1.000  O
  O19      1.0000 0.35661  0.17299  0.92370  Biso   1.000  O
  O20      1.0000 0.39240  0.27617  0.96900  Biso   1.000  O
  O21      1.0000 0.13753  0.43429  0.96660  Biso   1.000  O
  O22      1.0000 0.87969  0.44005  0.12460  Biso   1.000  O
  O23      1.0000 0.99129  0.41475  0.84760  Biso   1.000  O
  O24      1.0000 0.02640  0.45492  0.24820  Biso   1.000  O
  C33      1.0000 0.69630  0.29766  0.54490  Biso   1.000  C
  C34      1.0000 0.80060  0.31834  0.52300  Biso   1.000  C
  C35      1.0000 0.87480  0.29355  0.62890  Biso   1.000  C
  H13      1.0000 0.85500  0.26000  0.71500  Biso   1.000  H
  C36      1.0000 0.98830  0.36477  0.49680  Biso   1.000  C
  H14      1.0000 0.04500  0.38190  0.49300  Biso   1.000  H
  C37      1.0000 0.96960  0.31780  0.61660  Biso   1.000  C
  C38      1.0000 0.05440  0.29398  0.72230  Biso   1.000  C
  C39      1.0000 0.08250  0.23026  0.71020  Biso   1.000  C
  H15      1.0000 0.05000  0.20260  0.65200  Biso   1.000  H
  C40      1.0000 0.17090  0.20850  0.78070  Biso   1.000  C
  H16      1.0000 0.18800  0.16840  0.77000  Biso   1.000  H
  C41      1.0000 0.23430  0.25164  0.85920  Biso   1.000  C
  C42      1.0000 0.20450  0.31460  0.87980  Biso   1.000  C
  H17      1.0000 0.24600  0.34350  0.93570  Biso   1.000  H
  C43      1.0000 0.11390  0.33614  0.81920  Biso   1.000  C
  C44      1.0000 0.07860  0.40059  0.87850  Biso   1.000  C
  C45      1.0000 0.94220  0.43137  0.24230  Biso   1.000  C
  C46      1.0000 0.91610  0.38653  0.38290  Biso   1.000  C
  C47      1.0000 0.82150  0.36417  0.40080  Biso   1.000  C
  H18      1.0000 0.77300  0.37530  0.33800  Biso   1.000  H
  C48      1.0000 0.33380  0.23280  0.92440  Biso   1.000  C
  Cu7      1.0000 0.08405  0.98919  0.57707  Biso   1.000  Cu
  Cu8      1.0000 0.50302  0.83545  0.03406  Biso   1.000  Cu
  O25      1.0000 0.36576  0.83996  0.00560  Biso   1.000  O
  O26      1.0000 0.32234  0.74428  0.89440  Biso   1.000  O
  O27      1.0000 0.64339  0.67299  0.57630  Biso   1.000  O
  O28      1.0000 0.60760  0.77617  0.53100  Biso   1.000  O
  O29      1.0000 0.86247  0.93429  0.53340  Biso   1.000  O
  O30      1.0000 0.12031  0.94005  0.37540  Biso   1.000  O
  O31      1.0000 0.00871  0.91475  0.65240  Biso   1.000  O
  O32      1.0000 0.97360  0.95492  0.25180  Biso   1.000  O
  C49      1.0000 0.30370  0.79766  0.95510  Biso   1.000  C
  C50      1.0000 0.19940  0.81834  0.97700  Biso   1.000  C
  C51      1.0000 0.12520  0.79355  0.87110  Biso   1.000  C
  H19      1.0000 0.14500  0.76000  0.78500  Biso   1.000  H
  C52      1.0000 0.01170  0.86477  0.00320  Biso   1.000  C
  H20      1.0000 0.95500  0.88190  0.00700  Biso   1.000  H
  C53      1.0000 0.03040  0.81780  0.88340  Biso   1.000  C
  C54      1.0000 0.94560  0.79398  0.77770  Biso   1.000  C
  C55      1.0000 0.91750  0.73026  0.78980  Biso   1.000  C
  H21      1.0000 0.95000  0.70260  0.84800  Biso   1.000  H
  C56      1.0000 0.82910  0.70850  0.71930  Biso   1.000  C
  H22      1.0000 0.81200  0.66840  0.73000  Biso   1.000  H
  C57      1.0000 0.76570  0.75164  0.64080  Biso   1.000  C
  C58      1.0000 0.79550  0.81460  0.62020  Biso   1.000  C
  H23      1.0000 0.75400  0.84350  0.56430  Biso   1.000  H
  C59      1.0000 0.88610  0.83614  0.68080  Biso   1.000  C
  C60      1.0000 0.92140  0.90059  0.62150  Biso   1.000  C
  C61      1.0000 0.05780  0.93137  0.25770  Biso   1.000  C
  C62      1.0000 0.08390  0.88653  0.11710  Biso   1.000  C
  C63      1.0000 0.17850  0.86417  0.09920  Biso   1.000  C
  H24      1.0000 0.22700  0.87530  0.16200  Biso   1.000  H
  C64      1.0000 0.66620  0.73280  0.57560  Biso   1.000  C
