data_image0
_cell_length_a       22.128
_cell_length_b       14.5817
_cell_length_c       28.083
_cell_angle_alpha    90
_cell_angle_beta     116.316
_cell_angle_gamma    90

_symmetry_space_group_name_H-M    "P 1"
_symmetry_int_tables_number       1

loop_
  _symmetry_equiv_pos_as_xyz
  'x, y, z'

loop_
  _atom_site_label
  _atom_site_occupancy
  _atom_site_fract_x
  _atom_site_fract_y
  _atom_site_fract_z
  _atom_site_thermal_displace_type
  _atom_site_B_iso_or_equiv
  _atom_site_type_symbol
  Ni1      1.0000 0.74600  0.32840  0.74428  Biso   1.000  Ni
  Ni2      1.0000 0.78102  0.50577  0.46059  Biso   1.000  Ni
  O1       1.0000 0.82688  0.33501  0.66539  Biso   1.000  O
  O2       1.0000 0.77692  0.41707  0.70439  Biso   1.000  O
  O3       1.0000 0.78698  0.73962  0.71597  Biso   1.000  O
  O4       1.0000 0.83571  0.82498  0.67718  Biso   1.000  O
  O5       1.0000 0.21609  0.57218  0.65146  Biso   1.000  O
  O6       1.0000 0.15278  0.51130  0.57211  Biso   1.000  O
  O7       1.0000 0.86478  0.55038  0.52755  Biso   1.000  O
  O8       1.0000 0.91188  0.41190  0.54990  Biso   1.000  O
  N1       1.0000 0.72033  0.53090  0.49717  Biso   1.000  N
  N2       1.0000 0.63179  0.53190  0.51353  Biso   1.000  N
  N3       1.0000 0.84241  0.32940  0.80790  Biso   1.000  N
  N4       1.0000 0.92720  0.30070  0.88616  Biso   1.000  N
  N5       1.0000 0.06775  0.20100  0.10108  Biso   1.000  N
  N6       1.0000 0.15109  0.17550  0.18056  Biso   1.000  N
  C1       1.0000 0.84360  0.49680  0.67377  Biso   1.000  C
  C2       1.0000 0.82060  0.57940  0.68421  Biso   1.000  C
  H1       1.0000 0.78610  0.57950  0.69460  Biso   1.000  H
  C3       1.0000 0.84880  0.66240  0.67924  Biso   1.000  C
  C4       1.0000 0.90130  0.66090  0.66444  Biso   1.000  C
  H2       1.0000 0.92080  0.71580  0.66150  Biso   1.000  H
  C5       1.0000 0.92480  0.57930  0.65409  Biso   1.000  C
  C6       1.0000 0.98400  0.57550  0.64129  Biso   1.000  C
  C7       1.0000 0.04690  0.60640  0.67937  Biso   1.000  C
  H3       1.0000 0.05050  0.63360  0.71050  Biso   1.000  H
  C8       1.0000 0.10370  0.59670  0.67088  Biso   1.000  C
  H4       1.0000 0.14550  0.61630  0.69660  Biso   1.000  H
  C9       1.0000 0.09850  0.55770  0.62402  Biso   1.000  C
  C10      1.0000 0.03620  0.52720  0.58622  Biso   1.000  C
  H5       1.0000 0.03260  0.50050  0.55500  Biso   1.000  H
  C11      1.0000 0.97860  0.53630  0.59477  Biso   1.000  C
  C12      1.0000 0.81330  0.40960  0.68119  Biso   1.000  C
  C13      1.0000 0.82220  0.74930  0.69168  Biso   1.000  C
  C14      1.0000 0.15990  0.54640  0.61464  Biso   1.000  C
  C15      1.0000 0.91300  0.49630  0.55419  Biso   1.000  C
  C16      1.0000 0.68410  0.56900  0.55670  Biso   1.000  C
  H6       1.0000 0.68320  0.59110  0.58740  Biso   1.000  H
  C17      1.0000 0.73780  0.56720  0.54570  Biso   1.000  C
  C18      1.0000 0.65660  0.50950  0.47920  Biso   1.000  C
  H7       1.0000 0.63140  0.48200  0.44650  Biso   1.000  H
  C19      1.0000 0.51380  0.49920  0.45684  Biso   1.000  C
  H8       1.0000 0.52330  0.49850  0.42770  Biso   1.000  H
  C20      1.0000 0.56470  0.51660  0.50659  Biso   1.000  C
  C21      1.0000 0.55150  0.51750  0.55036  Biso   1.000  C
  H9       1.0000 0.58590  0.52910  0.58410  Biso   1.000  H
  C22      1.0000 0.95440  0.32390  0.85273  Biso   1.000  C
  H10      1.0000 0.00010  0.32700  0.86120  Biso   1.000  H
  C23      1.0000 0.90260  0.34140  0.80522  Biso   1.000  C
  H11      1.0000 0.90670  0.35900  0.77500  Biso   1.000  H
  C24      1.0000 0.85970  0.30520  0.85739  Biso   1.000  C
  H12      1.0000 0.82910  0.29280  0.87090  Biso   1.000  H
  C25      1.0000 0.96330  0.27560  0.94103  Biso   1.000  C
  C26      1.0000 0.93470  0.29290  0.97493  Biso   1.000  C
  C27      1.0000 0.03300  0.22640  0.04618  Biso   1.000  C
  C28      1.0000 0.06130  0.21210  0.01208  Biso   1.000  C
  H13      1.0000 0.10400  0.18610  0.02450  Biso   1.000  H
  C29      1.0000 0.02620  0.23630  0.95925  Biso   1.000  C
  H14      1.0000 0.04500  0.22600  0.93600  Biso   1.000  H
  C30      1.0000 0.03930  0.17400  0.13335  Biso   1.000  C
  H15      1.0000 0.99360  0.16770  0.12390  Biso   1.000  H
  C31      1.0000 0.09090  0.15830  0.18140  Biso   1.000  C
  C32      1.0000 0.13480  0.20020  0.13100  Biso   1.000  C
  H16      1.0000 0.16610  0.21520  0.11840  Biso   1.000  H
  C33      1.0000 0.97010  0.26770  0.02836  Biso   1.000  C
  C34      1.0000 0.89490  0.49840  0.65821  Biso   1.000  C
  H17      1.0000 0.89500  0.33100  0.96090  Biso   1.000  H
  H18      1.0000 0.94900  0.28600  0.04820  Biso   1.000  H
  H19      1.0000 0.91170  0.45000  0.64980  Biso   1.000  H
  H20      1.0000 0.09000  0.14400  0.21320  Biso   1.000  H
  H21      1.0000 0.77400  0.58500  0.56200  Biso   1.000  H
  Ni3      1.0000 0.75400  0.82840  0.75572  Biso   1.000  Ni
  Ni4      1.0000 0.71898  0.00577  0.03941  Biso   1.000  Ni
  O9       1.0000 0.67312  0.83501  0.83461  Biso   1.000  O
  O10      1.0000 0.72308  0.91707  0.79561  Biso   1.000  O
  O11      1.0000 0.71302  0.23962  0.78403  Biso   1.000  O
  O12      1.0000 0.66429  0.32498  0.82282  Biso   1.000  O
  O13      1.0000 0.28391  0.07218  0.84854  Biso   1.000  O
  O14      1.0000 0.34722  0.01130  0.92789  Biso   1.000  O
  O15      1.0000 0.63522  0.05038  0.97245  Biso   1.000  O
  O16      1.0000 0.58812  0.91190  0.95010  Biso   1.000  O
  N7       1.0000 0.77967  0.03090  0.00283  Biso   1.000  N
  N8       1.0000 0.86821  0.03190  0.98647  Biso   1.000  N
  N9       1.0000 0.65759  0.82940  0.69210  Biso   1.000  N
  N10      1.0000 0.57280  0.80070  0.61384  Biso   1.000  N
  N11      1.0000 0.43225  0.70100  0.39892  Biso   1.000  N
  N12      1.0000 0.34891  0.67550  0.31944  Biso   1.000  N
  C35      1.0000 0.65640  0.99680  0.82623  Biso   1.000  C
  C36      1.0000 0.67940  0.07940  0.81579  Biso   1.000  C
  H22      1.0000 0.71390  0.07950  0.80540  Biso   1.000  H
  C37      1.0000 0.65120  0.16240  0.82076  Biso   1.000  C
  C38      1.0000 0.59870  0.16090  0.83556  Biso   1.000  C
  H23      1.0000 0.57920  0.21580  0.83850  Biso   1.000  H
  C39      1.0000 0.57520  0.07930  0.84591  Biso   1.000  C
  C40      1.0000 0.51600  0.07550  0.85871  Biso   1.000  C
  C41      1.0000 0.45310  0.10640  0.82063  Biso   1.000  C
  H24      1.0000 0.44950  0.13360  0.78950  Biso   1.000  H
  C42      1.0000 0.39630  0.09670  0.82912  Biso   1.000  C
  H25      1.0000 0.35450  0.11630  0.80340  Biso   1.000  H
  C43      1.0000 0.40150  0.05770  0.87598  Biso   1.000  C
  C44      1.0000 0.46380  0.02720  0.91378  Biso   1.000  C
  H26      1.0000 0.46740  0.00050  0.94500  Biso   1.000  H
  C45      1.0000 0.52140  0.03630  0.90523  Biso   1.000  C
  C46      1.0000 0.68670  0.90960  0.81881  Biso   1.000  C
  C47      1.0000 0.67780  0.24930  0.80832  Biso   1.000  C
  C48      1.0000 0.34010  0.04640  0.88536  Biso   1.000  C
  C49      1.0000 0.58700  0.99630  0.94581  Biso   1.000  C
  C50      1.0000 0.81590  0.06900  0.94330  Biso   1.000  C
  H27      1.0000 0.81680  0.09110  0.91260  Biso   1.000  H
  C51      1.0000 0.76220  0.06720  0.95430  Biso   1.000  C
  C52      1.0000 0.84340  0.00950  0.02080  Biso   1.000  C
  H28      1.0000 0.86860  0.98200  0.05350  Biso   1.000  H
  C53      1.0000 0.98620  0.99920  0.04316  Biso   1.000  C
  H29      1.0000 0.97670  0.99850  0.07230  Biso   1.000  H
  C54      1.0000 0.93530  0.01660  0.99341  Biso   1.000  C
  C55      1.0000 0.94850  0.01750  0.94964  Biso   1.000  C
  H30      1.0000 0.91410  0.02910  0.91590  Biso   1.000  H
  C56      1.0000 0.54560  0.82390  0.64727  Biso   1.000  C
  H31      1.0000 0.49990  0.82700  0.63880  Biso   1.000  H
  C57      1.0000 0.59740  0.84140  0.69478  Biso   1.000  C
  H32      1.0000 0.59330  0.85900  0.72500  Biso   1.000  H
  C58      1.0000 0.64030  0.80520  0.64261  Biso   1.000  C
  H33      1.0000 0.67090  0.79280  0.62910  Biso   1.000  H
  C59      1.0000 0.53670  0.77560  0.55897  Biso   1.000  C
  C60      1.0000 0.56530  0.79290  0.52507  Biso   1.000  C
  C61      1.0000 0.46700  0.72640  0.45382  Biso   1.000  C
  C62      1.0000 0.43870  0.71210  0.48792  Biso   1.000  C
  H34      1.0000 0.39600  0.68610  0.47550  Biso   1.000  H
  C63      1.0000 0.47380  0.73630  0.54075  Biso   1.000  C
  H35      1.0000 0.45500  0.72600  0.56400  Biso   1.000  H
  C64      1.0000 0.46070  0.67400  0.36665  Biso   1.000  C
  H36      1.0000 0.50640  0.66770  0.37610  Biso   1.000  H
  C65      1.0000 0.40910  0.65830  0.31860  Biso   1.000  C
  C66      1.0000 0.36520  0.70020  0.36900  Biso   1.000  C
  H37      1.0000 0.33390  0.71520  0.38160  Biso   1.000  H
  C67      1.0000 0.52990  0.76770  0.47164  Biso   1.000  C
  C68      1.0000 0.60510  0.99840  0.84179  Biso   1.000  C
  H38      1.0000 0.60500  0.83100  0.53910  Biso   1.000  H
  H39      1.0000 0.55100  0.78600  0.45180  Biso   1.000  H
  H40      1.0000 0.58830  0.95000  0.85020  Biso   1.000  H
  H41      1.0000 0.41000  0.64400  0.28680  Biso   1.000  H
  H42      1.0000 0.72600  0.08500  0.93800  Biso   1.000  H
  Ni5      1.0000 0.25400  0.67160  0.25572  Biso   1.000  Ni
  Ni6      1.0000 0.21898  0.49423  0.53941  Biso   1.000  Ni
  O17      1.0000 0.17312  0.66499  0.33461  Biso   1.000  O
  O18      1.0000 0.22308  0.58293  0.29561  Biso   1.000  O
  O19      1.0000 0.21302  0.26038  0.28403  Biso   1.000  O
  O20      1.0000 0.16429  0.17502  0.32282  Biso   1.000  O
  O21      1.0000 0.78391  0.42782  0.34854  Biso   1.000  O
  O22      1.0000 0.84722  0.48870  0.42789  Biso   1.000  O
  O23      1.0000 0.13522  0.44962  0.47245  Biso   1.000  O
  O24      1.0000 0.08812  0.58810  0.45010  Biso   1.000  O
  N13      1.0000 0.27967  0.46910  0.50283  Biso   1.000  N
  N14      1.0000 0.36821  0.46810  0.48647  Biso   1.000  N
  N15      1.0000 0.15759  0.67060  0.19210  Biso   1.000  N
  N16      1.0000 0.07280  0.69930  0.11384  Biso   1.000  N
  N17      1.0000 0.93225  0.79900  0.89892  Biso   1.000  N
  N18      1.0000 0.84891  0.82450  0.81944  Biso   1.000  N
  C69      1.0000 0.15640  0.50320  0.32623  Biso   1.000  C
  C70      1.0000 0.17940  0.42060  0.31579  Biso   1.000  C
  H43      1.0000 0.21390  0.42050  0.30540  Biso   1.000  H
  C71      1.0000 0.15120  0.33760  0.32076  Biso   1.000  C
  C72      1.0000 0.09870  0.33910  0.33556  Biso   1.000  C
  H44      1.0000 0.07920  0.28420  0.33850  Biso   1.000  H
  C73      1.0000 0.07520  0.42070  0.34591  Biso   1.000  C
  C74      1.0000 0.01600  0.42450  0.35871  Biso   1.000  C
  C75      1.0000 0.95310  0.39360  0.32063  Biso   1.000  C
  H45      1.0000 0.94950  0.36640  0.28950  Biso   1.000  H
  C76      1.0000 0.89630  0.40330  0.32912  Biso   1.000  C
  H46      1.0000 0.85450  0.38370  0.30340  Biso   1.000  H
  C77      1.0000 0.90150  0.44230  0.37598  Biso   1.000  C
  C78      1.0000 0.96380  0.47280  0.41378  Biso   1.000  C
  H47      1.0000 0.96740  0.49950  0.44500  Biso   1.000  H
  C79      1.0000 0.02140  0.46370  0.40523  Biso   1.000  C
  C80      1.0000 0.18670  0.59040  0.31881  Biso   1.000  C
  C81      1.0000 0.17780  0.25070  0.30832  Biso   1.000  C
  C82      1.0000 0.84010  0.45360  0.38536  Biso   1.000  C
  C83      1.0000 0.08700  0.50370  0.44581  Biso   1.000  C
  C84      1.0000 0.31590  0.43100  0.44330  Biso   1.000  C
  H48      1.0000 0.31680  0.40890  0.41260  Biso   1.000  H
  C85      1.0000 0.26220  0.43280  0.45430  Biso   1.000  C
  C86      1.0000 0.34340  0.49050  0.52080  Biso   1.000  C
  H49      1.0000 0.36860  0.51800  0.55350  Biso   1.000  H
  C87      1.0000 0.48620  0.50080  0.54316  Biso   1.000  C
  H50      1.0000 0.47670  0.50150  0.57230  Biso   1.000  H
  C88      1.0000 0.43530  0.48340  0.49341  Biso   1.000  C
  C89      1.0000 0.44850  0.48250  0.44964  Biso   1.000  C
  H51      1.0000 0.41410  0.47090  0.41590  Biso   1.000  H
  C90      1.0000 0.04560  0.67610  0.14727  Biso   1.000  C
  H52      1.0000 0.99990  0.67300  0.13880  Biso   1.000  H
  C91      1.0000 0.09740  0.65860  0.19478  Biso   1.000  C
  H53      1.0000 0.09330  0.64100  0.22500  Biso   1.000  H
  C92      1.0000 0.14030  0.69480  0.14261  Biso   1.000  C
  H54      1.0000 0.17090  0.70720  0.12910  Biso   1.000  H
  C93      1.0000 0.03670  0.72440  0.05897  Biso   1.000  C
  C94      1.0000 0.06530  0.70710  0.02507  Biso   1.000  C
  C95      1.0000 0.96700  0.77360  0.95382  Biso   1.000  C
  C96      1.0000 0.93870  0.78790  0.98792  Biso   1.000  C
  H55      1.0000 0.89600  0.81390  0.97550  Biso   1.000  H
  C97      1.0000 0.97380  0.76370  0.04075  Biso   1.000  C
  H56      1.0000 0.95500  0.77400  0.06400  Biso   1.000  H
  C98      1.0000 0.96070  0.82600  0.86665  Biso   1.000  C
  H57      1.0000 0.00640  0.83230  0.87610  Biso   1.000  H
  C99      1.0000 0.90910  0.84170  0.81860  Biso   1.000  C
  C100     1.0000 0.86520  0.79980  0.86900  Biso   1.000  C
  H58      1.0000 0.83390  0.78480  0.88160  Biso   1.000  H
  C101     1.0000 0.02990  0.73230  0.97164  Biso   1.000  C
  C102     1.0000 0.10510  0.50160  0.34179  Biso   1.000  C
  H59      1.0000 0.10500  0.66900  0.03910  Biso   1.000  H
  H60      1.0000 0.05100  0.71400  0.95180  Biso   1.000  H
  H61      1.0000 0.08830  0.55000  0.35020  Biso   1.000  H
  H62      1.0000 0.91000  0.85600  0.78680  Biso   1.000  H
  H63      1.0000 0.22600  0.41500  0.43800  Biso   1.000  H
  Ni7      1.0000 0.24600  0.17160  0.24428  Biso   1.000  Ni
  Ni8      1.0000 0.28102  0.99423  0.96059  Biso   1.000  Ni
  O25      1.0000 0.32688  0.16499  0.16539  Biso   1.000  O
  O26      1.0000 0.27692  0.08293  0.20439  Biso   1.000  O
  O27      1.0000 0.28698  0.76038  0.21597  Biso   1.000  O
  O28      1.0000 0.33571  0.67502  0.17718  Biso   1.000  O
  O29      1.0000 0.71609  0.92782  0.15146  Biso   1.000  O
  O30      1.0000 0.65278  0.98870  0.07211  Biso   1.000  O
  O31      1.0000 0.36478  0.94962  0.02755  Biso   1.000  O
  O32      1.0000 0.41188  0.08810  0.04990  Biso   1.000  O
  N19      1.0000 0.22033  0.96910  0.99717  Biso   1.000  N
  N20      1.0000 0.13179  0.96810  0.01353  Biso   1.000  N
  N21      1.0000 0.34241  0.17060  0.30790  Biso   1.000  N
  N22      1.0000 0.42720  0.19930  0.38616  Biso   1.000  N
  N23      1.0000 0.56775  0.29900  0.60108  Biso   1.000  N
  N24      1.0000 0.65109  0.32450  0.68056  Biso   1.000  N
  C103     1.0000 0.34360  0.00320  0.17377  Biso   1.000  C
  C104     1.0000 0.32060  0.92060  0.18421  Biso   1.000  C
  H64      1.0000 0.28610  0.92050  0.19460  Biso   1.000  H
  C105     1.0000 0.34880  0.83760  0.17924  Biso   1.000  C
  C106     1.0000 0.40130  0.83910  0.16444  Biso   1.000  C
  H65      1.0000 0.42080  0.78420  0.16150  Biso   1.000  H
  C107     1.0000 0.42480  0.92070  0.15409  Biso   1.000  C
  C108     1.0000 0.48400  0.92450  0.14129  Biso   1.000  C
  C109     1.0000 0.54690  0.89360  0.17937  Biso   1.000  C
  H66      1.0000 0.55050  0.86640  0.21050  Biso   1.000  H
  C110     1.0000 0.60370  0.90330  0.17088  Biso   1.000  C
  H67      1.0000 0.64550  0.88370  0.19660  Biso   1.000  H
  C111     1.0000 0.59850  0.94230  0.12402  Biso   1.000  C
  C112     1.0000 0.53620  0.97280  0.08622  Biso   1.000  C
  H68      1.0000 0.53260  0.99950  0.05500  Biso   1.000  H
  C113     1.0000 0.47860  0.96370  0.09477  Biso   1.000  C
  C114     1.0000 0.31330  0.09040  0.18119  Biso   1.000  C
  C115     1.0000 0.32220  0.75070  0.19168  Biso   1.000  C
  C116     1.0000 0.65990  0.95360  0.11464  Biso   1.000  C
  C117     1.0000 0.41300  0.00370  0.05419  Biso   1.000  C
  C118     1.0000 0.18410  0.93100  0.05670  Biso   1.000  C
  H69      1.0000 0.18320  0.90890  0.08740  Biso   1.000  H
  C119     1.0000 0.23780  0.93280  0.04570  Biso   1.000  C
  C120     1.0000 0.15660  0.99050  0.97920  Biso   1.000  C
  H70      1.0000 0.13140  0.01800  0.94650  Biso   1.000  H
  C121     1.0000 0.01380  0.00080  0.95684  Biso   1.000  C
  H71      1.0000 0.02330  0.00150  0.92770  Biso   1.000  H
  C122     1.0000 0.06470  0.98340  0.00659  Biso   1.000  C
  C123     1.0000 0.05150  0.98250  0.05036  Biso   1.000  C
  H72      1.0000 0.08590  0.97090  0.08410  Biso   1.000  H
  C124     1.0000 0.45440  0.17610  0.35273  Biso   1.000  C
  H73      1.0000 0.50010  0.17300  0.36120  Biso   1.000  H
  C125     1.0000 0.40260  0.15860  0.30522  Biso   1.000  C
  H74      1.0000 0.40670  0.14100  0.27500  Biso   1.000  H
  C126     1.0000 0.35970  0.19480  0.35739  Biso   1.000  C
  H75      1.0000 0.32910  0.20720  0.37090  Biso   1.000  H
  C127     1.0000 0.46330  0.22440  0.44103  Biso   1.000  C
  C128     1.0000 0.43470  0.20710  0.47493  Biso   1.000  C
  C129     1.0000 0.53300  0.27360  0.54618  Biso   1.000  C
  C130     1.0000 0.56130  0.28790  0.51208  Biso   1.000  C
  H76      1.0000 0.60400  0.31390  0.52450  Biso   1.000  H
  C131     1.0000 0.52620  0.26370  0.45925  Biso   1.000  C
  H77      1.0000 0.54500  0.27400  0.43600  Biso   1.000  H
  C132     1.0000 0.53930  0.32600  0.63335  Biso   1.000  C
  H78      1.0000 0.49360  0.33230  0.62390  Biso   1.000  H
  C133     1.0000 0.59090  0.34170  0.68140  Biso   1.000  C
  C134     1.0000 0.63480  0.29980  0.63100  Biso   1.000  C
  H79      1.0000 0.66610  0.28480  0.61840  Biso   1.000  H
  C135     1.0000 0.47010  0.23230  0.52836  Biso   1.000  C
  C136     1.0000 0.39490  0.00160  0.15821  Biso   1.000  C
  H80      1.0000 0.39500  0.16900  0.46090  Biso   1.000  H
  H81      1.0000 0.44900  0.21400  0.54820  Biso   1.000  H
  H82      1.0000 0.41170  0.05000  0.14980  Biso   1.000  H
  H83      1.0000 0.59000  0.35600  0.71320  Biso   1.000  H
  H84      1.0000 0.27400  0.91500  0.06200  Biso   1.000  H
  Ni9      1.0000 0.24600  0.82840  0.74428  Biso   1.000  Ni
  Ni10     1.0000 0.28102  0.00577  0.46059  Biso   1.000  Ni
  O33      1.0000 0.32688  0.83501  0.66539  Biso   1.000  O
  O34      1.0000 0.27692  0.91707  0.70439  Biso   1.000  O
  O35      1.0000 0.28698  0.23962  0.71597  Biso   1.000  O
  O36      1.0000 0.33571  0.32498  0.67718  Biso   1.000  O
  O37      1.0000 0.71609  0.07218  0.65146  Biso   1.000  O
  O38      1.0000 0.65278  0.01130  0.57211  Biso   1.000  O
  O39      1.0000 0.36478  0.05038  0.52755  Biso   1.000  O
  O40      1.0000 0.41188  0.91190  0.54990  Biso   1.000  O
  N25      1.0000 0.22033  0.03090  0.49717  Biso   1.000  N
  N26      1.0000 0.13179  0.03190  0.51353  Biso   1.000  N
  N27      1.0000 0.34241  0.82940  0.80790  Biso   1.000  N
  N28      1.0000 0.42720  0.80070  0.88616  Biso   1.000  N
  N29      1.0000 0.56775  0.70100  0.10108  Biso   1.000  N
  N30      1.0000 0.65109  0.67550  0.18056  Biso   1.000  N
  C137     1.0000 0.34360  0.99680  0.67377  Biso   1.000  C
  C138     1.0000 0.32060  0.07940  0.68421  Biso   1.000  C
  H85      1.0000 0.28610  0.07950  0.69460  Biso   1.000  H
  C139     1.0000 0.34880  0.16240  0.67924  Biso   1.000  C
  C140     1.0000 0.40130  0.16090  0.66444  Biso   1.000  C
  H86      1.0000 0.42080  0.21580  0.66150  Biso   1.000  H
  C141     1.0000 0.42480  0.07930  0.65409  Biso   1.000  C
  C142     1.0000 0.48400  0.07550  0.64129  Biso   1.000  C
  C143     1.0000 0.54690  0.10640  0.67937  Biso   1.000  C
  H87      1.0000 0.55050  0.13360  0.71050  Biso   1.000  H
  C144     1.0000 0.60370  0.09670  0.67088  Biso   1.000  C
  H88      1.0000 0.64550  0.11630  0.69660  Biso   1.000  H
  C145     1.0000 0.59850  0.05770  0.62402  Biso   1.000  C
  C146     1.0000 0.53620  0.02720  0.58622  Biso   1.000  C
  H89      1.0000 0.53260  0.00050  0.55500  Biso   1.000  H
  C147     1.0000 0.47860  0.03630  0.59477  Biso   1.000  C
  C148     1.0000 0.31330  0.90960  0.68119  Biso   1.000  C
  C149     1.0000 0.32220  0.24930  0.69168  Biso   1.000  C
  C150     1.0000 0.65990  0.04640  0.61464  Biso   1.000  C
  C151     1.0000 0.41300  0.99630  0.55419  Biso   1.000  C
  C152     1.0000 0.18410  0.06900  0.55670  Biso   1.000  C
  H90      1.0000 0.18320  0.09110  0.58740  Biso   1.000  H
  C153     1.0000 0.23780  0.06720  0.54570  Biso   1.000  C
  C154     1.0000 0.15660  0.00950  0.47920  Biso   1.000  C
  H91      1.0000 0.13140  0.98200  0.44650  Biso   1.000  H
  C155     1.0000 0.01380  0.99920  0.45684  Biso   1.000  C
  H92      1.0000 0.02330  0.99850  0.42770  Biso   1.000  H
  C156     1.0000 0.06470  0.01660  0.50659  Biso   1.000  C
  C157     1.0000 0.05150  0.01750  0.55036  Biso   1.000  C
  H93      1.0000 0.08590  0.02910  0.58410  Biso   1.000  H
  C158     1.0000 0.45440  0.82390  0.85273  Biso   1.000  C
  H94      1.0000 0.50010  0.82700  0.86120  Biso   1.000  H
  C159     1.0000 0.40260  0.84140  0.80522  Biso   1.000  C
  H95      1.0000 0.40670  0.85900  0.77500  Biso   1.000  H
  C160     1.0000 0.35970  0.80520  0.85739  Biso   1.000  C
  H96      1.0000 0.32910  0.79280  0.87090  Biso   1.000  H
  C161     1.0000 0.46330  0.77560  0.94103  Biso   1.000  C
  C162     1.0000 0.43470  0.79290  0.97493  Biso   1.000  C
  C163     1.0000 0.53300  0.72640  0.04618  Biso   1.000  C
  C164     1.0000 0.56130  0.71210  0.01208  Biso   1.000  C
  H97      1.0000 0.60400  0.68610  0.02450  Biso   1.000  H
  C165     1.0000 0.52620  0.73630  0.95925  Biso   1.000  C
  H98      1.0000 0.54500  0.72600  0.93600  Biso   1.000  H
  C166     1.0000 0.53930  0.67400  0.13335  Biso   1.000  C
  H99      1.0000 0.49360  0.66770  0.12390  Biso   1.000  H
  C167     1.0000 0.59090  0.65830  0.18140  Biso   1.000  C
  C168     1.0000 0.63480  0.70020  0.13100  Biso   1.000  C
  H100     1.0000 0.66610  0.71520  0.11840  Biso   1.000  H
  C169     1.0000 0.47010  0.76770  0.02836  Biso   1.000  C
  C170     1.0000 0.39490  0.99840  0.65821  Biso   1.000  C
  H101     1.0000 0.39500  0.83100  0.96090  Biso   1.000  H
  H102     1.0000 0.44900  0.78600  0.04820  Biso   1.000  H
  H103     1.0000 0.41170  0.95000  0.64980  Biso   1.000  H
  H104     1.0000 0.59000  0.64400  0.21320  Biso   1.000  H
  H105     1.0000 0.27400  0.08500  0.56200  Biso   1.000  H
  Ni11     1.0000 0.25400  0.32840  0.75572  Biso   1.000  Ni
  Ni12     1.0000 0.21898  0.50577  0.03941  Biso   1.000  Ni
  O41      1.0000 0.17312  0.33501  0.83461  Biso   1.000  O
  O42      1.0000 0.22308  0.41707  0.79561  Biso   1.000  O
  O43      1.0000 0.21302  0.73962  0.78403  Biso   1.000  O
  O44      1.0000 0.16429  0.82498  0.82282  Biso   1.000  O
  O45      1.0000 0.78391  0.57218  0.84854  Biso   1.000  O
  O46      1.0000 0.84722  0.51130  0.92789  Biso   1.000  O
  O47      1.0000 0.13522  0.55038  0.97245  Biso   1.000  O
  O48      1.0000 0.08812  0.41190  0.95010  Biso   1.000  O
  N31      1.0000 0.27967  0.53090  0.00283  Biso   1.000  N
  N32      1.0000 0.36821  0.53190  0.98647  Biso   1.000  N
  N33      1.0000 0.15759  0.32940  0.69210  Biso   1.000  N
  N34      1.0000 0.07280  0.30070  0.61384  Biso   1.000  N
  N35      1.0000 0.93225  0.20100  0.39892  Biso   1.000  N
  N36      1.0000 0.84891  0.17550  0.31944  Biso   1.000  N
  C171     1.0000 0.15640  0.49680  0.82623  Biso   1.000  C
  C172     1.0000 0.17940  0.57940  0.81579  Biso   1.000  C
  H106     1.0000 0.21390  0.57950  0.80540  Biso   1.000  H
  C173     1.0000 0.15120  0.66240  0.82076  Biso   1.000  C
  C174     1.0000 0.09870  0.66090  0.83556  Biso   1.000  C
  H107     1.0000 0.07920  0.71580  0.83850  Biso   1.000  H
  C175     1.0000 0.07520  0.57930  0.84591  Biso   1.000  C
  C176     1.0000 0.01600  0.57550  0.85871  Biso   1.000  C
  C177     1.0000 0.95310  0.60640  0.82063  Biso   1.000  C
  H108     1.0000 0.94950  0.63360  0.78950  Biso   1.000  H
  C178     1.0000 0.89630  0.59670  0.82912  Biso   1.000  C
  H109     1.0000 0.85450  0.61630  0.80340  Biso   1.000  H
  C179     1.0000 0.90150  0.55770  0.87598  Biso   1.000  C
  C180     1.0000 0.96380  0.52720  0.91378  Biso   1.000  C
  H110     1.0000 0.96740  0.50050  0.94500  Biso   1.000  H
  C181     1.0000 0.02140  0.53630  0.90523  Biso   1.000  C
  C182     1.0000 0.18670  0.40960  0.81881  Biso   1.000  C
  C183     1.0000 0.17780  0.74930  0.80832  Biso   1.000  C
  C184     1.0000 0.84010  0.54640  0.88536  Biso   1.000  C
  C185     1.0000 0.08700  0.49630  0.94581  Biso   1.000  C
  C186     1.0000 0.31590  0.56900  0.94330  Biso   1.000  C
  H111     1.0000 0.31680  0.59110  0.91260  Biso   1.000  H
  C187     1.0000 0.26220  0.56720  0.95430  Biso   1.000  C
  C188     1.0000 0.34340  0.50950  0.02080  Biso   1.000  C
  H112     1.0000 0.36860  0.48200  0.05350  Biso   1.000  H
  C189     1.0000 0.48620  0.49920  0.04316  Biso   1.000  C
  H113     1.0000 0.47670  0.49850  0.07230  Biso   1.000  H
  C190     1.0000 0.43530  0.51660  0.99341  Biso   1.000  C
  C191     1.0000 0.44850  0.51750  0.94964  Biso   1.000  C
  H114     1.0000 0.41410  0.52910  0.91590  Biso   1.000  H
  C192     1.0000 0.04560  0.32390  0.64727  Biso   1.000  C
  H115     1.0000 0.99990  0.32700  0.63880  Biso   1.000  H
  C193     1.0000 0.09740  0.34140  0.69478  Biso   1.000  C
  H116     1.0000 0.09330  0.35900  0.72500  Biso   1.000  H
  C194     1.0000 0.14030  0.30520  0.64261  Biso   1.000  C
  H117     1.0000 0.17090  0.29280  0.62910  Biso   1.000  H
  C195     1.0000 0.03670  0.27560  0.55897  Biso   1.000  C
  C196     1.0000 0.06530  0.29290  0.52507  Biso   1.000  C
  C197     1.0000 0.96700  0.22640  0.45382  Biso   1.000  C
  C198     1.0000 0.93870  0.21210  0.48792  Biso   1.000  C
  H118     1.0000 0.89600  0.18610  0.47550  Biso   1.000  H
  C199     1.0000 0.97380  0.23630  0.54075  Biso   1.000  C
  H119     1.0000 0.95500  0.22600  0.56400  Biso   1.000  H
  C200     1.0000 0.96070  0.17400  0.36665  Biso   1.000  C
  H120     1.0000 0.00640  0.16770  0.37610  Biso   1.000  H
  C201     1.0000 0.90910  0.15830  0.31860  Biso   1.000  C
  C202     1.0000 0.86520  0.20020  0.36900  Biso   1.000  C
  H121     1.0000 0.83390  0.21520  0.38160  Biso   1.000  H
  C203     1.0000 0.02990  0.26770  0.47164  Biso   1.000  C
  C204     1.0000 0.10510  0.49840  0.84179  Biso   1.000  C
  H122     1.0000 0.10500  0.33100  0.53910  Biso   1.000  H
  H123     1.0000 0.05100  0.28600  0.45180  Biso   1.000  H
  H124     1.0000 0.08830  0.45000  0.85020  Biso   1.000  H
  H125     1.0000 0.91000  0.14400  0.28680  Biso   1.000  H
  H126     1.0000 0.22600  0.58500  0.93800  Biso   1.000  H
  Ni13     1.0000 0.75400  0.17160  0.25572  Biso   1.000  Ni
  Ni14     1.0000 0.71898  0.99423  0.53941  Biso   1.000  Ni
  O49      1.0000 0.67312  0.16499  0.33461  Biso   1.000  O
  O50      1.0000 0.72308  0.08293  0.29561  Biso   1.000  O
  O51      1.0000 0.71302  0.76038  0.28403  Biso   1.000  O
  O52      1.0000 0.66429  0.67502  0.32282  Biso   1.000  O
  O53      1.0000 0.28391  0.92782  0.34854  Biso   1.000  O
  O54      1.0000 0.34722  0.98870  0.42789  Biso   1.000  O
  O55      1.0000 0.63522  0.94962  0.47245  Biso   1.000  O
  O56      1.0000 0.58812  0.08810  0.45010  Biso   1.000  O
  N37      1.0000 0.77967  0.96910  0.50283  Biso   1.000  N
  N38      1.0000 0.86821  0.96810  0.48647  Biso   1.000  N
  N39      1.0000 0.65759  0.17060  0.19210  Biso   1.000  N
  N40      1.0000 0.57280  0.19930  0.11384  Biso   1.000  N
  N41      1.0000 0.43225  0.29900  0.89892  Biso   1.000  N
  N42      1.0000 0.34891  0.32450  0.81944  Biso   1.000  N
  C205     1.0000 0.65640  0.00320  0.32623  Biso   1.000  C
  C206     1.0000 0.67940  0.92060  0.31579  Biso   1.000  C
  H127     1.0000 0.71390  0.92050  0.30540  Biso   1.000  H
  C207     1.0000 0.65120  0.83760  0.32076  Biso   1.000  C
  C208     1.0000 0.59870  0.83910  0.33556  Biso   1.000  C
  H128     1.0000 0.57920  0.78420  0.33850  Biso   1.000  H
  C209     1.0000 0.57520  0.92070  0.34591  Biso   1.000  C
  C210     1.0000 0.51600  0.92450  0.35871  Biso   1.000  C
  C211     1.0000 0.45310  0.89360  0.32063  Biso   1.000  C
  H129     1.0000 0.44950  0.86640  0.28950  Biso   1.000  H
  C212     1.0000 0.39630  0.90330  0.32912  Biso   1.000  C
  H130     1.0000 0.35450  0.88370  0.30340  Biso   1.000  H
  C213     1.0000 0.40150  0.94230  0.37598  Biso   1.000  C
  C214     1.0000 0.46380  0.97280  0.41378  Biso   1.000  C
  H131     1.0000 0.46740  0.99950  0.44500  Biso   1.000  H
  C215     1.0000 0.52140  0.96370  0.40523  Biso   1.000  C
  C216     1.0000 0.68670  0.09040  0.31881  Biso   1.000  C
  C217     1.0000 0.67780  0.75070  0.30832  Biso   1.000  C
  C218     1.0000 0.34010  0.95360  0.38536  Biso   1.000  C
  C219     1.0000 0.58700  0.00370  0.44581  Biso   1.000  C
  C220     1.0000 0.81590  0.93100  0.44330  Biso   1.000  C
  H132     1.0000 0.81680  0.90890  0.41260  Biso   1.000  H
  C221     1.0000 0.76220  0.93280  0.45430  Biso   1.000  C
  C222     1.0000 0.84340  0.99050  0.52080  Biso   1.000  C
  H133     1.0000 0.86860  0.01800  0.55350  Biso   1.000  H
  C223     1.0000 0.98620  0.00080  0.54316  Biso   1.000  C
  H134     1.0000 0.97670  0.00150  0.57230  Biso   1.000  H
  C224     1.0000 0.93530  0.98340  0.49341  Biso   1.000  C
  C225     1.0000 0.94850  0.98250  0.44964  Biso   1.000  C
  H135     1.0000 0.91410  0.97090  0.41590  Biso   1.000  H
  C226     1.0000 0.54560  0.17610  0.14727  Biso   1.000  C
  H136     1.0000 0.49990  0.17300  0.13880  Biso   1.000  H
  C227     1.0000 0.59740  0.15860  0.19478  Biso   1.000  C
  H137     1.0000 0.59330  0.14100  0.22500  Biso   1.000  H
  C228     1.0000 0.64030  0.19480  0.14261  Biso   1.000  C
  H138     1.0000 0.67090  0.20720  0.12910  Biso   1.000  H
  C229     1.0000 0.53670  0.22440  0.05897  Biso   1.000  C
  C230     1.0000 0.56530  0.20710  0.02507  Biso   1.000  C
  C231     1.0000 0.46700  0.27360  0.95382  Biso   1.000  C
  C232     1.0000 0.43870  0.28790  0.98792  Biso   1.000  C
  H139     1.0000 0.39600  0.31390  0.97550  Biso   1.000  H
  C233     1.0000 0.47380  0.26370  0.04075  Biso   1.000  C
  H140     1.0000 0.45500  0.27400  0.06400  Biso   1.000  H
  C234     1.0000 0.46070  0.32600  0.86665  Biso   1.000  C
  H141     1.0000 0.50640  0.33230  0.87610  Biso   1.000  H
  C235     1.0000 0.40910  0.34170  0.81860  Biso   1.000  C
  C236     1.0000 0.36520  0.29980  0.86900  Biso   1.000  C
  H142     1.0000 0.33390  0.28480  0.88160  Biso   1.000  H
  C237     1.0000 0.52990  0.23230  0.97164  Biso   1.000  C
  C238     1.0000 0.60510  0.00160  0.34179  Biso   1.000  C
  H143     1.0000 0.60500  0.16900  0.03910  Biso   1.000  H
  H144     1.0000 0.55100  0.21400  0.95180  Biso   1.000  H
  H145     1.0000 0.58830  0.05000  0.35020  Biso   1.000  H
  H146     1.0000 0.41000  0.35600  0.78680  Biso   1.000  H
  H147     1.0000 0.72600  0.91500  0.43800  Biso   1.000  H
  Ni15     1.0000 0.74600  0.67160  0.24428  Biso   1.000  Ni
  Ni16     1.0000 0.78102  0.49423  0.96059  Biso   1.000  Ni
  O57      1.0000 0.82688  0.66499  0.16539  Biso   1.000  O
  O58      1.0000 0.77692  0.58293  0.20439  Biso   1.000  O
  O59      1.0000 0.78698  0.26038  0.21597  Biso   1.000  O
  O60      1.0000 0.83571  0.17502  0.17718  Biso   1.000  O
  O61      1.0000 0.21609  0.42782  0.15146  Biso   1.000  O
  O62      1.0000 0.15278  0.48870  0.07211  Biso   1.000  O
  O63      1.0000 0.86478  0.44962  0.02755  Biso   1.000  O
  O64      1.0000 0.91188  0.58810  0.04990  Biso   1.000  O
  N43      1.0000 0.72033  0.46910  0.99717  Biso   1.000  N
  N44      1.0000 0.63179  0.46810  0.01353  Biso   1.000  N
  N45      1.0000 0.84241  0.67060  0.30790  Biso   1.000  N
  N46      1.0000 0.92720  0.69930  0.38616  Biso   1.000  N
  N47      1.0000 0.06775  0.79900  0.60108  Biso   1.000  N
  N48      1.0000 0.15109  0.82450  0.68056  Biso   1.000  N
  C239     1.0000 0.84360  0.50320  0.17377  Biso   1.000  C
  C240     1.0000 0.82060  0.42060  0.18421  Biso   1.000  C
  H148     1.0000 0.78610  0.42050  0.19460  Biso   1.000  H
  C241     1.0000 0.84880  0.33760  0.17924  Biso   1.000  C
  C242     1.0000 0.90130  0.33910  0.16444  Biso   1.000  C
  H149     1.0000 0.92080  0.28420  0.16150  Biso   1.000  H
  C243     1.0000 0.92480  0.42070  0.15409  Biso   1.000  C
  C244     1.0000 0.98400  0.42450  0.14129  Biso   1.000  C
  C245     1.0000 0.04690  0.39360  0.17937  Biso   1.000  C
  H150     1.0000 0.05050  0.36640  0.21050  Biso   1.000  H
  C246     1.0000 0.10370  0.40330  0.17088  Biso   1.000  C
  H151     1.0000 0.14550  0.38370  0.19660  Biso   1.000  H
  C247     1.0000 0.09850  0.44230  0.12402  Biso   1.000  C
  C248     1.0000 0.03620  0.47280  0.08622  Biso   1.000  C
  H152     1.0000 0.03260  0.49950  0.05500  Biso   1.000  H
  C249     1.0000 0.97860  0.46370  0.09477  Biso   1.000  C
  C250     1.0000 0.81330  0.59040  0.18119  Biso   1.000  C
  C251     1.0000 0.82220  0.25070  0.19168  Biso   1.000  C
  C252     1.0000 0.15990  0.45360  0.11464  Biso   1.000  C
  C253     1.0000 0.91300  0.50370  0.05419  Biso   1.000  C
  C254     1.0000 0.68410  0.43100  0.05670  Biso   1.000  C
  H153     1.0000 0.68320  0.40890  0.08740  Biso   1.000  H
  C255     1.0000 0.73780  0.43280  0.04570  Biso   1.000  C
  C256     1.0000 0.65660  0.49050  0.97920  Biso   1.000  C
  H154     1.0000 0.63140  0.51800  0.94650  Biso   1.000  H
  C257     1.0000 0.51380  0.50080  0.95684  Biso   1.000  C
  H155     1.0000 0.52330  0.50150  0.92770  Biso   1.000  H
  C258     1.0000 0.56470  0.48340  0.00659  Biso   1.000  C
  C259     1.0000 0.55150  0.48250  0.05036  Biso   1.000  C
  H156     1.0000 0.58590  0.47090  0.08410  Biso   1.000  H
  C260     1.0000 0.95440  0.67610  0.35273  Biso   1.000  C
  H157     1.0000 0.00010  0.67300  0.36120  Biso   1.000  H
  C261     1.0000 0.90260  0.65860  0.30522  Biso   1.000  C
  H158     1.0000 0.90670  0.64100  0.27500  Biso   1.000  H
  C262     1.0000 0.85970  0.69480  0.35739  Biso   1.000  C
  H159     1.0000 0.82910  0.70720  0.37090  Biso   1.000  H
  C263     1.0000 0.96330  0.72440  0.44103  Biso   1.000  C
  C264     1.0000 0.93470  0.70710  0.47493  Biso   1.000  C
  C265     1.0000 0.03300  0.77360  0.54618  Biso   1.000  C
  C266     1.0000 0.06130  0.78790  0.51208  Biso   1.000  C
  H160     1.0000 0.10400  0.81390  0.52450  Biso   1.000  H
  C267     1.0000 0.02620  0.76370  0.45925  Biso   1.000  C
  H161     1.0000 0.04500  0.77400  0.43600  Biso   1.000  H
  C268     1.0000 0.03930  0.82600  0.63335  Biso   1.000  C
  H162     1.0000 0.99360  0.83230  0.62390  Biso   1.000  H
  C269     1.0000 0.09090  0.84170  0.68140  Biso   1.000  C
  C270     1.0000 0.13480  0.79980  0.63100  Biso   1.000  C
  H163     1.0000 0.16610  0.78480  0.61840  Biso   1.000  H
  C271     1.0000 0.97010  0.73230  0.52836  Biso   1.000  C
  C272     1.0000 0.89490  0.50160  0.15821  Biso   1.000  C
  H164     1.0000 0.89500  0.66900  0.46090  Biso   1.000  H
  H165     1.0000 0.94900  0.71400  0.54820  Biso   1.000  H
  H166     1.0000 0.91170  0.55000  0.14980  Biso   1.000  H
  H167     1.0000 0.09000  0.85600  0.71320  Biso   1.000  H
  H168     1.0000 0.77400  0.41500  0.06200  Biso   1.000  H
