data_ZOXTEN_clean
_audit_creation_date              2015-10-16
_audit_creation_method            'Materials Studio'
_symmetry_space_group_name_H-M    'P1'
_symmetry_Int_Tables_number       1
_symmetry_cell_setting            triclinic
loop_
_symmetry_equiv_pos_as_xyz
  x,y,z
_cell_length_a                    9.1774
_cell_length_b                    12.9368
_cell_length_c                    18.5023
_cell_angle_alpha                 71.9500
_cell_angle_beta                  75.6403
_cell_angle_gamma                 69.2248
loop_
_atom_site_label
_atom_site_type_symbol
_atom_site_fract_x
_atom_site_fract_y
_atom_site_fract_z
_atom_site_U_iso_or_equiv
_atom_site_adp_type
_atom_site_occupancy
Ho1    Ho    0.23606   0.41166   0.50514   0.01267  Uiso   1.00
Ho2    Ho    0.76394   0.58834   0.49486   0.01267  Uiso   1.00
Ho3    Ho    0.84714   0.91166   0.00514   0.01267  Uiso   1.00
Ho4    Ho    0.15286   0.08834   0.99486   0.01267  Uiso   1.00
Zn1    Zn    0.79948   0.08902   0.33532   0.01267  Uiso   1.00
Zn2    Zn    0.77618   0.58902   0.83532   0.01267  Uiso   1.00
Zn3    Zn    0.20052   0.91098   0.66468   0.01267  Uiso   1.00
Zn4    Zn    0.22382   0.41098   0.16468   0.01267  Uiso   1.00
H1     H     0.75750   0.95420   0.64840   0.01267  Uiso   1.00
H2     H     0.73360   0.19300   0.53540   0.01267  Uiso   1.00
H3     H     0.10990   0.10740   0.40940   0.01267  Uiso   1.00
H4     H     0.36470   0.80290   0.87110   0.01267  Uiso   1.00
H5     H     0.49630   0.14340   0.15900   0.01267  Uiso   1.00
H6     H     0.63990   0.45420   0.14840   0.01267  Uiso   1.00
H7     H     0.96130   0.30290   0.37110   0.01267  Uiso   1.00
H8     H     0.37330   0.60740   0.90940   0.01267  Uiso   1.00
H9     H     0.50370   0.85660   0.84100   0.01267  Uiso   1.00
H10    H     0.34430   0.91860   0.80820   0.01267  Uiso   1.00
H11    H     0.46200   0.30700   0.96460   0.01267  Uiso   1.00
H12    H     0.24250   0.04580   0.35160   0.01267  Uiso   1.00
H13    H     0.63530   0.19710   0.12890   0.01267  Uiso   1.00
H14    H     0.07110   0.58140   0.69180   0.01267  Uiso   1.00
H15    H     0.36010   0.54580   0.85160   0.01267  Uiso   1.00
H16    H     0.71140   0.48740   0.06140   0.01267  Uiso   1.00
H17    H     0.26640   0.80700   0.46460   0.01267  Uiso   1.00
H18    H     0.20130   0.64340   0.65900   0.01267  Uiso   1.00
H19    H     0.92890   0.41860   0.30820   0.01267  Uiso   1.00
H20    H     0.28860   0.51260   0.93860   0.01267  Uiso   1.00
H21    H     0.62670   0.39260   0.09060   0.01267  Uiso   1.00
H22    H     0.89010   0.89260   0.59060   0.01267  Uiso   1.00
H23    H     0.26020   0.01260   0.43860   0.01267  Uiso   1.00
H24    H     0.73980   0.98740   0.56140   0.01267  Uiso   1.00
H25    H     0.65570   0.08140   0.19180   0.01267  Uiso   1.00
H26    H     0.53800   0.69300   0.03540   0.01267  Uiso   1.00
H27    H     0.79870   0.35660   0.34100   0.01267  Uiso   1.00
H28    H     0.03870   0.69710   0.62890   0.01267  Uiso   1.00
C1     C     0.75570   0.55900   0.68580   0.01267  Uiso   1.00
C2     C     0.97440   0.28220   0.26540   0.01267  Uiso   1.00
C3     C     0.30370   0.72100   0.04280   0.01267  Uiso   1.00
C4     C     0.02150   0.15800   0.20020   0.01267  Uiso   1.00
C5     C     0.78150   0.85930   0.42070   0.01267  Uiso   1.00
C6     C     0.24430   0.44100   0.31420   0.01267  Uiso   1.00
C7     C     0.47430   0.55140   0.08080   0.01267  Uiso   1.00
C8     C     0.21850   0.14070   0.57930   0.01267  Uiso   1.00
C9     C     0.44340   0.73840   0.59200   0.01267  Uiso   1.00
C10    C     0.62030   0.65800   0.70020   0.01267  Uiso   1.00
C11    C     0.00050   0.94100   0.81420   0.01267  Uiso   1.00
C12    C     0.62640   0.46370   0.09670   0.01267  Uiso   1.00
C13    C     0.89220   0.76790   0.83850   0.01267  Uiso   1.00
C14    C     0.58270   0.15430   0.17310   0.01267  Uiso   1.00
C15    C     0.91010   0.34570   0.32690   0.01267  Uiso   1.00
C16    C     0.69630   0.27900   0.95720   0.01267  Uiso   1.00
C17    C     0.88370   0.34630   0.51990   0.01267  Uiso   1.00
C18    C     0.77240   0.36040   0.92900   0.01267  Uiso   1.00
C19    C     0.06150   0.64070   0.07930   0.01267  Uiso   1.00
C20    C     0.89350   0.05140   0.58080   0.01267  Uiso   1.00
C21    C     0.06180   0.13960   0.57100   0.01267  Uiso   1.00
C22    C     0.99950   0.05900   0.18580   0.01267  Uiso   1.00
C23    C     0.81320   0.96370   0.59670   0.01267  Uiso   1.00
C24    C     0.22620   0.23840   0.09200   0.01267  Uiso   1.00
C25    C     0.37360   0.53630   0.90330   0.01267  Uiso   1.00
C26    C     0.18680   0.03630   0.40330   0.01267  Uiso   1.00
C27    C     0.10650   0.94860   0.41920   0.01267  Uiso   1.00
C28    C     0.77380   0.76160   0.90800   0.01267  Uiso   1.00
C29    C     0.08990   0.65430   0.67310   0.01267  Uiso   1.00
C30    C     0.74990   0.15370   0.98010   0.01267  Uiso   1.00
C31    C     0.49860   0.73210   0.66150   0.01267  Uiso   1.00
C32    C     0.55660   0.26160   0.40800   0.01267  Uiso   1.00
C33    C     0.50140   0.26790   0.33850   0.01267  Uiso   1.00
C34    C     0.10780   0.23210   0.16150   0.01267  Uiso   1.00
C35    C     0.47800   0.78220   0.76540   0.01267  Uiso   1.00
C36    C     0.93820   0.86040   0.42900   0.01267  Uiso   1.00
C37    C     0.93250   0.22100   0.54280   0.01267  Uiso   1.00
C38    C     0.37970   0.34200   0.29980   0.01267  Uiso   1.00
C39    C     0.25010   0.84630   0.01990   0.01267  Uiso   1.00
C40    C     0.41730   0.84570   0.82690   0.01267  Uiso   1.00
C41    C     0.52570   0.44860   0.91920   0.01267  Uiso   1.00
C42    C     0.93850   0.35930   0.92070   0.01267  Uiso   1.00
C43    C     0.22760   0.63960   0.07100   0.01267  Uiso   1.00
C44    C     0.11630   0.65370   0.48010   0.01267  Uiso   1.00
C45    C     0.02560   0.71780   0.73460   0.01267  Uiso   1.00
C46    C     0.52200   0.21780   0.23460   0.01267  Uiso   1.00
C47    C     0.97850   0.84200   0.79980   0.01267  Uiso   1.00
C48    C     0.06750   0.77900   0.45720   0.01267  Uiso   1.00
N1     N     0.82770   0.16260   0.54940   0.01267  Uiso   1.00
N2     N     0.03490   0.03460   0.59580   0.01267  Uiso   1.00
N3     N     0.17230   0.83740   0.45060   0.01267  Uiso   1.00
N4     N     0.53970   0.33740   0.95060   0.01267  Uiso   1.00
N5     N     0.66530   0.46540   0.90420   0.01267  Uiso   1.00
N6     N     0.33470   0.53460   0.09580   0.01267  Uiso   1.00
N7     N     0.40845   0.80980   0.70390   0.01267  Uiso   1.00
N8     N     0.06250   0.80990   0.73330   0.01267  Uiso   1.00
N9     N     0.59155   0.19020   0.29610   0.01267  Uiso   1.00
N10    N     0.93750   0.19010   0.26670   0.01267  Uiso   1.00
N11    N     0.46030   0.66260   0.04940   0.01267  Uiso   1.00
N12    N     0.96510   0.96540   0.40420   0.01267  Uiso   1.00
N13    N     0.60570   0.69010   0.76670   0.01267  Uiso   1.00
N14    N     0.07785   0.30980   0.20390   0.01267  Uiso   1.00
N15    N     0.39430   0.30990   0.23330   0.01267  Uiso   1.00
N16    N     0.92215   0.69020   0.79610   0.01267  Uiso   1.00
O1     O     0.73964   0.39912   0.51740   0.01267  Uiso   1.00
O2     O     0.07728   0.99654   0.76150   0.01267  Uiso   1.00
O3     O     0.92272   0.00346   0.23850   0.01267  Uiso   1.00
O4     O     0.83532   0.50346   0.73850   0.01267  Uiso   1.00
O5     O     0.29830   0.05250   0.61890   0.01267  Uiso   1.00
O6     O     0.48461   0.33668   0.44610   0.01267  Uiso   1.00
O7     O     0.28721   0.31758   0.07400   0.01267  Uiso   1.00
O8     O     0.01967   0.59876   0.49530   0.01267  Uiso   1.00
O9     O     0.71279   0.68242   0.92600   0.01267  Uiso   1.00
O10    O     0.94567   0.96656   0.87830   0.01267  Uiso   1.00
O11    O     0.26739   0.16332   0.05390   0.01267  Uiso   1.00
O12    O     0.11373   0.90124   0.00470   0.01267  Uiso   1.00
O13    O     0.03030   0.55250   0.11890   0.01267  Uiso   1.00
O14    O     0.98033   0.40124   0.50470   0.01267  Uiso   1.00
O15    O     0.88627   0.09876   0.99530   0.01267  Uiso   1.00
O16    O     0.26350   0.22650   0.54450   0.01267  Uiso   1.00
O17    O     0.32121   0.81758   0.57400   0.01267  Uiso   1.00
O18    O     0.79053   0.53344   0.62170   0.01267  Uiso   1.00
O19    O     0.05433   0.03344   0.12170   0.01267  Uiso   1.00
O20    O     0.26036   0.60088   0.48260   0.01267  Uiso   1.00
O21    O     0.73650   0.77350   0.45550   0.01267  Uiso   1.00
O22    O     0.73261   0.83668   0.94610   0.01267  Uiso   1.00
O23    O     0.96970   0.44750   0.88110   0.01267  Uiso   1.00
O24    O     0.51539   0.66332   0.55390   0.01267  Uiso   1.00
O25    O     0.96550   0.72650   0.04450   0.01267  Uiso   1.00
O26    O     0.20947   0.46656   0.37830   0.01267  Uiso   1.00
O27    O     0.16468   0.49654   0.26150   0.01267  Uiso   1.00
O28    O     0.03450   0.27350   0.95550   0.01267  Uiso   1.00
O29    O     0.70170   0.94750   0.38110   0.01267  Uiso   1.00
O30    O     0.65616   0.10088   0.98260   0.01267  Uiso   1.00
O31    O     0.34384   0.89912   0.01740   0.01267  Uiso   1.00
O32    O     0.67879   0.18242   0.42600   0.01267  Uiso   1.00
