data_ZOXTOX_clean
_audit_creation_date              2015-10-16
_audit_creation_method            'Materials Studio'
_symmetry_space_group_name_H-M    'P1'
_symmetry_Int_Tables_number       1
_symmetry_cell_setting            triclinic
loop_
_symmetry_equiv_pos_as_xyz
  x,y,z
_cell_length_a                    9.1789
_cell_length_b                    12.9292
_cell_length_c                    18.4453
_cell_angle_alpha                 71.9983
_cell_angle_beta                  75.5927
_cell_angle_gamma                 69.2085
loop_
_atom_site_label
_atom_site_type_symbol
_atom_site_fract_x
_atom_site_fract_y
_atom_site_fract_z
_atom_site_U_iso_or_equiv
_atom_site_adp_type
_atom_site_occupancy
Yb1    Yb    0.84903   0.91163   0.00413   0.01267  Uiso   1.00
Yb2    Yb    0.15097   0.08837   0.99587   0.01267  Uiso   1.00
Yb3    Yb    0.76479   0.58837   0.49587   0.01267  Uiso   1.00
Yb4    Yb    0.23521   0.41163   0.50413   0.01267  Uiso   1.00
Zn1    Zn    0.77873   0.58843   0.83675   0.01267  Uiso   1.00
Zn2    Zn    0.79609   0.08843   0.33675   0.01267  Uiso   1.00
Zn3    Zn    0.20391   0.91157   0.66325   0.01267  Uiso   1.00
Zn4    Zn    0.22127   0.41157   0.16325   0.01267  Uiso   1.00
H1     H     0.26280   0.01380   0.43520   0.01267  Uiso   1.00
H2     H     0.50180   0.17780   0.13940   0.01267  Uiso   1.00
H3     H     0.88900   0.89230   0.59310   0.01267  Uiso   1.00
H4     H     0.40330   0.92760   0.80320   0.01267  Uiso   1.00
H5     H     0.26920   0.80550   0.46250   0.01267  Uiso   1.00
H6     H     0.67500   0.16610   0.14470   0.01267  Uiso   1.00
H7     H     0.73080   0.19450   0.53750   0.01267  Uiso   1.00
H8     H     0.24210   0.04580   0.34840   0.01267  Uiso   1.00
H9     H     0.86590   0.42760   0.30320   0.01267  Uiso   1.00
H10    H     0.73720   0.98620   0.56480   0.01267  Uiso   1.00
H11    H     0.53720   0.69450   0.03750   0.01267  Uiso   1.00
H12    H     0.36370   0.54580   0.84840   0.01267  Uiso   1.00
H13    H     0.01420   0.66610   0.64470   0.01267  Uiso   1.00
H14    H     0.49820   0.82220   0.86060   0.01267  Uiso   1.00
H15    H     0.46280   0.30550   0.96250   0.01267  Uiso   1.00
H16    H     0.81900   0.32220   0.36060   0.01267  Uiso   1.00
H17    H     0.59670   0.07240   0.19680   0.01267  Uiso   1.00
H18    H     0.75790   0.95420   0.65160   0.01267  Uiso   1.00
H19    H     0.63630   0.45420   0.15160   0.01267  Uiso   1.00
H20    H     0.28820   0.51380   0.93520   0.01267  Uiso   1.00
H21    H     0.11100   0.10770   0.40690   0.01267  Uiso   1.00
H22    H     0.32500   0.83390   0.85530   0.01267  Uiso   1.00
H23    H     0.71180   0.48620   0.06480   0.01267  Uiso   1.00
H24    H     0.18100   0.67780   0.63940   0.01267  Uiso   1.00
H25    H     0.98580   0.33390   0.35530   0.01267  Uiso   1.00
H26    H     0.62560   0.39230   0.09310   0.01267  Uiso   1.00
H27    H     0.13410   0.57240   0.69680   0.01267  Uiso   1.00
H28    H     0.37440   0.60770   0.90690   0.01267  Uiso   1.00
C1     C     0.62467   0.65776   0.70090   0.01267  Uiso   1.00
C2     C     0.81190   0.96320   0.59940   0.01267  Uiso   1.00
C3     C     0.30503   0.72174   0.04220   0.01267  Uiso   1.00
C4     C     0.22820   0.63960   0.06960   0.01267  Uiso   1.00
C5     C     0.44684   0.73622   0.59130   0.01267  Uiso   1.00
C6     C     0.78001   0.85858   0.42400   0.01267  Uiso   1.00
C7     C     0.74958   0.15254   0.97930   0.01267  Uiso   1.00
C8     C     0.62550   0.46320   0.09940   0.01267  Uiso   1.00
C9     C     0.06260   0.13960   0.56960   0.01267  Uiso   1.00
C10    C     0.93740   0.86040   0.43040   0.01267  Uiso   1.00
C11    C     0.06259   0.64142   0.07600   0.01267  Uiso   1.00
C12    C     0.77436   0.76378   0.90870   0.01267  Uiso   1.00
C13    C     0.10810   0.94790   0.41830   0.01267  Uiso   1.00
C14    C     0.37533   0.34224   0.29910   0.01267  Uiso   1.00
C15    C     0.57810   0.15250   0.17350   0.01267  Uiso   1.00
C16    C     0.99656   0.05748   0.18660   0.01267  Uiso   1.00
C17    C     0.11858   0.65254   0.47930   0.01267  Uiso   1.00
C18    C     0.25042   0.84746   0.02070   0.01267  Uiso   1.00
C19    C     0.89190   0.05210   0.58170   0.01267  Uiso   1.00
C20    C     0.24064   0.44252   0.31340   0.01267  Uiso   1.00
C21    C     0.88142   0.34746   0.52070   0.01267  Uiso   1.00
C22    C     0.51737   0.21646   0.23460   0.01267  Uiso   1.00
C23    C     0.00344   0.94252   0.81340   0.01267  Uiso   1.00
C24    C     0.96843   0.28354   0.26540   0.01267  Uiso   1.00
C25    C     0.18810   0.03680   0.40060   0.01267  Uiso   1.00
C26    C     0.90410   0.34750   0.32650   0.01267  Uiso   1.00
C27    C     0.09590   0.65250   0.67350   0.01267  Uiso   1.00
C28    C     0.48263   0.78354   0.76540   0.01267  Uiso   1.00
C29    C     0.75936   0.55748   0.68660   0.01267  Uiso   1.00
C30    C     0.22564   0.23622   0.09130   0.01267  Uiso   1.00
C31    C     0.89547   0.76796   0.83870   0.01267  Uiso   1.00
C32    C     0.98333   0.84224   0.79910   0.01267  Uiso   1.00
C33    C     0.49787   0.26796   0.33870   0.01267  Uiso   1.00
C34    C     0.03157   0.71646   0.73460   0.01267  Uiso   1.00
C35    C     0.93741   0.35858   0.92400   0.01267  Uiso   1.00
C36    C     0.77180   0.36040   0.93040   0.01267  Uiso   1.00
C37    C     0.52570   0.44790   0.91830   0.01267  Uiso   1.00
C38    C     0.10453   0.23204   0.16130   0.01267  Uiso   1.00
C39    C     0.50213   0.73204   0.66130   0.01267  Uiso   1.00
C40    C     0.69497   0.27826   0.95780   0.01267  Uiso   1.00
C41    C     0.55316   0.26378   0.40870   0.01267  Uiso   1.00
C42    C     0.37450   0.53680   0.90060   0.01267  Uiso   1.00
C43    C     0.06897   0.77826   0.45780   0.01267  Uiso   1.00
C44    C     0.42190   0.84750   0.82650   0.01267  Uiso   1.00
C45    C     0.01667   0.15776   0.20090   0.01267  Uiso   1.00
C46    C     0.93103   0.22174   0.54220   0.01267  Uiso   1.00
C47    C     0.47430   0.55210   0.08170   0.01267  Uiso   1.00
C48    C     0.21999   0.14142   0.57600   0.01267  Uiso   1.00
N1     N     0.92696   0.68923   0.79665   0.01267  Uiso   1.00
N2     N     0.07304   0.31077   0.20335   0.01267  Uiso   1.00
N3     N     0.17414   0.83622   0.44950   0.01267  Uiso   1.00
N4     N     0.82586   0.16378   0.55050   0.01267  Uiso   1.00
N5     N     0.33477   0.53490   0.09476   0.01267  Uiso   1.00
N6     N     0.66523   0.46510   0.90524   0.01267  Uiso   1.00
N7     N     0.06684   0.80926   0.73346   0.01267  Uiso   1.00
N8     N     0.45986   0.66378   0.05050   0.01267  Uiso   1.00
N9     N     0.93316   0.19074   0.26654   0.01267  Uiso   1.00
N10    N     0.60956   0.69074   0.76654   0.01267  Uiso   1.00
N11    N     0.39044   0.30926   0.23346   0.01267  Uiso   1.00
N12    N     0.54014   0.33622   0.94950   0.01267  Uiso   1.00
N13    N     0.96443   0.96510   0.40524   0.01267  Uiso   1.00
N14    N     0.41284   0.81077   0.70335   0.01267  Uiso   1.00
N15    N     0.58716   0.18923   0.29665   0.01267  Uiso   1.00
N16    N     0.03557   0.03490   0.59476   0.01267  Uiso   1.00
O1     O     0.05260   0.03201   0.12139   0.01267  Uiso   1.00
O2     O     0.94740   0.96799   0.87861   0.01267  Uiso   1.00
O3     O     0.02025   0.59735   0.49615   0.01267  Uiso   1.00
O4     O     0.73657   0.40106   0.51940   0.01267  Uiso   1.00
O5     O     0.97067   0.44640   0.88426   0.01267  Uiso   1.00
O6     O     0.71384   0.68440   0.92712   0.01267  Uiso   1.00
O7     O     0.26854   0.15886   0.05526   0.01267  Uiso   1.00
O8     O     0.69867   0.94640   0.38426   0.01267  Uiso   1.00
O9     O     0.83821   0.50163   0.73975   0.01267  Uiso   1.00
O10    O     0.11375   0.90265   0.00385   0.01267  Uiso   1.00
O11    O     0.02933   0.55360   0.11574   0.01267  Uiso   1.00
O12    O     0.88625   0.09735   0.99615   0.01267  Uiso   1.00
O13    O     0.32536   0.81560   0.57288   0.01267  Uiso   1.00
O14    O     0.26539   0.22802   0.54040   0.01267  Uiso   1.00
O15    O     0.96619   0.72802   0.04040   0.01267  Uiso   1.00
O16    O     0.34297   0.90106   0.01940   0.01267  Uiso   1.00
O17    O     0.30133   0.05360   0.61574   0.01267  Uiso   1.00
O18    O     0.03381   0.27198   0.95960   0.01267  Uiso   1.00
O19    O     0.48266   0.34114   0.44474   0.01267  Uiso   1.00
O20    O     0.65703   0.09894   0.98060   0.01267  Uiso   1.00
O21    O     0.73146   0.84114   0.94474   0.01267  Uiso   1.00
O22    O     0.28616   0.31560   0.07288   0.01267  Uiso   1.00
O23    O     0.20600   0.46799   0.37861   0.01267  Uiso   1.00
O24    O     0.97975   0.40265   0.50385   0.01267  Uiso   1.00
O25    O     0.79400   0.53201   0.62139   0.01267  Uiso   1.00
O26    O     0.26343   0.59894   0.48060   0.01267  Uiso   1.00
O27    O     0.92041   0.00163   0.23975   0.01267  Uiso   1.00
O28    O     0.73461   0.77198   0.45960   0.01267  Uiso   1.00
O29    O     0.07959   0.99837   0.76025   0.01267  Uiso   1.00
O30    O     0.16179   0.49837   0.26025   0.01267  Uiso   1.00
O31    O     0.67464   0.18440   0.42712   0.01267  Uiso   1.00
O32    O     0.51734   0.65886   0.55526   0.01267  Uiso   1.00
