data_ZOXTUD_clean
_audit_creation_date              2015-10-16
_audit_creation_method            'Materials Studio'
_symmetry_space_group_name_H-M    'P1'
_symmetry_Int_Tables_number       1
_symmetry_cell_setting            triclinic
loop_
_symmetry_equiv_pos_as_xyz
  x,y,z
_cell_length_a                    9.1443
_cell_length_b                    13.0000
_cell_length_c                    18.4086
_cell_angle_alpha                 72.4351
_cell_angle_beta                  75.6190
_cell_angle_gamma                 69.4085
loop_
_atom_site_label
_atom_site_type_symbol
_atom_site_fract_x
_atom_site_fract_y
_atom_site_fract_z
_atom_site_U_iso_or_equiv
_atom_site_adp_type
_atom_site_occupancy
Tb1    Tb    0.15282   0.09047   0.99423   0.01267  Uiso   1.00
Tb2    Tb    0.76248   0.59047   0.49423   0.01267  Uiso   1.00
Tb3    Tb    0.84718   0.90953   0.00577   0.01267  Uiso   1.00
Tb4    Tb    0.23752   0.40953   0.50577   0.01267  Uiso   1.00
Co1    Co    0.22352   0.41399   0.16317   0.01267  Uiso   1.00
Co2    Co    0.19932   0.91399   0.66317   0.01267  Uiso   1.00
Co3    Co    0.77648   0.58601   0.83683   0.01267  Uiso   1.00
Co4    Co    0.80068   0.08601   0.33683   0.01267  Uiso   1.00
H1     H     0.72320   0.19650   0.53990   0.01267  Uiso   1.00
H2     H     0.13100   0.70660   0.62220   0.01267  Uiso   1.00
H3     H     0.86900   0.29340   0.37780   0.01267  Uiso   1.00
H4     H     0.24540   0.04490   0.34850   0.01267  Uiso   1.00
H5     H     0.63820   0.40110   0.08610   0.01267  Uiso   1.00
H6     H     0.71850   0.99730   0.56670   0.01267  Uiso   1.00
H7     H     0.36120   0.54490   0.84850   0.01267  Uiso   1.00
H8     H     0.45960   0.30350   0.96010   0.01267  Uiso   1.00
H9     H     0.87460   0.90110   0.58610   0.01267  Uiso   1.00
H10    H     0.43960   0.90970   0.81710   0.01267  Uiso   1.00
H11    H     0.71750   0.49730   0.06670   0.01267  Uiso   1.00
H12    H     0.99810   0.35650   0.34550   0.01267  Uiso   1.00
H13    H     0.16640   0.59030   0.68290   0.01267  Uiso   1.00
H14    H     0.27680   0.80350   0.46010   0.01267  Uiso   1.00
H15    H     0.56040   0.09030   0.18290   0.01267  Uiso   1.00
H16    H     0.28250   0.50270   0.93330   0.01267  Uiso   1.00
H17    H     0.29990   0.85650   0.84550   0.01267  Uiso   1.00
H18    H     0.63880   0.45510   0.15150   0.01267  Uiso   1.00
H19    H     0.83360   0.40970   0.31710   0.01267  Uiso   1.00
H20    H     0.70010   0.14350   0.15450   0.01267  Uiso   1.00
H21    H     0.12540   0.09890   0.41390   0.01267  Uiso   1.00
H22    H     0.45980   0.79340   0.87780   0.01267  Uiso   1.00
H23    H     0.54040   0.69650   0.03990   0.01267  Uiso   1.00
H24    H     0.54020   0.20660   0.12220   0.01267  Uiso   1.00
H25    H     0.36180   0.59890   0.91390   0.01267  Uiso   1.00
H26    H     0.75460   0.95510   0.65150   0.01267  Uiso   1.00
H27    H     0.28150   0.00270   0.43330   0.01267  Uiso   1.00
H28    H     0.00190   0.64350   0.65450   0.01267  Uiso   1.00
C1     C     0.19950   0.03040   0.40200   0.01267  Uiso   1.00
C2     C     0.88320   0.05540   0.58180   0.01267  Uiso   1.00
C3     C     0.80050   0.96960   0.59800   0.01267  Uiso   1.00
C4     C     0.11680   0.94460   0.41820   0.01267  Uiso   1.00
C5     C     0.49500   0.73300   0.66420   0.01267  Uiso   1.00
C6     C     0.61900   0.65780   0.70300   0.01267  Uiso   1.00
C7     C     0.08620   0.65970   0.66690   0.01267  Uiso   1.00
C8     C     0.97980   0.84220   0.79700   0.01267  Uiso   1.00
C9     C     0.00200   0.93890   0.81210   0.01267  Uiso   1.00
C10    C     0.25290   0.84600   0.02040   0.01267  Uiso   1.00
C11    C     0.11930   0.65400   0.47960   0.01267  Uiso   1.00
C12    C     0.38100   0.34220   0.29700   0.01267  Uiso   1.00
C13    C     0.02020   0.15780   0.20300   0.01267  Uiso   1.00
C14    C     0.41280   0.84030   0.83310   0.01267  Uiso   1.00
C15    C     0.10780   0.23300   0.16420   0.01267  Uiso   1.00
C16    C     0.76750   0.35990   0.92910   0.01267  Uiso   1.00
C17    C     0.94350   0.85990   0.42910   0.01267  Uiso   1.00
C18    C     0.50500   0.26700   0.33580   0.01267  Uiso   1.00
C19    C     0.21470   0.13910   0.57770   0.01267  Uiso   1.00
C20    C     0.36810   0.53040   0.90200   0.01267  Uiso   1.00
C21    C     0.74710   0.15400   0.97960   0.01267  Uiso   1.00
C22    C     0.52040   0.44460   0.91820   0.01267  Uiso   1.00
C23    C     0.47340   0.78040   0.76940   0.01267  Uiso   1.00
C24    C     0.55860   0.25990   0.40710   0.01267  Uiso   1.00
C25    C     0.91380   0.34030   0.33310   0.01267  Uiso   1.00
C26    C     0.92670   0.22200   0.54300   0.01267  Uiso   1.00
C27    C     0.52660   0.21960   0.23060   0.01267  Uiso   1.00
C28    C     0.93150   0.36090   0.92230   0.01267  Uiso   1.00
C29    C     0.24700   0.43890   0.31210   0.01267  Uiso   1.00
C30    C     0.07330   0.77800   0.45700   0.01267  Uiso   1.00
C31    C     0.30830   0.72200   0.04300   0.01267  Uiso   1.00
C32    C     0.97680   0.28040   0.26940   0.01267  Uiso   1.00
C33    C     0.78530   0.86090   0.42230   0.01267  Uiso   1.00
C34    C     0.75300   0.56110   0.68790   0.01267  Uiso   1.00
C35    C     0.63190   0.46960   0.09800   0.01267  Uiso   1.00
C36    C     0.77440   0.75990   0.90710   0.01267  Uiso   1.00
C37    C     0.05650   0.14010   0.57090   0.01267  Uiso   1.00
C38    C     0.99800   0.06110   0.18790   0.01267  Uiso   1.00
C39    C     0.06850   0.63910   0.07770   0.01267  Uiso   1.00
C40    C     0.89220   0.76700   0.83580   0.01267  Uiso   1.00
C41    C     0.44140   0.74010   0.59290   0.01267  Uiso   1.00
C42    C     0.47960   0.55540   0.08180   0.01267  Uiso   1.00
C43    C     0.22560   0.24010   0.09290   0.01267  Uiso   1.00
C44    C     0.02320   0.71960   0.73060   0.01267  Uiso   1.00
C45    C     0.69170   0.27800   0.95700   0.01267  Uiso   1.00
C46    C     0.88070   0.34600   0.52040   0.01267  Uiso   1.00
C47    C     0.23250   0.64010   0.07090   0.01267  Uiso   1.00
C48    C     0.58720   0.15970   0.16690   0.01267  Uiso   1.00
N1     N     0.34030   0.53660   0.09620   0.01267  Uiso   1.00
N2     N     0.02690   0.03660   0.59620   0.01267  Uiso   1.00
N3     N     0.60180   0.68960   0.77020   0.01267  Uiso   1.00
N4     N     0.40500   0.80950   0.70710   0.01267  Uiso   1.00
N5     N     0.18090   0.83470   0.44810   0.01267  Uiso   1.00
N6     N     0.59500   0.19050   0.29290   0.01267  Uiso   1.00
N7     N     0.81910   0.16530   0.55190   0.01267  Uiso   1.00
N8     N     0.07840   0.30950   0.20710   0.01267  Uiso   1.00
N9     N     0.65970   0.46340   0.90380   0.01267  Uiso   1.00
N10    N     0.97310   0.96340   0.40380   0.01267  Uiso   1.00
N11    N     0.53630   0.33470   0.94810   0.01267  Uiso   1.00
N12    N     0.92160   0.69050   0.79290   0.01267  Uiso   1.00
N13    N     0.06160   0.81040   0.72980   0.01267  Uiso   1.00
N14    N     0.46370   0.66530   0.05190   0.01267  Uiso   1.00
N15    N     0.93840   0.18960   0.27020   0.01267  Uiso   1.00
N16    N     0.39820   0.31040   0.22980   0.01267  Uiso   1.00
O1     O     0.34710   0.89980   0.01800   0.01267  Uiso   1.00
O2     O     0.08044   0.99482   0.75870   0.01267  Uiso   1.00
O3     O     0.26690   0.16710   0.05370   0.01267  Uiso   1.00
O4     O     0.70230   0.95080   0.38420   0.01267  Uiso   1.00
O5     O     0.26490   0.60020   0.48200   0.01267  Uiso   1.00
O6     O     0.73510   0.39980   0.51800   0.01267  Uiso   1.00
O7     O     0.16604   0.49482   0.25870   0.01267  Uiso   1.00
O8     O     0.32150   0.82140   0.57480   0.01267  Uiso   1.00
O9     O     0.73310   0.83290   0.94630   0.01267  Uiso   1.00
O10    O     0.29770   0.04920   0.61580   0.01267  Uiso   1.00
O11    O     0.96960   0.72440   0.04520   0.01267  Uiso   1.00
O12    O     0.03730   0.54920   0.11580   0.01267  Uiso   1.00
O13    O     0.97919   0.40012   0.50470   0.01267  Uiso   1.00
O14    O     0.26080   0.22440   0.54520   0.01267  Uiso   1.00
O15    O     0.73920   0.77560   0.45480   0.01267  Uiso   1.00
O16    O     0.94480   0.96570   0.87750   0.01267  Uiso   1.00
O17    O     0.21200   0.46570   0.37750   0.01267  Uiso   1.00
O18    O     0.11599   0.90012   0.00470   0.01267  Uiso   1.00
O19    O     0.02081   0.59988   0.49530   0.01267  Uiso   1.00
O20    O     0.88401   0.09988   0.99530   0.01267  Uiso   1.00
O21    O     0.51230   0.66710   0.55370   0.01267  Uiso   1.00
O22    O     0.96270   0.45080   0.88420   0.01267  Uiso   1.00
O23    O     0.78800   0.53430   0.62250   0.01267  Uiso   1.00
O24    O     0.65290   0.10020   0.98200   0.01267  Uiso   1.00
O25    O     0.71770   0.67860   0.92520   0.01267  Uiso   1.00
O26    O     0.91956   0.00518   0.24130   0.01267  Uiso   1.00
O27    O     0.05520   0.03430   0.12250   0.01267  Uiso   1.00
O28    O     0.48770   0.33290   0.44630   0.01267  Uiso   1.00
O29    O     0.28230   0.32140   0.07480   0.01267  Uiso   1.00
O30    O     0.67850   0.17860   0.42520   0.01267  Uiso   1.00
O31    O     0.03040   0.27560   0.95480   0.01267  Uiso   1.00
O32    O     0.83396   0.50518   0.74130   0.01267  Uiso   1.00
