data_ZOXTIR_clean
_audit_creation_date              2015-10-16
_audit_creation_method            'Materials Studio'
_symmetry_space_group_name_H-M    'P1'
_symmetry_Int_Tables_number       1
_symmetry_cell_setting            triclinic
loop_
_symmetry_equiv_pos_as_xyz
  x,y,z
_cell_length_a                    9.1735
_cell_length_b                    12.9564
_cell_length_c                    18.5079
_cell_angle_alpha                 72.2016
_cell_angle_beta                  75.6510
_cell_angle_gamma                 69.2669
loop_
_atom_site_label
_atom_site_type_symbol
_atom_site_fract_x
_atom_site_fract_y
_atom_site_fract_z
_atom_site_U_iso_or_equiv
_atom_site_adp_type
_atom_site_occupancy
Er1    Er    0.23609   0.41122   0.50508   0.01267  Uiso   1.00
Er2    Er    0.15239   0.08879   0.99491   0.01267  Uiso   1.00
Er3    Er    0.76391   0.58879   0.49491   0.01267  Uiso   1.00
Er4    Er    0.84761   0.91122   0.00508   0.01267  Uiso   1.00
Zn1    Zn    0.20140   0.91156   0.66404   0.01267  Uiso   1.00
Zn2    Zn    0.79860   0.08844   0.33596   0.01267  Uiso   1.00
Zn3    Zn    0.77700   0.58844   0.83596   0.01267  Uiso   1.00
Zn4    Zn    0.22300   0.41156   0.16404   0.01267  Uiso   1.00
H1     H     0.26830   0.80550   0.46390   0.01267  Uiso   1.00
H2     H     0.37130   0.60650   0.90830   0.01267  Uiso   1.00
H3     H     0.88610   0.89350   0.59170   0.01267  Uiso   1.00
H4     H     0.51190   0.18700   0.13480   0.01267  Uiso   1.00
H5     H     0.41470   0.92370   0.80530   0.01267  Uiso   1.00
H6     H     0.28650   0.51200   0.93660   0.01267  Uiso   1.00
H7     H     0.73170   0.19450   0.53610   0.01267  Uiso   1.00
H8     H     0.24520   0.04460   0.35000   0.01267  Uiso   1.00
H9     H     0.11390   0.10650   0.40830   0.01267  Uiso   1.00
H10    H     0.85630   0.42370   0.30530   0.01267  Uiso   1.00
H11    H     0.68490   0.15890   0.14890   0.01267  Uiso   1.00
H12    H     0.63980   0.45540   0.15000   0.01267  Uiso   1.00
H13    H     0.58530   0.07630   0.19470   0.01267  Uiso   1.00
H14    H     0.71350   0.48800   0.06340   0.01267  Uiso   1.00
H15    H     0.14370   0.57630   0.69470   0.01267  Uiso   1.00
H16    H     0.53770   0.69450   0.03610   0.01267  Uiso   1.00
H17    H     0.46230   0.30550   0.96390   0.01267  Uiso   1.00
H18    H     0.31510   0.84110   0.85110   0.01267  Uiso   1.00
H19    H     0.36020   0.54460   0.85000   0.01267  Uiso   1.00
H20    H     0.75480   0.95540   0.65000   0.01267  Uiso   1.00
H21    H     0.16630   0.68700   0.63480   0.01267  Uiso   1.00
H22    H     0.99270   0.34110   0.35110   0.01267  Uiso   1.00
H23    H     0.48810   0.81300   0.86520   0.01267  Uiso   1.00
H24    H     0.83370   0.31300   0.36520   0.01267  Uiso   1.00
H25    H     0.73510   0.98800   0.56340   0.01267  Uiso   1.00
H26    H     0.62870   0.39350   0.09170   0.01267  Uiso   1.00
H27    H     0.00730   0.65890   0.64890   0.01267  Uiso   1.00
H28    H     0.26490   0.01200   0.43660   0.01267  Uiso   1.00
C1     C     0.98020   0.84250   0.79930   0.01267  Uiso   1.00
C2     C     0.22690   0.23760   0.09140   0.01267  Uiso   1.00
C3     C     0.80950   0.96450   0.59810   0.01267  Uiso   1.00
C4     C     0.93130   0.22120   0.54240   0.01267  Uiso   1.00
C5     C     0.37210   0.53550   0.90190   0.01267  Uiso   1.00
C6     C     0.90800   0.34570   0.32730   0.01267  Uiso   1.00
C7     C     0.50070   0.26780   0.33840   0.01267  Uiso   1.00
C8     C     0.75686   0.55798   0.68630   0.01267  Uiso   1.00
C9     C     0.93700   0.35950   0.92170   0.01267  Uiso   1.00
C10    C     0.06300   0.64050   0.07830   0.01267  Uiso   1.00
C11    C     0.47580   0.55220   0.08160   0.01267  Uiso   1.00
C12    C     0.97225   0.28200   0.26610   0.01267  Uiso   1.00
C13    C     0.49930   0.73220   0.66160   0.01267  Uiso   1.00
C14    C     0.58100   0.15430   0.17270   0.01267  Uiso   1.00
C15    C     0.19050   0.03550   0.40190   0.01267  Uiso   1.00
C16    C     0.41900   0.84570   0.82730   0.01267  Uiso   1.00
C17    C     0.77171   0.36078   0.92940   0.01267  Uiso   1.00
C18    C     0.55590   0.26240   0.40860   0.01267  Uiso   1.00
C19    C     0.24314   0.44202   0.31370   0.01267  Uiso   1.00
C20    C     0.88150   0.34710   0.52050   0.01267  Uiso   1.00
C21    C     0.77310   0.76240   0.90860   0.01267  Uiso   1.00
C22    C     0.99886   0.05798   0.18630   0.01267  Uiso   1.00
C23    C     0.06189   0.13922   0.57060   0.01267  Uiso   1.00
C24    C     0.44410   0.73760   0.59140   0.01267  Uiso   1.00
C25    C     0.10690   0.23220   0.16160   0.01267  Uiso   1.00
C26    C     0.21820   0.14050   0.57830   0.01267  Uiso   1.00
C27    C     0.10960   0.94780   0.41840   0.01267  Uiso   1.00
C28    C     0.62790   0.46450   0.09810   0.01267  Uiso   1.00
C29    C     0.22829   0.63922   0.07060   0.01267  Uiso   1.00
C30    C     0.47965   0.78200   0.76610   0.01267  Uiso   1.00
C31    C     0.25090   0.84710   0.02050   0.01267  Uiso   1.00
C32    C     0.06870   0.77880   0.45760   0.01267  Uiso   1.00
C33    C     0.74910   0.15290   0.97950   0.01267  Uiso   1.00
C34    C     0.52420   0.44780   0.91840   0.01267  Uiso   1.00
C35    C     0.09200   0.65430   0.67270   0.01267  Uiso   1.00
C36    C     0.89040   0.05220   0.58160   0.01267  Uiso   1.00
C37    C     0.37800   0.34250   0.29930   0.01267  Uiso   1.00
C38    C     0.02775   0.71800   0.73390   0.01267  Uiso   1.00
C39    C     0.00114   0.94202   0.81370   0.01267  Uiso   1.00
C40    C     0.52035   0.21800   0.23390   0.01267  Uiso   1.00
C41    C     0.62200   0.65750   0.70070   0.01267  Uiso   1.00
C42    C     0.01980   0.15750   0.20070   0.01267  Uiso   1.00
C43    C     0.89310   0.76780   0.83840   0.01267  Uiso   1.00
C44    C     0.78180   0.85950   0.42170   0.01267  Uiso   1.00
C45    C     0.11850   0.65290   0.47950   0.01267  Uiso   1.00
C46    C     0.30510   0.72120   0.04240   0.01267  Uiso   1.00
C47    C     0.69490   0.27880   0.95760   0.01267  Uiso   1.00
C48    C     0.93811   0.86078   0.42940   0.01267  Uiso   1.00
N1     N     0.58972   0.19006   0.29610   0.01267  Uiso   1.00
N2     N     0.66406   0.46488   0.90460   0.01267  Uiso   1.00
N3     N     0.33594   0.53512   0.09540   0.01267  Uiso   1.00
N4     N     0.53950   0.33620   0.95020   0.01267  Uiso   1.00
N5     N     0.39326   0.31018   0.23310   0.01267  Uiso   1.00
N6     N     0.93654   0.18982   0.26690   0.01267  Uiso   1.00
N7     N     0.03354   0.03512   0.59540   0.01267  Uiso   1.00
N8     N     0.82590   0.16380   0.54980   0.01267  Uiso   1.00
N9     N     0.17410   0.83620   0.45020   0.01267  Uiso   1.00
N10    N     0.41028   0.80994   0.70390   0.01267  Uiso   1.00
N11    N     0.06346   0.81018   0.73310   0.01267  Uiso   1.00
N12    N     0.96646   0.96488   0.40460   0.01267  Uiso   1.00
N13    N     0.07588   0.30994   0.20390   0.01267  Uiso   1.00
N14    N     0.92412   0.69006   0.79610   0.01267  Uiso   1.00
N15    N     0.46050   0.66380   0.04980   0.01267  Uiso   1.00
N16    N     0.60674   0.68982   0.76690   0.01267  Uiso   1.00
O1     O     0.16392   0.49794   0.26082   0.01267  Uiso   1.00
O2     O     0.48434   0.33841   0.44591   0.01267  Uiso   1.00
O3     O     0.96582   0.72706   0.04290   0.01267  Uiso   1.00
O4     O     0.70077   0.94676   0.38190   0.01267  Uiso   1.00
O5     O     0.32268   0.81730   0.57354   0.01267  Uiso   1.00
O6     O     0.11392   0.90157   0.00419   0.01267  Uiso   1.00
O7     O     0.67732   0.18270   0.42646   0.01267  Uiso   1.00
O8     O     0.73134   0.83841   0.94591   0.01267  Uiso   1.00
O9     O     0.92268   0.00206   0.23918   0.01267  Uiso   1.00
O10    O     0.07732   0.99794   0.76082   0.01267  Uiso   1.00
O11    O     0.03418   0.27294   0.95710   0.01267  Uiso   1.00
O12    O     0.51566   0.66159   0.55409   0.01267  Uiso   1.00
O13    O     0.79106   0.53216   0.62112   0.01267  Uiso   1.00
O14    O     0.26422   0.22706   0.54290   0.01267  Uiso   1.00
O15    O     0.28648   0.31730   0.07354   0.01267  Uiso   1.00
O16    O     0.71352   0.68270   0.92646   0.01267  Uiso   1.00
O17    O     0.20894   0.46784   0.37888   0.01267  Uiso   1.00
O18    O     0.73578   0.77294   0.45710   0.01267  Uiso   1.00
O19    O     0.83608   0.50206   0.73918   0.01267  Uiso   1.00
O20    O     0.01968   0.59843   0.49581   0.01267  Uiso   1.00
O21    O     0.34465   0.90000   0.01790   0.01267  Uiso   1.00
O22    O     0.98032   0.40157   0.50419   0.01267  Uiso   1.00
O23    O     0.97057   0.44676   0.88190   0.01267  Uiso   1.00
O24    O     0.88608   0.09843   0.99581   0.01267  Uiso   1.00
O25    O     0.94434   0.96784   0.87888   0.01267  Uiso   1.00
O26    O     0.26866   0.16159   0.05409   0.01267  Uiso   1.00
O27    O     0.02943   0.55324   0.11810   0.01267  Uiso   1.00
O28    O     0.65535   0.10000   0.98210   0.01267  Uiso   1.00
O29    O     0.29923   0.05324   0.61810   0.01267  Uiso   1.00
O30    O     0.26255   0.60000   0.48210   0.01267  Uiso   1.00
O31    O     0.05566   0.03216   0.12112   0.01267  Uiso   1.00
O32    O     0.73745   0.40000   0.51790   0.01267  Uiso   1.00
