data_ZOXVEP_clean
_audit_creation_date              2015-10-16
_audit_creation_method            'Materials Studio'
_symmetry_space_group_name_H-M    'P1'
_symmetry_Int_Tables_number       1
_symmetry_cell_setting            triclinic
loop_
_symmetry_equiv_pos_as_xyz
  x,y,z
_cell_length_a                    9.1523
_cell_length_b                    12.9943
_cell_length_c                    18.4271
_cell_angle_alpha                 72.4616
_cell_angle_beta                  75.6208
_cell_angle_gamma                 69.3802
loop_
_atom_site_label
_atom_site_type_symbol
_atom_site_fract_x
_atom_site_fract_y
_atom_site_fract_z
_atom_site_U_iso_or_equiv
_atom_site_adp_type
_atom_site_occupancy
Dy1    Dy    0.23718   0.40968   0.50538   0.01267  Uiso   1.00
Dy2    Dy    0.84776   0.90968   0.00538   0.01267  Uiso   1.00
Dy3    Dy    0.15224   0.09032   0.99462   0.01267  Uiso   1.00
Dy4    Dy    0.76282   0.59032   0.49462   0.01267  Uiso   1.00
Co1    Co    0.77675   0.58582   0.83688   0.01267  Uiso   1.00
Co2    Co    0.80055   0.08582   0.33688   0.01267  Uiso   1.00
Co3    Co    0.22325   0.41418   0.16312   0.01267  Uiso   1.00
Co4    Co    0.19945   0.91418   0.66312   0.01267  Uiso   1.00
H1     H     0.45880   0.30330   0.96250   0.01267  Uiso   1.00
H2     H     0.49270   0.82410   0.86230   0.01267  Uiso   1.00
H3     H     0.36790   0.55090   0.84690   0.01267  Uiso   1.00
H4     H     0.89190   0.42090   0.31090   0.01267  Uiso   1.00
H5     H     0.35850   0.59680   0.91800   0.01267  Uiso   1.00
H6     H     0.76570   0.94910   0.65310   0.01267  Uiso   1.00
H7     H     0.71630   0.49920   0.07180   0.01267  Uiso   1.00
H8     H     0.00640   0.68260   0.63440   0.01267  Uiso   1.00
H9     H     0.12670   0.09680   0.41800   0.01267  Uiso   1.00
H10    H     0.87330   0.90320   0.58200   0.01267  Uiso   1.00
H11    H     0.72460   0.19670   0.53750   0.01267  Uiso   1.00
H12    H     0.27540   0.80330   0.46250   0.01267  Uiso   1.00
H13    H     0.64150   0.40320   0.08200   0.01267  Uiso   1.00
H14    H     0.28730   0.00080   0.42820   0.01267  Uiso   1.00
H15    H     0.37630   0.92090   0.81090   0.01267  Uiso   1.00
H16    H     0.50730   0.17590   0.13770   0.01267  Uiso   1.00
H17    H     0.28370   0.50080   0.92820   0.01267  Uiso   1.00
H18    H     0.82090   0.32410   0.36230   0.01267  Uiso   1.00
H19    H     0.10810   0.57910   0.68910   0.01267  Uiso   1.00
H20    H     0.63210   0.44910   0.15310   0.01267  Uiso   1.00
H21    H     0.99360   0.31740   0.36560   0.01267  Uiso   1.00
H22    H     0.67660   0.18260   0.13440   0.01267  Uiso   1.00
H23    H     0.23430   0.05090   0.34690   0.01267  Uiso   1.00
H24    H     0.62370   0.07910   0.18910   0.01267  Uiso   1.00
H25    H     0.71270   0.99920   0.57180   0.01267  Uiso   1.00
H26    H     0.54120   0.69670   0.03750   0.01267  Uiso   1.00
H27    H     0.32340   0.81740   0.86560   0.01267  Uiso   1.00
H28    H     0.17910   0.67590   0.63770   0.01267  Uiso   1.00
C1     C     0.38120   0.34140   0.29680   0.01267  Uiso   1.00
C2     C     0.01940   0.15860   0.20320   0.01267  Uiso   1.00
C3     C     0.52070   0.44480   0.91800   0.01267  Uiso   1.00
C4     C     0.47360   0.77960   0.76960   0.01267  Uiso   1.00
C5     C     0.19830   0.03090   0.40130   0.01267  Uiso   1.00
C6     C     0.05630   0.13970   0.57110   0.01267  Uiso   1.00
C7     C     0.52640   0.22040   0.23040   0.01267  Uiso   1.00
C8     C     0.61880   0.65860   0.70320   0.01267  Uiso   1.00
C9     C     0.69230   0.27730   0.95650   0.01267  Uiso   1.00
C10    C     0.06780   0.63910   0.07750   0.01267  Uiso   1.00
C11    C     0.25310   0.84780   0.02060   0.01267  Uiso   1.00
C12    C     0.99750   0.06090   0.18770   0.01267  Uiso   1.00
C13    C     0.89340   0.76690   0.83630   0.01267  Uiso   1.00
C14    C     0.63050   0.46910   0.09870   0.01267  Uiso   1.00
C15    C     0.08470   0.65890   0.66730   0.01267  Uiso   1.00
C16    C     0.94370   0.86030   0.42890   0.01267  Uiso   1.00
C17    C     0.88350   0.05520   0.58200   0.01267  Uiso   1.00
C18    C     0.02280   0.72040   0.73040   0.01267  Uiso   1.00
C19    C     0.44230   0.74100   0.59280   0.01267  Uiso   1.00
C20    C     0.91530   0.34110   0.33270   0.01267  Uiso   1.00
C21    C     0.12150   0.65220   0.47940   0.01267  Uiso   1.00
C22    C     0.92610   0.22270   0.54350   0.01267  Uiso   1.00
C23    C     0.78440   0.86090   0.42250   0.01267  Uiso   1.00
C24    C     0.07390   0.77730   0.45650   0.01267  Uiso   1.00
C25    C     0.11650   0.94480   0.41800   0.01267  Uiso   1.00
C26    C     0.30770   0.72270   0.04350   0.01267  Uiso   1.00
C27    C     0.47930   0.55520   0.08200   0.01267  Uiso   1.00
C28    C     0.36950   0.53090   0.90130   0.01267  Uiso   1.00
C29    C     0.55770   0.25900   0.40720   0.01267  Uiso   1.00
C30    C     0.77610   0.75900   0.90720   0.01267  Uiso   1.00
C31    C     0.80170   0.96910   0.59870   0.01267  Uiso   1.00
C32    C     0.98060   0.84140   0.79680   0.01267  Uiso   1.00
C33    C     0.22390   0.24100   0.09280   0.01267  Uiso   1.00
C34    C     0.87850   0.34780   0.52060   0.01267  Uiso   1.00
C35    C     0.93220   0.36090   0.92250   0.01267  Uiso   1.00
C36    C     0.21560   0.13910   0.57750   0.01267  Uiso   1.00
C37    C     0.97720   0.27960   0.26960   0.01267  Uiso   1.00
C38    C     0.24610   0.43910   0.31230   0.01267  Uiso   1.00
C39    C     0.49660   0.73310   0.66370   0.01267  Uiso   1.00
C40    C     0.50340   0.26690   0.33630   0.01267  Uiso   1.00
C41    C     0.23290   0.63970   0.07110   0.01267  Uiso   1.00
C42    C     0.76710   0.36030   0.92890   0.01267  Uiso   1.00
C43    C     0.58910   0.15890   0.16730   0.01267  Uiso   1.00
C44    C     0.41090   0.84110   0.83270   0.01267  Uiso   1.00
C45    C     0.75390   0.56090   0.68770   0.01267  Uiso   1.00
C46    C     0.10660   0.23310   0.16370   0.01267  Uiso   1.00
C47    C     0.00250   0.93910   0.81230   0.01267  Uiso   1.00
C48    C     0.74690   0.15220   0.97940   0.01267  Uiso   1.00
N1     N     0.02630   0.03730   0.59610   0.01267  Uiso   1.00
N2     N     0.07810   0.30900   0.20740   0.01267  Uiso   1.00
N3     N     0.06300   0.80940   0.73060   0.01267  Uiso   1.00
N4     N     0.60300   0.69060   0.76940   0.01267  Uiso   1.00
N5     N     0.18070   0.83430   0.44910   0.01267  Uiso   1.00
N6     N     0.46410   0.66570   0.05090   0.01267  Uiso   1.00
N7     N     0.65970   0.46270   0.90390   0.01267  Uiso   1.00
N8     N     0.93700   0.19060   0.26940   0.01267  Uiso   1.00
N9     N     0.92190   0.69100   0.79260   0.01267  Uiso   1.00
N10    N     0.34030   0.53730   0.09610   0.01267  Uiso   1.00
N11    N     0.40550   0.80900   0.70740   0.01267  Uiso   1.00
N12    N     0.97370   0.96270   0.40390   0.01267  Uiso   1.00
N13    N     0.81930   0.16570   0.55090   0.01267  Uiso   1.00
N14    N     0.59450   0.19100   0.29260   0.01267  Uiso   1.00
N15    N     0.39700   0.30940   0.23060   0.01267  Uiso   1.00
N16    N     0.53590   0.33430   0.94910   0.01267  Uiso   1.00
O1     O     0.83370   0.50500   0.74080   0.01267  Uiso   1.00
O2     O     0.03100   0.27510   0.95590   0.01267  Uiso   1.00
O3     O     0.07950   0.99500   0.75920   0.01267  Uiso   1.00
O4     O     0.92050   0.00500   0.24080   0.01267  Uiso   1.00
O5     O     0.97900   0.40090   0.50490   0.01267  Uiso   1.00
O6     O     0.16630   0.49500   0.25920   0.01267  Uiso   1.00
O7     O     0.48700   0.33330   0.44610   0.01267  Uiso   1.00
O8     O     0.78880   0.53440   0.62240   0.01267  Uiso   1.00
O9     O     0.73470   0.40110   0.51850   0.01267  Uiso   1.00
O10    O     0.51300   0.66670   0.55390   0.01267  Uiso   1.00
O11    O     0.67800   0.17870   0.42510   0.01267  Uiso   1.00
O12    O     0.28180   0.32130   0.07490   0.01267  Uiso   1.00
O13    O     0.21120   0.46560   0.37760   0.01267  Uiso   1.00
O14    O     0.03670   0.55030   0.11530   0.01267  Uiso   1.00
O15    O     0.29770   0.05030   0.61530   0.01267  Uiso   1.00
O16    O     0.26200   0.22490   0.54410   0.01267  Uiso   1.00
O17    O     0.71820   0.67870   0.92510   0.01267  Uiso   1.00
O18    O     0.73360   0.83330   0.94610   0.01267  Uiso   1.00
O19    O     0.11520   0.90090   0.00490   0.01267  Uiso   1.00
O20    O     0.88480   0.09910   0.99510   0.01267  Uiso   1.00
O21    O     0.02100   0.59910   0.49510   0.01267  Uiso   1.00
O22    O     0.32200   0.82130   0.57490   0.01267  Uiso   1.00
O23    O     0.05440   0.03440   0.12240   0.01267  Uiso   1.00
O24    O     0.96330   0.44970   0.88470   0.01267  Uiso   1.00
O25    O     0.96900   0.72490   0.04410   0.01267  Uiso   1.00
O26    O     0.70230   0.94970   0.38470   0.01267  Uiso   1.00
O27    O     0.73800   0.77510   0.45590   0.01267  Uiso   1.00
O28    O     0.26530   0.59890   0.48150   0.01267  Uiso   1.00
O29    O     0.34570   0.90110   0.01850   0.01267  Uiso   1.00
O30    O     0.65430   0.09890   0.98150   0.01267  Uiso   1.00
O31    O     0.26640   0.16670   0.05390   0.01267  Uiso   1.00
O32    O     0.94560   0.96560   0.87760   0.01267  Uiso   1.00
