data_image0
_cell_length_a       12.3331
_cell_length_b       14.7388
_cell_length_c       14.9946
_cell_angle_alpha    111.546
_cell_angle_beta     105.075
_cell_angle_gamma    106.267

_symmetry_space_group_name_H-M    "P 1"
_symmetry_int_tables_number       1

loop_
  _symmetry_equiv_pos_as_xyz
  'x, y, z'

loop_
  _atom_site_label
  _atom_site_occupancy
  _atom_site_fract_x
  _atom_site_fract_y
  _atom_site_fract_z
  _atom_site_thermal_displace_type
  _atom_site_B_iso_or_equiv
  _atom_site_type_symbol
  U1       1.0000 0.44523  0.03342  0.45241  Biso   1.000  U
  U2       1.0000 0.65923  0.79601  0.86780  Biso   1.000  U
  U3       1.0000 0.69015  0.45513  0.20302  Biso   1.000  U
  U4       1.0000 0.13737  0.68460  0.80829  Biso   1.000  U
  O1       1.0000 0.60350  0.16990  0.43150  Biso   1.000  O
  O2       1.0000 0.59120  0.00600  0.37630  Biso   1.000  O
  O3       1.0000 0.65870  0.87320  0.04460  Biso   1.000  O
  O4       1.0000 0.75580  0.99050  0.00390  Biso   1.000  O
  O5       1.0000 0.43340  0.84650  0.40000  Biso   1.000  O
  O6       1.0000 0.30500  0.88980  0.46580  Biso   1.000  O
  O7       1.0000 0.14130  0.56850  0.64290  Biso   1.000  O
  O8       1.0000 0.23590  0.74180  0.70410  Biso   1.000  O
  O9       1.0000 0.30450  0.08920  0.52500  Biso   1.000  O
  O10      1.0000 0.44920  0.21600  0.52610  Biso   1.000  O
  O11      1.0000 0.55810  0.60050  0.75490  Biso   1.000  O
  O12      1.0000 0.53160  0.65470  0.90170  Biso   1.000  O
  O13      1.0000 0.77280  0.91100  0.81040  Biso   1.000  O
  O14      1.0000 0.68440  0.73820  0.70270  Biso   1.000  O
  O15      1.0000 0.83110  0.65440  0.31430  Biso   1.000  O
  O16      1.0000 0.69480  0.57870  0.36420  Biso   1.000  O
  O17      1.0000 0.53050  0.37390  0.25540  Biso   1.000  O
  O18      1.0000 0.54050  0.26760  0.11350  Biso   1.000  O
  O19      1.0000 0.23490  0.88140  0.88870  Biso   1.000  O
  O20      1.0000 0.14990  0.81600  0.97360  Biso   1.000  O
  O21      1.0000 0.03020  0.61220  0.89830  Biso   1.000  O
  O22      1.0000 0.01890  0.49250  0.75370  Biso   1.000  O
  O23      1.0000 0.70230  0.33720  0.04390  Biso   1.000  O
  O24      1.0000 0.83670  0.50570  0.12410  Biso   1.000  O
  C1       1.0000 0.73980  0.12260  0.34770  Biso   1.000  C
  C2       1.0000 0.68450  0.04160  0.23130  Biso   1.000  C
  H1       1.0000 0.61430  0.05180  0.19290  Biso   1.000  H
  H2       1.0000 0.65270  0.96780  0.22230  Biso   1.000  H
  C3       1.0000 0.78140  0.05570  0.18580  Biso   1.000  C
  C4       1.0000 0.83020  0.16950  0.19940  Biso   1.000  C
  H3       1.0000 0.76200  0.18130  0.16050  Biso   1.000  H
  H4       1.0000 0.89400  0.17930  0.17080  Biso   1.000  H
  C5       1.0000 0.88610  0.25050  0.31650  Biso   1.000  C
  H5       1.0000 0.91650  0.32490  0.32500  Biso   1.000  H
  C6       1.0000 0.78990  0.23630  0.36120  Biso   1.000  C
  H6       1.0000 0.72130  0.24930  0.32470  Biso   1.000  H
  H7       1.0000 0.82700  0.28920  0.43660  Biso   1.000  H
  C7       1.0000 0.84620  0.10420  0.40700  Biso   1.000  C
  H8       1.0000 0.81520  0.03010  0.39740  Biso   1.000  H
  H9       1.0000 0.88150  0.15500  0.48300  Biso   1.000  H
  C8       1.0000 0.94800  0.12200  0.36300  Biso   1.000  C
  H10      1.0000 0.01810  0.11080  0.40180  Biso   1.000  H
  C9       1.0000 0.89000  0.03780  0.24550  Biso   1.000  C
  H11      1.0000 0.85930  0.96450  0.23780  Biso   1.000  H
  H12      1.0000 0.95300  0.04540  0.21600  Biso   1.000  H
  C10      1.0000 0.99650  0.23490  0.37590  Biso   1.000  C
  H13      1.0000 0.05970  0.24450  0.34670  Biso   1.000  H
  H14      1.0000 0.03500  0.28850  0.45120  Biso   1.000  H
  C11      1.0000 0.63880  0.09870  0.38710  Biso   1.000  C
  C12      1.0000 0.72920  0.97080  0.07230  Biso   1.000  C
  C13      1.0000 0.29870  0.71530  0.43010  Biso   1.000  C
  C14      1.0000 0.28090  0.73450  0.53350  Biso   1.000  C
  H15      1.0000 0.36210  0.77920  0.59400  Biso   1.000  H
  H16      1.0000 0.22800  0.77400  0.54170  Biso   1.000  H
  C15      1.0000 0.22060  0.62730  0.53250  Biso   1.000  C
  C16      1.0000 0.09420  0.55890  0.43950  Biso   1.000  C
  H17      1.0000 0.03980  0.59700  0.44690  Biso   1.000  H
  H18      1.0000 0.05490  0.49000  0.43870  Biso   1.000  H
  C17      1.0000 0.10970  0.53710  0.33580  Biso   1.000  C
  H19      1.0000 0.02720  0.49090  0.27520  Biso   1.000  H
  C18      1.0000 0.16720  0.64580  0.33690  Biso   1.000  C
  H20      1.0000 0.11350  0.68430  0.34590  Biso   1.000  H
  H21      1.0000 0.17440  0.63300  0.26960  Biso   1.000  H
  C19      1.0000 0.37790  0.65480  0.41760  Biso   1.000  C
  H22      1.0000 0.46120  0.69900  0.47560  Biso   1.000  H
  H23      1.0000 0.38720  0.64030  0.35070  Biso   1.000  H
  C20      1.0000 0.32070  0.54930  0.41800  Biso   1.000  C
  H24      1.0000 0.37600  0.51140  0.41030  Biso   1.000  H
  C21      1.0000 0.30480  0.56710  0.52030  Biso   1.000  C
  H25      1.0000 0.38630  0.61000  0.58070  Biso   1.000  H
  H26      1.0000 0.26690  0.49720  0.51820  Biso   1.000  H
  C22      1.0000 0.19680  0.48000  0.32530  Biso   1.000  C
  H27      1.0000 0.16010  0.40970  0.32280  Biso   1.000  H
  H28      1.0000 0.20790  0.46720  0.25930  Biso   1.000  H
  C23      1.0000 0.35040  0.82300  0.43180  Biso   1.000  C
  C24      1.0000 0.20070  0.64740  0.63140  Biso   1.000  C
  C25      1.0000 0.36540  0.26800  0.65580  Biso   1.000  C
  C26      1.0000 0.44070  0.38490  0.68590  Biso   1.000  C
  H29      1.0000 0.40660  0.39940  0.62770  Biso   1.000  H
  H30      1.0000 0.52750  0.39690  0.69760  Biso   1.000  H
  C27      1.0000 0.43720  0.46240  0.78610  Biso   1.000  C
  C28      1.0000 0.49220  0.43950  0.87680  Biso   1.000  C
  H31      1.0000 0.58000  0.45420  0.89120  Biso   1.000  H
  H32      1.0000 0.48840  0.48780  0.94130  Biso   1.000  H
  C29      1.0000 0.42010  0.32260  0.84760  Biso   1.000  C
  H33      1.0000 0.45720  0.30850  0.90610  Biso   1.000  H
  C30      1.0000 0.42120  0.24690  0.74800  Biso   1.000  C
  H34      1.0000 0.37260  0.17180  0.73000  Biso   1.000  H
  H35      1.0000 0.50720  0.25650  0.75900  Biso   1.000  H
  C31      1.0000 0.23250  0.25070  0.64290  Biso   1.000  C
  H36      1.0000 0.19300  0.26240  0.58410  Biso   1.000  H
  H37      1.0000 0.18480  0.17550  0.62500  Biso   1.000  H
  C32      1.0000 0.22850  0.32650  0.74240  Biso   1.000  C
  H38      1.0000 0.14100  0.31460  0.73080  Biso   1.000  H
  C33      1.0000 0.30420  0.44280  0.76940  Biso   1.000  C
  H39      1.0000 0.26660  0.45660  0.71170  Biso   1.000  H
  H40      1.0000 0.30250  0.49320  0.83400  Biso   1.000  H
  C34      1.0000 0.28450  0.30560  0.83100  Biso   1.000  C
  H41      1.0000 0.23540  0.23110  0.81410  Biso   1.000  H
  H42      1.0000 0.28320  0.35520  0.89630  Biso   1.000  H
  C35      1.0000 0.36740  0.18700  0.56190  Biso   1.000  C
  C36      1.0000 0.51330  0.57810  0.81490  Biso   1.000  C
  C37      1.0000 0.79770  0.85280  0.64620  Biso   1.000  C
  C38      1.0000 0.76700  0.74610  0.55290  Biso   1.000  C
  H43      1.0000 0.80470  0.70450  0.57840  Biso   1.000  H
  H44      1.0000 0.67630  0.70350  0.51740  Biso   1.000  H
  C39      1.0000 0.81540  0.76570  0.47500  Biso   1.000  C
  C40      1.0000 0.75280  0.83100  0.43540  Biso   1.000  C
  H45      1.0000 0.78290  0.84470  0.38450  Biso   1.000  H
  H46      1.0000 0.66210  0.78860  0.39940  Biso   1.000  H
  C41      1.0000 0.78370  0.93780  0.52830  Biso   1.000  C
  H47      1.0000 0.74360  0.97910  0.50290  Biso   1.000  H
  C42      1.0000 0.73690  0.91630  0.60790  Biso   1.000  C
  H48      1.0000 0.75720  0.98530  0.66820  Biso   1.000  H
  H49      1.0000 0.64600  0.87510  0.57410  Biso   1.000  H
  C43      1.0000 0.93760  0.91940  0.70150  Biso   1.000  C
  H50      1.0000 0.97840  0.87990  0.72810  Biso   1.000  H
  H51      1.0000 0.95760  0.98830  0.76190  Biso   1.000  H
  C44      1.0000 0.98410  0.94060  0.62220  Biso   1.000  C
  H52      1.0000 0.07560  0.98430  0.65860  Biso   1.000  H
  C45      1.0000 0.95810  0.83450  0.53100  Biso   1.000  C
  H53      1.0000 0.99980  0.79550  0.55760  Biso   1.000  H
  H54      1.0000 0.99000  0.84840  0.48100  Biso   1.000  H
  C46      1.0000 0.92530  0.00360  0.58370  Biso   1.000  C
  H55      1.0000 0.95720  0.01840  0.53400  Biso   1.000  H
  H56      1.0000 0.94600  0.07310  0.64360  Biso   1.000  H
  C47      1.0000 0.74830  0.83270  0.72280  Biso   1.000  C
  C48      1.0000 0.77960  0.66270  0.38110  Biso   1.000  C
  C49      1.0000 0.35390  0.20130  0.13900  Biso   1.000  C
  C50      1.0000 0.34200  0.08760  0.07200  Biso   1.000  C
  H57      1.0000 0.36320  0.08500  0.01210  Biso   1.000  H
  H58      1.0000 0.40050  0.07040  0.11500  Biso   1.000  H
  C51      1.0000 0.21240  0.00650  0.03210  Biso   1.000  C
  C52      1.0000 0.12240  0.03320  0.96780  Biso   1.000  C
  H59      1.0000 0.03690  0.98020  0.94280  Biso   1.000  H
  H60      1.0000 0.13910  0.02940  0.90570  Biso   1.000  H
  C53      1.0000 0.13560  0.14710  0.03530  Biso   1.000  C
  H61      1.0000 0.07590  0.16430  0.99230  Biso   1.000  H
  C54      1.0000 0.26470  0.22850  0.07390  Biso   1.000  C
  H62      1.0000 0.27250  0.30130  0.11700  Biso   1.000  H
  H63      1.0000 0.28420  0.22740  0.01350  Biso   1.000  H
  C55      1.0000 0.32660  0.20420  0.23440  Biso   1.000  C
  H64      1.0000 0.38600  0.18710  0.27660  Biso   1.000  H
  H65      1.0000 0.33530  0.27680  0.27940  Biso   1.000  H
  C56      1.0000 0.19360  0.12080  0.19450  Biso   1.000  C
  H66      1.0000 0.17360  0.12310  0.25560  Biso   1.000  H
  C57      1.0000 0.17800  0.00710  0.12530  Biso   1.000  C
  H67      1.0000 0.09150  0.95500  0.09820  Biso   1.000  H
  H68      1.0000 0.23270  0.98620  0.16710  Biso   1.000  H
  C58      1.0000 0.10490  0.14810  0.12870  Biso   1.000  C
  H69      1.0000 0.11100  0.22010  0.17260  Biso   1.000  H
  H70      1.0000 0.01900  0.09520  0.10250  Biso   1.000  H
  C59      1.0000 0.48240  0.28410  0.17300  Biso   1.000  C
  C60      1.0000 0.19960  0.89650  0.96290  Biso   1.000  C
  C61      1.0000 0.95430  0.42810  0.86630  Biso   1.000  C
  C62      1.0000 0.89030  0.46120  0.94110  Biso   1.000  C
  H71      1.0000 0.94730  0.53180  0.00300  Biso   1.000  H
  H72      1.0000 0.81580  0.46770  0.90450  Biso   1.000  H
  C63      1.0000 0.85370  0.37560  0.97650  Biso   1.000  C
  C64      1.0000 0.96880  0.36880  0.03570  Biso   1.000  C
  H73      1.0000 0.94620  0.31560  0.06070  Biso   1.000  H
  H74      1.0000 0.02600  0.43950  0.09750  Biso   1.000  H
  C65      1.0000 0.03300  0.33420  0.95980  Biso   1.000  C
  H75      1.0000 0.10820  0.32810  0.99770  Biso   1.000  H
  C66      1.0000 0.07190  0.41920  0.92580  Biso   1.000  C
  H76      1.0000 0.11460  0.39900  0.87920  Biso   1.000  H
  H77      1.0000 0.12970  0.48930  0.98800  Biso   1.000  H
  C67      1.0000 0.86690  0.31980  0.77120  Biso   1.000  C
  H78      1.0000 0.79210  0.32460  0.73260  Biso   1.000  H
  H79      1.0000 0.90790  0.29900  0.72330  Biso   1.000  H
  C68      1.0000 0.83050  0.23580  0.80570  Biso   1.000  C
  H80      1.0000 0.77210  0.16490  0.74300  Biso   1.000  H
  C69      1.0000 0.76860  0.26820  0.87990  Biso   1.000  C
  H81      1.0000 0.69270  0.27260  0.84280  Biso   1.000  H
  H82      1.0000 0.74410  0.21250  0.90170  Biso   1.000  H
  C70      1.0000 0.94460  0.22580  0.86580  Biso   1.000  C
  H83      1.0000 0.91900  0.17190  0.88940  Biso   1.000  H
  H84      1.0000 0.98600  0.20170  0.81910  Biso   1.000  H
  C71      1.0000 0.00140  0.51310  0.83520  Biso   1.000  C
  C72      1.0000 0.79340  0.40800  0.05150  Biso   1.000  C
