data_image0
_cell_length_a       13.0696
_cell_length_b       13.0696
_cell_length_c       11.2867
_cell_angle_alpha    90
_cell_angle_beta     90
_cell_angle_gamma    90

_symmetry_space_group_name_H-M    "P 1"
_symmetry_int_tables_number       1

loop_
  _symmetry_equiv_pos_as_xyz
  'x, y, z'

loop_
  _atom_site_label
  _atom_site_occupancy
  _atom_site_fract_x
  _atom_site_fract_y
  _atom_site_fract_z
  _atom_site_thermal_displace_type
  _atom_site_B_iso_or_equiv
  _atom_site_type_symbol
  Mn1      1.0000 0.74303  0.98963  0.10474  Biso   1.000  Mn
  Mn2      1.0000 0.74994  0.21927  0.95790  Biso   1.000  Mn
  O1       1.0000 0.76010  0.05650  0.91930  Biso   1.000  O
  O2       1.0000 0.87240  0.13540  0.80730  Biso   1.000  O
  O3       1.0000 0.08750  0.77210  0.53090  Biso   1.000  O
  O4       1.0000 0.14030  0.90370  0.63840  Biso   1.000  O
  O5       1.0000 0.64300  0.75920  0.12220  Biso   1.000  O
  O6       1.0000 0.62280  0.90490  0.02560  Biso   1.000  O
  O7       1.0000 0.32180  0.75000  0.61610  Biso   1.000  O
  O8       1.0000 0.36760  0.90520  0.67880  Biso   1.000  O
  C1       1.0000 0.82760  0.05520  0.83870  Biso   1.000  C
  C2       1.0000 0.07250  0.84110  0.60910  Biso   1.000  C
  C3       1.0000 0.60260  0.81340  0.04290  Biso   1.000  C
  C4       1.0000 0.36490  0.81020  0.68740  Biso   1.000  C
  C5       1.0000 0.85190  0.95460  0.78160  Biso   1.000  C
  C6       1.0000 0.94460  0.94330  0.72080  Biso   1.000  C
  H1       1.0000 0.98900  0.99860  0.71440  Biso   1.000  H
  C7       1.0000 0.97120  0.84920  0.66960  Biso   1.000  C
  C8       1.0000 0.90540  0.76800  0.67960  Biso   1.000  C
  H2       1.0000 0.92260  0.70510  0.64640  Biso   1.000  H
  C9       1.0000 0.81220  0.77950  0.73980  Biso   1.000  C
  H3       1.0000 0.76730  0.72460  0.74510  Biso   1.000  H
  C10      1.0000 0.78660  0.87220  0.79130  Biso   1.000  C
  H4       1.0000 0.72540  0.87880  0.83250  Biso   1.000  H
  C11      1.0000 0.52520  0.76080  0.96330  Biso   1.000  C
  C12      1.0000 0.48250  0.81110  0.86660  Biso   1.000  C
  H5       1.0000 0.49930  0.87900  0.85130  Biso   1.000  H
  C13      1.0000 0.41440  0.75900  0.79250  Biso   1.000  C
  C14      1.0000 0.38880  0.65820  0.81840  Biso   1.000  C
  H6       1.0000 0.34280  0.62380  0.76980  Biso   1.000  H
  C15      1.0000 0.42990  0.60860  0.91390  Biso   1.000  C
  H7       1.0000 0.41170  0.54120  0.93000  Biso   1.000  H
  C16      1.0000 0.49960  0.65960  0.98720  Biso   1.000  C
  H8       1.0000 0.52860  0.62600  0.05160  Biso   1.000  H
  Mn3      1.0000 0.25697  0.01037  0.60474  Biso   1.000  Mn
  Mn4      1.0000 0.25006  0.78073  0.45790  Biso   1.000  Mn
  O9       1.0000 0.23990  0.94350  0.41930  Biso   1.000  O
  O10      1.0000 0.12760  0.86460  0.30730  Biso   1.000  O
  O11      1.0000 0.91250  0.22790  0.03090  Biso   1.000  O
  O12      1.0000 0.85970  0.09630  0.13840  Biso   1.000  O
  O13      1.0000 0.35700  0.24080  0.62220  Biso   1.000  O
  O14      1.0000 0.37720  0.09510  0.52560  Biso   1.000  O
  O15      1.0000 0.67820  0.25000  0.11610  Biso   1.000  O
  O16      1.0000 0.63240  0.09480  0.17880  Biso   1.000  O
  C17      1.0000 0.17240  0.94480  0.33870  Biso   1.000  C
  C18      1.0000 0.92750  0.15890  0.10910  Biso   1.000  C
  C19      1.0000 0.39740  0.18660  0.54290  Biso   1.000  C
  C20      1.0000 0.63510  0.18980  0.18740  Biso   1.000  C
  C21      1.0000 0.14810  0.04540  0.28160  Biso   1.000  C
  C22      1.0000 0.05540  0.05670  0.22080  Biso   1.000  C
  H9       1.0000 0.01100  0.00140  0.21440  Biso   1.000  H
  C23      1.0000 0.02880  0.15080  0.16960  Biso   1.000  C
  C24      1.0000 0.09460  0.23200  0.17960  Biso   1.000  C
  H10      1.0000 0.07740  0.29490  0.14640  Biso   1.000  H
  C25      1.0000 0.18780  0.22050  0.23980  Biso   1.000  C
  H11      1.0000 0.23270  0.27540  0.24510  Biso   1.000  H
  C26      1.0000 0.21340  0.12780  0.29130  Biso   1.000  C
  H12      1.0000 0.27460  0.12120  0.33250  Biso   1.000  H
  C27      1.0000 0.47480  0.23920  0.46330  Biso   1.000  C
  C28      1.0000 0.51750  0.18890  0.36660  Biso   1.000  C
  H13      1.0000 0.50070  0.12100  0.35130  Biso   1.000  H
  C29      1.0000 0.58560  0.24100  0.29250  Biso   1.000  C
  C30      1.0000 0.61120  0.34180  0.31840  Biso   1.000  C
  H14      1.0000 0.65720  0.37620  0.26980  Biso   1.000  H
  C31      1.0000 0.57010  0.39140  0.41390  Biso   1.000  C
  H15      1.0000 0.58830  0.45880  0.43000  Biso   1.000  H
  C32      1.0000 0.50040  0.34040  0.48720  Biso   1.000  C
  H16      1.0000 0.47140  0.37400  0.55160  Biso   1.000  H
  Mn5      1.0000 0.01037  0.74303  0.35474  Biso   1.000  Mn
  Mn6      1.0000 0.78073  0.74994  0.20790  Biso   1.000  Mn
  O17      1.0000 0.94350  0.76010  0.16930  Biso   1.000  O
  O18      1.0000 0.86460  0.87240  0.05730  Biso   1.000  O
  O19      1.0000 0.22790  0.08750  0.78090  Biso   1.000  O
  O20      1.0000 0.09630  0.14030  0.88840  Biso   1.000  O
  O21      1.0000 0.24080  0.64300  0.37220  Biso   1.000  O
  O22      1.0000 0.09510  0.62280  0.27560  Biso   1.000  O
  O23      1.0000 0.25000  0.32180  0.86610  Biso   1.000  O
  O24      1.0000 0.09480  0.36760  0.92880  Biso   1.000  O
  C33      1.0000 0.94480  0.82760  0.08870  Biso   1.000  C
  C34      1.0000 0.15890  0.07250  0.85910  Biso   1.000  C
  C35      1.0000 0.18660  0.60260  0.29290  Biso   1.000  C
  C36      1.0000 0.18980  0.36490  0.93740  Biso   1.000  C
  C37      1.0000 0.04540  0.85190  0.03160  Biso   1.000  C
  C38      1.0000 0.05670  0.94460  0.97080  Biso   1.000  C
  H17      1.0000 0.00140  0.98900  0.96440  Biso   1.000  H
  C39      1.0000 0.15080  0.97120  0.91960  Biso   1.000  C
  C40      1.0000 0.23200  0.90540  0.92960  Biso   1.000  C
  H18      1.0000 0.29490  0.92260  0.89640  Biso   1.000  H
  C41      1.0000 0.22050  0.81220  0.98980  Biso   1.000  C
  H19      1.0000 0.27540  0.76730  0.99510  Biso   1.000  H
  C42      1.0000 0.12780  0.78660  0.04130  Biso   1.000  C
  H20      1.0000 0.12120  0.72540  0.08250  Biso   1.000  H
  C43      1.0000 0.23920  0.52520  0.21330  Biso   1.000  C
  C44      1.0000 0.18890  0.48250  0.11660  Biso   1.000  C
  H21      1.0000 0.12100  0.49930  0.10130  Biso   1.000  H
  C45      1.0000 0.24100  0.41440  0.04250  Biso   1.000  C
  C46      1.0000 0.34180  0.38880  0.06840  Biso   1.000  C
  H22      1.0000 0.37620  0.34280  0.01980  Biso   1.000  H
  C47      1.0000 0.39140  0.42990  0.16390  Biso   1.000  C
  H23      1.0000 0.45880  0.41170  0.18000  Biso   1.000  H
  C48      1.0000 0.34040  0.49960  0.23720  Biso   1.000  C
  H24      1.0000 0.37400  0.52860  0.30160  Biso   1.000  H
  Mn7      1.0000 0.98963  0.25697  0.85474  Biso   1.000  Mn
  Mn8      1.0000 0.21927  0.25006  0.70790  Biso   1.000  Mn
  O25      1.0000 0.05650  0.23990  0.66930  Biso   1.000  O
  O26      1.0000 0.13540  0.12760  0.55730  Biso   1.000  O
  O27      1.0000 0.77210  0.91250  0.28090  Biso   1.000  O
  O28      1.0000 0.90370  0.85970  0.38840  Biso   1.000  O
  O29      1.0000 0.75920  0.35700  0.87220  Biso   1.000  O
  O30      1.0000 0.90490  0.37720  0.77560  Biso   1.000  O
  O31      1.0000 0.75000  0.67820  0.36610  Biso   1.000  O
  O32      1.0000 0.90520  0.63240  0.42880  Biso   1.000  O
  C49      1.0000 0.05520  0.17240  0.58870  Biso   1.000  C
  C50      1.0000 0.84110  0.92750  0.35910  Biso   1.000  C
  C51      1.0000 0.81340  0.39740  0.79290  Biso   1.000  C
  C52      1.0000 0.81020  0.63510  0.43740  Biso   1.000  C
  C53      1.0000 0.95460  0.14810  0.53160  Biso   1.000  C
  C54      1.0000 0.94330  0.05540  0.47080  Biso   1.000  C
  H25      1.0000 0.99860  0.01100  0.46440  Biso   1.000  H
  C55      1.0000 0.84920  0.02880  0.41960  Biso   1.000  C
  C56      1.0000 0.76800  0.09460  0.42960  Biso   1.000  C
  H26      1.0000 0.70510  0.07740  0.39640  Biso   1.000  H
  C57      1.0000 0.77950  0.18780  0.48980  Biso   1.000  C
  H27      1.0000 0.72460  0.23270  0.49510  Biso   1.000  H
  C58      1.0000 0.87220  0.21340  0.54130  Biso   1.000  C
  H28      1.0000 0.87880  0.27460  0.58250  Biso   1.000  H
  C59      1.0000 0.76080  0.47480  0.71330  Biso   1.000  C
  C60      1.0000 0.81110  0.51750  0.61660  Biso   1.000  C
  H29      1.0000 0.87900  0.50070  0.60130  Biso   1.000  H
  C61      1.0000 0.75900  0.58560  0.54250  Biso   1.000  C
  C62      1.0000 0.65820  0.61120  0.56840  Biso   1.000  C
  H30      1.0000 0.62380  0.65720  0.51980  Biso   1.000  H
  C63      1.0000 0.60860  0.57010  0.66390  Biso   1.000  C
  H31      1.0000 0.54120  0.58830  0.68000  Biso   1.000  H
  C64      1.0000 0.65960  0.50040  0.73720  Biso   1.000  C
  H32      1.0000 0.62600  0.47140  0.80160  Biso   1.000  H
