data_image0
_cell_length_a       23.604
_cell_length_b       41.954
_cell_length_c       11.675
_cell_angle_alpha    90
_cell_angle_beta     116.908
_cell_angle_gamma    90

_symmetry_space_group_name_H-M    "P 1"
_symmetry_int_tables_number       1

loop_
  _symmetry_equiv_pos_as_xyz
  'x, y, z'

loop_
  _atom_site_label
  _atom_site_occupancy
  _atom_site_fract_x
  _atom_site_fract_y
  _atom_site_fract_z
  _atom_site_thermal_displace_type
  _atom_site_B_iso_or_equiv
  _atom_site_type_symbol
  Mn1      1.0000 0.82281  0.12288  0.51320  Biso   1.000  Mn
  Mn2      1.0000 0.91077  0.14929  0.83268  Biso   1.000  Mn
  Mn3      1.0000 0.82158  0.17162  0.01443  Biso   1.000  Mn
  Mn4      1.0000 0.73149  0.14606  0.18611  Biso   1.000  Mn
  S1       1.0000 0.00800  0.27882  0.37540  Biso   1.000  S
  S2       1.0000 0.07260  0.95947  0.82010  Biso   1.000  S
  S3       1.0000 0.57270  0.04146  0.71001  Biso   1.000  S
  S4       1.0000 0.45295  0.14949  0.36830  Biso   1.000  S
  S5       1.0000 0.70589  0.35254  0.12990  Biso   1.000  S
  O1       1.0000 0.88430  0.16315  0.58380  Biso   1.000  O
  O2       1.0000 0.97280  0.16830  0.75890  Biso   1.000  O
  O3       1.0000 0.89680  0.09082  0.61440  Biso   1.000  O
  O4       1.0000 0.93970  0.10152  0.82460  Biso   1.000  O
  O5       1.0000 0.80540  0.12824  0.68010  Biso   1.000  O
  O6       1.0000 0.83195  0.13349  0.88510  Biso   1.000  O
  O7       1.0000 0.72310  0.16946  0.90650  Biso   1.000  O
  O8       1.0000 0.66600  0.14580  0.99230  Biso   1.000  O
  O9       1.0000 0.81310  0.20395  0.14730  Biso   1.000  O
  O10      1.0000 0.73610  0.19512  0.20040  Biso   1.000  O
  O11      1.0000 0.11940  0.20990  0.99650  Biso   1.000  O
  O12      1.0000 0.20310  0.21310  0.17470  Biso   1.000  O
  H1       1.0000 0.21910  0.20400  0.13400  Biso   1.000  H
  O13      1.0000 0.83860  0.87286  0.84330  Biso   1.000  O
  O14      1.0000 0.81130  0.86820  0.63820  Biso   1.000  O
  O15      1.0000 0.70210  0.89970  0.70750  Biso   1.000  O
  O16      1.0000 0.75430  0.91264  0.91690  Biso   1.000  O
  O17      1.0000 0.37220  0.30364  0.29630  Biso   1.000  O
  O18      1.0000 0.32630  0.28765  0.41170  Biso   1.000  O
  O19      1.0000 0.47580  0.34593  0.52550  Biso   1.000  O
  O20      1.0000 0.42110  0.33111  0.63090  Biso   1.000  O
  O21      1.0000 0.94890  0.29129  0.27740  Biso   1.000  O
  O22      1.0000 0.05280  0.29984  0.47530  Biso   1.000  O
  O23      1.0000 0.12110  0.95741  0.94930  Biso   1.000  O
  O24      1.0000 0.08860  0.95416  0.71530  Biso   1.000  O
  O25      1.0000 0.55760  0.04800  0.81330  Biso   1.000  O
  O26      1.0000 0.52340  0.04326  0.57880  Biso   1.000  O
  O27      1.0000 0.40720  0.12713  0.36910  Biso   1.000  O
  O28      1.0000 0.47710  0.14700  0.27300  Biso   1.000  O
  O29      1.0000 0.75580  0.37083  0.11010  Biso   1.000  O
  O30      1.0000 0.68710  0.36214  0.22560  Biso   1.000  O
  C1       1.0000 0.93490  0.17564  0.63620  Biso   1.000  C
  C2       1.0000 0.14460  0.21500  0.10740  Biso   1.000  C
  C3       1.0000 0.93590  0.22960  0.38690  Biso   1.000  C
  H2       1.0000 0.91050  0.23320  0.29980  Biso   1.000  H
  C4       1.0000 0.91980  0.20678  0.44960  Biso   1.000  C
  H3       1.0000 0.88260  0.19520  0.40440  Biso   1.000  H
  C5       1.0000 0.95740  0.20014  0.57970  Biso   1.000  C
  C6       1.0000 0.01340  0.21665  0.64440  Biso   1.000  C
  H4       1.0000 0.04070  0.21170  0.72950  Biso   1.000  H
  C7       1.0000 0.02870  0.24049  0.58220  Biso   1.000  C
  H5       1.0000 0.06560  0.25230  0.62720  Biso   1.000  H
  C8       1.0000 0.99000  0.24729  0.45330  Biso   1.000  C
  C9       1.0000 0.04670  0.23360  0.11720  Biso   1.000  C
  H6       1.0000 0.02330  0.22480  0.03610  Biso   1.000  H
  C10      1.0000 0.01730  0.24730  0.18180  Biso   1.000  C
  H7       1.0000 0.97310  0.24780  0.14390  Biso   1.000  H
  C11      1.0000 0.05130  0.26030  0.30160  Biso   1.000  C
  C12      1.0000 0.11510  0.26010  0.36450  Biso   1.000  C
  H8       1.0000 0.13750  0.26860  0.44660  Biso   1.000  H
  C13      1.0000 0.14570  0.24640  0.29840  Biso   1.000  C
  H9       1.0000 0.18980  0.24600  0.33750  Biso   1.000  H
  C14      1.0000 0.11200  0.23320  0.17480  Biso   1.000  C
  C15      1.0000 0.85010  0.87815  0.75150  Biso   1.000  C
  C16      1.0000 0.93330  0.08492  0.73210  Biso   1.000  C
  C17      1.0000 0.04360  0.01612  0.89980  Biso   1.000  C
  H10      1.0000 0.07010  0.00930  0.98290  Biso   1.000  H
  C18      1.0000 0.01200  0.04378  0.88040  Biso   1.000  C
  H11      1.0000 0.01680  0.05600  0.95070  Biso   1.000  H
  C19      1.0000 0.97150  0.05463  0.75540  Biso   1.000  C
  C20      1.0000 0.99800  0.00779  0.67400  Biso   1.000  C
  H12      1.0000 0.99350  0.99530  0.60440  Biso   1.000  H
  C21      1.0000 0.03670  0.99823  0.79820  Biso   1.000  C
  C22      1.0000 0.96710  0.03548  0.65640  Biso   1.000  C
  H13      1.0000 0.94130  0.04210  0.57270  Biso   1.000  H
  C23      1.0000 0.95090  0.90648  0.89090  Biso   1.000  C
  H14      1.0000 0.94600  0.90020  0.96240  Biso   1.000  H
  C24      1.0000 0.00250  0.92505  0.90580  Biso   1.000  C
  H15      1.0000 0.03240  0.93160  0.98700  Biso   1.000  H
  C25      1.0000 0.00830  0.93351  0.79930  Biso   1.000  C
  C26      1.0000 0.96580  0.92454  0.67670  Biso   1.000  C
  H16      1.0000 0.97130  0.93060  0.60580  Biso   1.000  H
  C27      1.0000 0.91500  0.90624  0.66340  Biso   1.000  C
  H17      1.0000 0.88570  0.89980  0.58160  Biso   1.000  H
  C28      1.0000 0.90580  0.89712  0.76640  Biso   1.000  C
  C29      1.0000 0.47000  0.33999  0.62480  Biso   1.000  C
  C30      1.0000 0.79550  0.12293  0.77580  Biso   1.000  C
  C31      1.0000 0.71350  0.91727  0.80390  Biso   1.000  C
  C32      1.0000 0.67980  0.07518  0.84640  Biso   1.000  C
  H18      1.0000 0.67470  0.06880  0.91750  Biso   1.000  H
  C33      1.0000 0.73240  0.09327  0.86460  Biso   1.000  C
  H19      1.0000 0.76300  0.09860  0.94680  Biso   1.000  H
  C34      1.0000 0.73850  0.10337  0.75520  Biso   1.000  C
  C35      1.0000 0.69230  0.09539  0.63480  Biso   1.000  C
  H20      1.0000 0.69560  0.10270  0.56290  Biso   1.000  H
  C36      1.0000 0.64120  0.07677  0.61860  Biso   1.000  C
  H21      1.0000 0.61090  0.07110  0.53660  Biso   1.000  H
  C37      1.0000 0.63520  0.06659  0.72610  Biso   1.000  C
  C38      1.0000 0.63340  0.95580  0.65260  Biso   1.000  C
  H22      1.0000 0.62780  0.94270  0.58400  Biso   1.000  H
  C39      1.0000 0.60010  0.98483  0.63070  Biso   1.000  C
  H23      1.0000 0.57310  0.99130  0.54740  Biso   1.000  H
  C40      1.0000 0.60820  0.00393  0.73550  Biso   1.000  C
  C41      1.0000 0.64730  0.99422  0.85980  Biso   1.000  C
  H24      1.0000 0.65190  0.00690  0.92890  Biso   1.000  H
  C42      1.0000 0.68010  0.96518  0.88150  Biso   1.000  C
  H25      1.0000 0.70530  0.95820  0.96500  Biso   1.000  H
  C43      1.0000 0.67450  0.94690  0.77740  Biso   1.000  C
  C44      1.0000 0.67240  0.15718  0.90000  Biso   1.000  C
  C45      1.0000 0.35840  0.28297  0.35350  Biso   1.000  C
  C46      1.0000 0.44480  0.21296  0.30690  Biso   1.000  C
  H26      1.0000 0.47560  0.20900  0.27960  Biso   1.000  H
  C47      1.0000 0.42330  0.24251  0.30590  Biso   1.000  C
  H27      1.0000 0.44040  0.25930  0.27950  Biso   1.000  H
  C48      1.0000 0.37590  0.24909  0.34300  Biso   1.000  C
  C49      1.0000 0.35080  0.22461  0.38400  Biso   1.000  C
  H28      1.0000 0.31990  0.22860  0.41070  Biso   1.000  H
  C50      1.0000 0.37290  0.19347  0.38450  Biso   1.000  C
  H29      1.0000 0.35540  0.17640  0.40840  Biso   1.000  H
  C51      1.0000 0.42000  0.18850  0.34980  Biso   1.000  C
  C52      1.0000 0.56280  0.14105  0.74850  Biso   1.000  C
  H30      1.0000 0.55950  0.13300  0.81950  Biso   1.000  H
  C53      1.0000 0.51020  0.13820  0.62480  Biso   1.000  C
  H31      1.0000 0.47250  0.12870  0.61360  Biso   1.000  H
  C54      1.0000 0.51700  0.15005  0.52360  Biso   1.000  C
  C55      1.0000 0.57530  0.16440  0.54230  Biso   1.000  C
  H32      1.0000 0.58100  0.17200  0.47340  Biso   1.000  H
  C56      1.0000 0.62200  0.16670  0.66500  Biso   1.000  C
  H33      1.0000 0.65950  0.17700  0.67910  Biso   1.000  H
  C57      1.0000 0.61700  0.15509  0.76500  Biso   1.000  C
  C58      1.0000 0.77030  0.21253  0.17400  Biso   1.000  C
  C59      1.0000 0.58130  0.34254  0.98050  Biso   1.000  C
  H34      1.0000 0.58000  0.33970  0.05830  Biso   1.000  H
  C60      1.0000 0.52720  0.33868  0.86690  Biso   1.000  C
  H35      1.0000 0.48930  0.33300  0.86770  Biso   1.000  H
  C61      1.0000 0.52900  0.34331  0.75030  Biso   1.000  C
  C62      1.0000 0.58620  0.35240  0.75320  Biso   1.000  C
  H36      1.0000 0.58830  0.35640  0.67690  Biso   1.000  H
  C63      1.0000 0.63940  0.35540  0.86800  Biso   1.000  C
  H37      1.0000 0.67790  0.36100  0.86940  Biso   1.000  H
  C64      1.0000 0.63650  0.35045  0.97890  Biso   1.000  C
  C65      1.0000 0.73000  0.31243  0.15460  Biso   1.000  C
  C66      1.0000 0.71830  0.25937  0.21780  Biso   1.000  C
  H38      1.0000 0.70100  0.24550  0.25560  Biso   1.000  H
  C67      1.0000 0.70340  0.29209  0.20760  Biso   1.000  C
  H39      1.0000 0.67550  0.29980  0.23720  Biso   1.000  H
  C68      1.0000 0.77320  0.30122  0.11610  Biso   1.000  C
  H40      1.0000 0.79210  0.31530  0.08220  Biso   1.000  H
  C69      1.0000 0.78870  0.26997  0.12660  Biso   1.000  C
  H41      1.0000 0.81960  0.26290  0.10390  Biso   1.000  H
  C70      1.0000 0.75820  0.24825  0.17180  Biso   1.000  C
  Mn5      1.0000 0.32281  0.62288  0.51320  Biso   1.000  Mn
  Mn6      1.0000 0.41077  0.64929  0.83268  Biso   1.000  Mn
  Mn7      1.0000 0.32158  0.67162  0.01443  Biso   1.000  Mn
  Mn8      1.0000 0.23149  0.64606  0.18611  Biso   1.000  Mn
  S6       1.0000 0.50800  0.77882  0.37540  Biso   1.000  S
  S7       1.0000 0.57260  0.45947  0.82010  Biso   1.000  S
  S8       1.0000 0.07270  0.54146  0.71001  Biso   1.000  S
  S9       1.0000 0.95295  0.64949  0.36830  Biso   1.000  S
  S10      1.0000 0.20589  0.85254  0.12990  Biso   1.000  S
  O31      1.0000 0.38430  0.66315  0.58380  Biso   1.000  O
  O32      1.0000 0.47280  0.66830  0.75890  Biso   1.000  O
  O33      1.0000 0.39680  0.59082  0.61440  Biso   1.000  O
  O34      1.0000 0.43970  0.60152  0.82460  Biso   1.000  O
  O35      1.0000 0.30540  0.62824  0.68010  Biso   1.000  O
  O36      1.0000 0.33195  0.63349  0.88510  Biso   1.000  O
  O37      1.0000 0.22310  0.66946  0.90650  Biso   1.000  O
  O38      1.0000 0.16600  0.64580  0.99230  Biso   1.000  O
  O39      1.0000 0.31310  0.70395  0.14730  Biso   1.000  O
  O40      1.0000 0.23610  0.69512  0.20040  Biso   1.000  O
  O41      1.0000 0.61940  0.70990  0.99650  Biso   1.000  O
  O42      1.0000 0.70310  0.71310  0.17470  Biso   1.000  O
  H42      1.0000 0.71910  0.70400  0.13400  Biso   1.000  H
  O43      1.0000 0.33860  0.37286  0.84330  Biso   1.000  O
  O44      1.0000 0.31130  0.36820  0.63820  Biso   1.000  O
  O45      1.0000 0.20210  0.39970  0.70750  Biso   1.000  O
  O46      1.0000 0.25430  0.41264  0.91690  Biso   1.000  O
  O47      1.0000 0.87220  0.80364  0.29630  Biso   1.000  O
  O48      1.0000 0.82630  0.78765  0.41170  Biso   1.000  O
  O49      1.0000 0.97580  0.84593  0.52550  Biso   1.000  O
  O50      1.0000 0.92110  0.83111  0.63090  Biso   1.000  O
  O51      1.0000 0.44890  0.79129  0.27740  Biso   1.000  O
  O52      1.0000 0.55280  0.79984  0.47530  Biso   1.000  O
  O53      1.0000 0.62110  0.45741  0.94930  Biso   1.000  O
  O54      1.0000 0.58860  0.45416  0.71530  Biso   1.000  O
  O55      1.0000 0.05760  0.54800  0.81330  Biso   1.000  O
  O56      1.0000 0.02340  0.54326  0.57880  Biso   1.000  O
  O57      1.0000 0.90720  0.62713  0.36910  Biso   1.000  O
  O58      1.0000 0.97710  0.64700  0.27300  Biso   1.000  O
  O59      1.0000 0.25580  0.87083  0.11010  Biso   1.000  O
  O60      1.0000 0.18710  0.86214  0.22560  Biso   1.000  O
  C71      1.0000 0.43490  0.67564  0.63620  Biso   1.000  C
  C72      1.0000 0.64460  0.71500  0.10740  Biso   1.000  C
  C73      1.0000 0.43590  0.72960  0.38690  Biso   1.000  C
  H43      1.0000 0.41050  0.73320  0.29980  Biso   1.000  H
  C74      1.0000 0.41980  0.70678  0.44960  Biso   1.000  C
  H44      1.0000 0.38260  0.69520  0.40440  Biso   1.000  H
  C75      1.0000 0.45740  0.70014  0.57970  Biso   1.000  C
  C76      1.0000 0.51340  0.71665  0.64440  Biso   1.000  C
  H45      1.0000 0.54070  0.71170  0.72950  Biso   1.000  H
  C77      1.0000 0.52870  0.74049  0.58220  Biso   1.000  C
  H46      1.0000 0.56560  0.75230  0.62720  Biso   1.000  H
  C78      1.0000 0.49000  0.74729  0.45330  Biso   1.000  C
  C79      1.0000 0.54670  0.73360  0.11720  Biso   1.000  C
  H47      1.0000 0.52330  0.72480  0.03610  Biso   1.000  H
  C80      1.0000 0.51730  0.74730  0.18180  Biso   1.000  C
  H48      1.0000 0.47310  0.74780  0.14390  Biso   1.000  H
  C81      1.0000 0.55130  0.76030  0.30160  Biso   1.000  C
  C82      1.0000 0.61510  0.76010  0.36450  Biso   1.000  C
  H49      1.0000 0.63750  0.76860  0.44660  Biso   1.000  H
  C83      1.0000 0.64570  0.74640  0.29840  Biso   1.000  C
  H50      1.0000 0.68980  0.74600  0.33750  Biso   1.000  H
  C84      1.0000 0.61200  0.73320  0.17480  Biso   1.000  C
  C85      1.0000 0.35010  0.37815  0.75150  Biso   1.000  C
  C86      1.0000 0.43330  0.58492  0.73210  Biso   1.000  C
  C87      1.0000 0.54360  0.51612  0.89980  Biso   1.000  C
  H51      1.0000 0.57010  0.50930  0.98290  Biso   1.000  H
  C88      1.0000 0.51200  0.54378  0.88040  Biso   1.000  C
  H52      1.0000 0.51680  0.55600  0.95070  Biso   1.000  H
  C89      1.0000 0.47150  0.55463  0.75540  Biso   1.000  C
  C90      1.0000 0.49800  0.50779  0.67400  Biso   1.000  C
  H53      1.0000 0.49350  0.49530  0.60440  Biso   1.000  H
  C91      1.0000 0.53670  0.49823  0.79820  Biso   1.000  C
  C92      1.0000 0.46710  0.53548  0.65640  Biso   1.000  C
  H54      1.0000 0.44130  0.54210  0.57270  Biso   1.000  H
  C93      1.0000 0.45090  0.40648  0.89090  Biso   1.000  C
  H55      1.0000 0.44600  0.40020  0.96240  Biso   1.000  H
  C94      1.0000 0.50250  0.42505  0.90580  Biso   1.000  C
  H56      1.0000 0.53240  0.43160  0.98700  Biso   1.000  H
  C95      1.0000 0.50830  0.43351  0.79930  Biso   1.000  C
  C96      1.0000 0.46580  0.42454  0.67670  Biso   1.000  C
  H57      1.0000 0.47130  0.43060  0.60580  Biso   1.000  H
  C97      1.0000 0.41500  0.40624  0.66340  Biso   1.000  C
  H58      1.0000 0.38570  0.39980  0.58160  Biso   1.000  H
  C98      1.0000 0.40580  0.39712  0.76640  Biso   1.000  C
  C99      1.0000 0.97000  0.83999  0.62480  Biso   1.000  C
  C100     1.0000 0.29550  0.62293  0.77580  Biso   1.000  C
  C101     1.0000 0.21350  0.41727  0.80390  Biso   1.000  C
  C102     1.0000 0.17980  0.57518  0.84640  Biso   1.000  C
  H59      1.0000 0.17470  0.56880  0.91750  Biso   1.000  H
  C103     1.0000 0.23240  0.59327  0.86460  Biso   1.000  C
  H60      1.0000 0.26300  0.59860  0.94680  Biso   1.000  H
  C104     1.0000 0.23850  0.60337  0.75520  Biso   1.000  C
  C105     1.0000 0.19230  0.59539  0.63480  Biso   1.000  C
  H61      1.0000 0.19560  0.60270  0.56290  Biso   1.000  H
  C106     1.0000 0.14120  0.57677  0.61860  Biso   1.000  C
  H62      1.0000 0.11090  0.57110  0.53660  Biso   1.000  H
  C107     1.0000 0.13520  0.56659  0.72610  Biso   1.000  C
  C108     1.0000 0.13340  0.45580  0.65260  Biso   1.000  C
  H63      1.0000 0.12780  0.44270  0.58400  Biso   1.000  H
  C109     1.0000 0.10010  0.48483  0.63070  Biso   1.000  C
  H64      1.0000 0.07310  0.49130  0.54740  Biso   1.000  H
  C110     1.0000 0.10820  0.50393  0.73550  Biso   1.000  C
  C111     1.0000 0.14730  0.49422  0.85980  Biso   1.000  C
  H65      1.0000 0.15190  0.50690  0.92890  Biso   1.000  H
  C112     1.0000 0.18010  0.46518  0.88150  Biso   1.000  C
  H66      1.0000 0.20530  0.45820  0.96500  Biso   1.000  H
  C113     1.0000 0.17450  0.44690  0.77740  Biso   1.000  C
  C114     1.0000 0.17240  0.65718  0.90000  Biso   1.000  C
  C115     1.0000 0.85840  0.78297  0.35350  Biso   1.000  C
  C116     1.0000 0.94480  0.71296  0.30690  Biso   1.000  C
  H67      1.0000 0.97560  0.70900  0.27960  Biso   1.000  H
  C117     1.0000 0.92330  0.74251  0.30590  Biso   1.000  C
  H68      1.0000 0.94040  0.75930  0.27950  Biso   1.000  H
  C118     1.0000 0.87590  0.74909  0.34300  Biso   1.000  C
  C119     1.0000 0.85080  0.72461  0.38400  Biso   1.000  C
  H69      1.0000 0.81990  0.72860  0.41070  Biso   1.000  H
  C120     1.0000 0.87290  0.69347  0.38450  Biso   1.000  C
  H70      1.0000 0.85540  0.67640  0.40840  Biso   1.000  H
  C121     1.0000 0.92000  0.68850  0.34980  Biso   1.000  C
  C122     1.0000 0.06280  0.64105  0.74850  Biso   1.000  C
  H71      1.0000 0.05950  0.63300  0.81950  Biso   1.000  H
  C123     1.0000 0.01020  0.63820  0.62480  Biso   1.000  C
  H72      1.0000 0.97250  0.62870  0.61360  Biso   1.000  H
  C124     1.0000 0.01700  0.65005  0.52360  Biso   1.000  C
  C125     1.0000 0.07530  0.66440  0.54230  Biso   1.000  C
  H73      1.0000 0.08100  0.67200  0.47340  Biso   1.000  H
  C126     1.0000 0.12200  0.66670  0.66500  Biso   1.000  C
  H74      1.0000 0.15950  0.67700  0.67910  Biso   1.000  H
  C127     1.0000 0.11700  0.65509  0.76500  Biso   1.000  C
  C128     1.0000 0.27030  0.71253  0.17400  Biso   1.000  C
  C129     1.0000 0.08130  0.84254  0.98050  Biso   1.000  C
  H75      1.0000 0.08000  0.83970  0.05830  Biso   1.000  H
  C130     1.0000 0.02720  0.83868  0.86690  Biso   1.000  C
  H76      1.0000 0.98930  0.83300  0.86770  Biso   1.000  H
  C131     1.0000 0.02900  0.84331  0.75030  Biso   1.000  C
  C132     1.0000 0.08620  0.85240  0.75320  Biso   1.000  C
  H77      1.0000 0.08830  0.85640  0.67690  Biso   1.000  H
  C133     1.0000 0.13940  0.85540  0.86800  Biso   1.000  C
  H78      1.0000 0.17790  0.86100  0.86940  Biso   1.000  H
  C134     1.0000 0.13650  0.85045  0.97890  Biso   1.000  C
  C135     1.0000 0.23000  0.81243  0.15460  Biso   1.000  C
  C136     1.0000 0.21830  0.75937  0.21780  Biso   1.000  C
  H79      1.0000 0.20100  0.74550  0.25560  Biso   1.000  H
  C137     1.0000 0.20340  0.79209  0.20760  Biso   1.000  C
  H80      1.0000 0.17550  0.79980  0.23720  Biso   1.000  H
  C138     1.0000 0.27320  0.80122  0.11610  Biso   1.000  C
  H81      1.0000 0.29210  0.81530  0.08220  Biso   1.000  H
  C139     1.0000 0.28870  0.76997  0.12660  Biso   1.000  C
  H82      1.0000 0.31960  0.76290  0.10390  Biso   1.000  H
  C140     1.0000 0.25820  0.74825  0.17180  Biso   1.000  C
  Mn9      1.0000 0.82281  0.87712  0.01320  Biso   1.000  Mn
  Mn10     1.0000 0.91077  0.85071  0.33268  Biso   1.000  Mn
  Mn11     1.0000 0.82158  0.82838  0.51443  Biso   1.000  Mn
  Mn12     1.0000 0.73149  0.85394  0.68611  Biso   1.000  Mn
  S11      1.0000 0.00800  0.72118  0.87540  Biso   1.000  S
  S12      1.0000 0.07260  0.04053  0.32010  Biso   1.000  S
  S13      1.0000 0.57270  0.95854  0.21001  Biso   1.000  S
  S14      1.0000 0.45295  0.85051  0.86830  Biso   1.000  S
  S15      1.0000 0.70589  0.64746  0.62990  Biso   1.000  S
  O61      1.0000 0.88430  0.83685  0.08380  Biso   1.000  O
  O62      1.0000 0.97280  0.83170  0.25890  Biso   1.000  O
  O63      1.0000 0.89680  0.90918  0.11440  Biso   1.000  O
  O64      1.0000 0.93970  0.89848  0.32460  Biso   1.000  O
  O65      1.0000 0.80540  0.87176  0.18010  Biso   1.000  O
  O66      1.0000 0.83195  0.86651  0.38510  Biso   1.000  O
  O67      1.0000 0.72310  0.83054  0.40650  Biso   1.000  O
  O68      1.0000 0.66600  0.85420  0.49230  Biso   1.000  O
  O69      1.0000 0.81310  0.79605  0.64730  Biso   1.000  O
  O70      1.0000 0.73610  0.80488  0.70040  Biso   1.000  O
  O71      1.0000 0.11940  0.79010  0.49650  Biso   1.000  O
  O72      1.0000 0.20310  0.78690  0.67470  Biso   1.000  O
  H83      1.0000 0.21910  0.79600  0.63400  Biso   1.000  H
  O73      1.0000 0.83860  0.12714  0.34330  Biso   1.000  O
  O74      1.0000 0.81130  0.13180  0.13820  Biso   1.000  O
  O75      1.0000 0.70210  0.10030  0.20750  Biso   1.000  O
  O76      1.0000 0.75430  0.08736  0.41690  Biso   1.000  O
  O77      1.0000 0.37220  0.69636  0.79630  Biso   1.000  O
  O78      1.0000 0.32630  0.71235  0.91170  Biso   1.000  O
  O79      1.0000 0.47580  0.65407  0.02550  Biso   1.000  O
  O80      1.0000 0.42110  0.66889  0.13090  Biso   1.000  O
  O81      1.0000 0.94890  0.70871  0.77740  Biso   1.000  O
  O82      1.0000 0.05280  0.70016  0.97530  Biso   1.000  O
  O83      1.0000 0.12110  0.04259  0.44930  Biso   1.000  O
  O84      1.0000 0.08860  0.04584  0.21530  Biso   1.000  O
  O85      1.0000 0.55760  0.95200  0.31330  Biso   1.000  O
  O86      1.0000 0.52340  0.95674  0.07880  Biso   1.000  O
  O87      1.0000 0.40720  0.87287  0.86910  Biso   1.000  O
  O88      1.0000 0.47710  0.85300  0.77300  Biso   1.000  O
  O89      1.0000 0.75580  0.62917  0.61010  Biso   1.000  O
  O90      1.0000 0.68710  0.63786  0.72560  Biso   1.000  O
  C141     1.0000 0.93490  0.82436  0.13620  Biso   1.000  C
  C142     1.0000 0.14460  0.78500  0.60740  Biso   1.000  C
  C143     1.0000 0.93590  0.77040  0.88690  Biso   1.000  C
  H84      1.0000 0.91050  0.76680  0.79980  Biso   1.000  H
  C144     1.0000 0.91980  0.79322  0.94960  Biso   1.000  C
  H85      1.0000 0.88260  0.80480  0.90440  Biso   1.000  H
  C145     1.0000 0.95740  0.79986  0.07970  Biso   1.000  C
  C146     1.0000 0.01340  0.78335  0.14440  Biso   1.000  C
  H86      1.0000 0.04070  0.78830  0.22950  Biso   1.000  H
  C147     1.0000 0.02870  0.75951  0.08220  Biso   1.000  C
  H87      1.0000 0.06560  0.74770  0.12720  Biso   1.000  H
  C148     1.0000 0.99000  0.75271  0.95330  Biso   1.000  C
  C149     1.0000 0.04670  0.76640  0.61720  Biso   1.000  C
  H88      1.0000 0.02330  0.77520  0.53610  Biso   1.000  H
  C150     1.0000 0.01730  0.75270  0.68180  Biso   1.000  C
  H89      1.0000 0.97310  0.75220  0.64390  Biso   1.000  H
  C151     1.0000 0.05130  0.73970  0.80160  Biso   1.000  C
  C152     1.0000 0.11510  0.73990  0.86450  Biso   1.000  C
  H90      1.0000 0.13750  0.73140  0.94660  Biso   1.000  H
  C153     1.0000 0.14570  0.75360  0.79840  Biso   1.000  C
  H91      1.0000 0.18980  0.75400  0.83750  Biso   1.000  H
  C154     1.0000 0.11200  0.76680  0.67480  Biso   1.000  C
  C155     1.0000 0.85010  0.12185  0.25150  Biso   1.000  C
  C156     1.0000 0.93330  0.91508  0.23210  Biso   1.000  C
  C157     1.0000 0.04360  0.98388  0.39980  Biso   1.000  C
  H92      1.0000 0.07010  0.99070  0.48290  Biso   1.000  H
  C158     1.0000 0.01200  0.95622  0.38040  Biso   1.000  C
  H93      1.0000 0.01680  0.94400  0.45070  Biso   1.000  H
  C159     1.0000 0.97150  0.94537  0.25540  Biso   1.000  C
  C160     1.0000 0.99800  0.99221  0.17400  Biso   1.000  C
  H94      1.0000 0.99350  0.00470  0.10440  Biso   1.000  H
  C161     1.0000 0.03670  0.00177  0.29820  Biso   1.000  C
  C162     1.0000 0.96710  0.96452  0.15640  Biso   1.000  C
  H95      1.0000 0.94130  0.95790  0.07270  Biso   1.000  H
  C163     1.0000 0.95090  0.09352  0.39090  Biso   1.000  C
  H96      1.0000 0.94600  0.09980  0.46240  Biso   1.000  H
  C164     1.0000 0.00250  0.07495  0.40580  Biso   1.000  C
  H97      1.0000 0.03240  0.06840  0.48700  Biso   1.000  H
  C165     1.0000 0.00830  0.06649  0.29930  Biso   1.000  C
  C166     1.0000 0.96580  0.07546  0.17670  Biso   1.000  C
  H98      1.0000 0.97130  0.06940  0.10580  Biso   1.000  H
  C167     1.0000 0.91500  0.09376  0.16340  Biso   1.000  C
  H99      1.0000 0.88570  0.10020  0.08160  Biso   1.000  H
  C168     1.0000 0.90580  0.10288  0.26640  Biso   1.000  C
  C169     1.0000 0.47000  0.66001  0.12480  Biso   1.000  C
  C170     1.0000 0.79550  0.87707  0.27580  Biso   1.000  C
  C171     1.0000 0.71350  0.08273  0.30390  Biso   1.000  C
  C172     1.0000 0.67980  0.92482  0.34640  Biso   1.000  C
  H100     1.0000 0.67470  0.93120  0.41750  Biso   1.000  H
  C173     1.0000 0.73240  0.90673  0.36460  Biso   1.000  C
  H101     1.0000 0.76300  0.90140  0.44680  Biso   1.000  H
  C174     1.0000 0.73850  0.89663  0.25520  Biso   1.000  C
  C175     1.0000 0.69230  0.90461  0.13480  Biso   1.000  C
  H102     1.0000 0.69560  0.89730  0.06290  Biso   1.000  H
  C176     1.0000 0.64120  0.92323  0.11860  Biso   1.000  C
  H103     1.0000 0.61090  0.92890  0.03660  Biso   1.000  H
  C177     1.0000 0.63520  0.93341  0.22610  Biso   1.000  C
  C178     1.0000 0.63340  0.04420  0.15260  Biso   1.000  C
  H104     1.0000 0.62780  0.05730  0.08400  Biso   1.000  H
  C179     1.0000 0.60010  0.01517  0.13070  Biso   1.000  C
  H105     1.0000 0.57310  0.00870  0.04740  Biso   1.000  H
  C180     1.0000 0.60820  0.99607  0.23550  Biso   1.000  C
  C181     1.0000 0.64730  0.00578  0.35980  Biso   1.000  C
  H106     1.0000 0.65190  0.99310  0.42890  Biso   1.000  H
  C182     1.0000 0.68010  0.03482  0.38150  Biso   1.000  C
  H107     1.0000 0.70530  0.04180  0.46500  Biso   1.000  H
  C183     1.0000 0.67450  0.05310  0.27740  Biso   1.000  C
  C184     1.0000 0.67240  0.84282  0.40000  Biso   1.000  C
  C185     1.0000 0.35840  0.71703  0.85350  Biso   1.000  C
  C186     1.0000 0.44480  0.78704  0.80690  Biso   1.000  C
  H108     1.0000 0.47560  0.79100  0.77960  Biso   1.000  H
  C187     1.0000 0.42330  0.75749  0.80590  Biso   1.000  C
  H109     1.0000 0.44040  0.74070  0.77950  Biso   1.000  H
  C188     1.0000 0.37590  0.75091  0.84300  Biso   1.000  C
  C189     1.0000 0.35080  0.77539  0.88400  Biso   1.000  C
  H110     1.0000 0.31990  0.77140  0.91070  Biso   1.000  H
  C190     1.0000 0.37290  0.80653  0.88450  Biso   1.000  C
  H111     1.0000 0.35540  0.82360  0.90840  Biso   1.000  H
  C191     1.0000 0.42000  0.81150  0.84980  Biso   1.000  C
  C192     1.0000 0.56280  0.85895  0.24850  Biso   1.000  C
  H112     1.0000 0.55950  0.86700  0.31950  Biso   1.000  H
  C193     1.0000 0.51020  0.86180  0.12480  Biso   1.000  C
  H113     1.0000 0.47250  0.87130  0.11360  Biso   1.000  H
  C194     1.0000 0.51700  0.84995  0.02360  Biso   1.000  C
  C195     1.0000 0.57530  0.83560  0.04230  Biso   1.000  C
  H114     1.0000 0.58100  0.82800  0.97340  Biso   1.000  H
  C196     1.0000 0.62200  0.83330  0.16500  Biso   1.000  C
  H115     1.0000 0.65950  0.82300  0.17910  Biso   1.000  H
  C197     1.0000 0.61700  0.84491  0.26500  Biso   1.000  C
  C198     1.0000 0.77030  0.78747  0.67400  Biso   1.000  C
  C199     1.0000 0.58130  0.65746  0.48050  Biso   1.000  C
  H116     1.0000 0.58000  0.66030  0.55830  Biso   1.000  H
  C200     1.0000 0.52720  0.66132  0.36690  Biso   1.000  C
  H117     1.0000 0.48930  0.66700  0.36770  Biso   1.000  H
  C201     1.0000 0.52900  0.65669  0.25030  Biso   1.000  C
  C202     1.0000 0.58620  0.64760  0.25320  Biso   1.000  C
  H118     1.0000 0.58830  0.64360  0.17690  Biso   1.000  H
  C203     1.0000 0.63940  0.64460  0.36800  Biso   1.000  C
  H119     1.0000 0.67790  0.63900  0.36940  Biso   1.000  H
  C204     1.0000 0.63650  0.64955  0.47890  Biso   1.000  C
  C205     1.0000 0.73000  0.68757  0.65460  Biso   1.000  C
  C206     1.0000 0.71830  0.74063  0.71780  Biso   1.000  C
  H120     1.0000 0.70100  0.75450  0.75560  Biso   1.000  H
  C207     1.0000 0.70340  0.70791  0.70760  Biso   1.000  C
  H121     1.0000 0.67550  0.70020  0.73720  Biso   1.000  H
  C208     1.0000 0.77320  0.69878  0.61610  Biso   1.000  C
  H122     1.0000 0.79210  0.68470  0.58220  Biso   1.000  H
  C209     1.0000 0.78870  0.73003  0.62660  Biso   1.000  C
  H123     1.0000 0.81960  0.73710  0.60390  Biso   1.000  H
  C210     1.0000 0.75820  0.75175  0.67180  Biso   1.000  C
  Mn13     1.0000 0.32281  0.37712  0.01320  Biso   1.000  Mn
  Mn14     1.0000 0.41077  0.35071  0.33268  Biso   1.000  Mn
  Mn15     1.0000 0.32158  0.32838  0.51443  Biso   1.000  Mn
  Mn16     1.0000 0.23149  0.35394  0.68611  Biso   1.000  Mn
  S16      1.0000 0.50800  0.22118  0.87540  Biso   1.000  S
  S17      1.0000 0.57260  0.54053  0.32010  Biso   1.000  S
  S18      1.0000 0.07270  0.45854  0.21001  Biso   1.000  S
  S19      1.0000 0.95295  0.35051  0.86830  Biso   1.000  S
  S20      1.0000 0.20589  0.14746  0.62990  Biso   1.000  S
  O91      1.0000 0.38430  0.33685  0.08380  Biso   1.000  O
  O92      1.0000 0.47280  0.33170  0.25890  Biso   1.000  O
  O93      1.0000 0.39680  0.40918  0.11440  Biso   1.000  O
  O94      1.0000 0.43970  0.39848  0.32460  Biso   1.000  O
  O95      1.0000 0.30540  0.37176  0.18010  Biso   1.000  O
  O96      1.0000 0.33195  0.36651  0.38510  Biso   1.000  O
  O97      1.0000 0.22310  0.33054  0.40650  Biso   1.000  O
  O98      1.0000 0.16600  0.35420  0.49230  Biso   1.000  O
  O99      1.0000 0.31310  0.29605  0.64730  Biso   1.000  O
  O100     1.0000 0.23610  0.30488  0.70040  Biso   1.000  O
  O101     1.0000 0.61940  0.29010  0.49650  Biso   1.000  O
  O102     1.0000 0.70310  0.28690  0.67470  Biso   1.000  O
  H124     1.0000 0.71910  0.29600  0.63400  Biso   1.000  H
  O103     1.0000 0.33860  0.62714  0.34330  Biso   1.000  O
  O104     1.0000 0.31130  0.63180  0.13820  Biso   1.000  O
  O105     1.0000 0.20210  0.60030  0.20750  Biso   1.000  O
  O106     1.0000 0.25430  0.58736  0.41690  Biso   1.000  O
  O107     1.0000 0.87220  0.19636  0.79630  Biso   1.000  O
  O108     1.0000 0.82630  0.21235  0.91170  Biso   1.000  O
  O109     1.0000 0.97580  0.15407  0.02550  Biso   1.000  O
  O110     1.0000 0.92110  0.16889  0.13090  Biso   1.000  O
  O111     1.0000 0.44890  0.20871  0.77740  Biso   1.000  O
  O112     1.0000 0.55280  0.20016  0.97530  Biso   1.000  O
  O113     1.0000 0.62110  0.54259  0.44930  Biso   1.000  O
  O114     1.0000 0.58860  0.54584  0.21530  Biso   1.000  O
  O115     1.0000 0.05760  0.45200  0.31330  Biso   1.000  O
  O116     1.0000 0.02340  0.45674  0.07880  Biso   1.000  O
  O117     1.0000 0.90720  0.37287  0.86910  Biso   1.000  O
  O118     1.0000 0.97710  0.35300  0.77300  Biso   1.000  O
  O119     1.0000 0.25580  0.12917  0.61010  Biso   1.000  O
  O120     1.0000 0.18710  0.13786  0.72560  Biso   1.000  O
  C211     1.0000 0.43490  0.32436  0.13620  Biso   1.000  C
  C212     1.0000 0.64460  0.28500  0.60740  Biso   1.000  C
  C213     1.0000 0.43590  0.27040  0.88690  Biso   1.000  C
  H125     1.0000 0.41050  0.26680  0.79980  Biso   1.000  H
  C214     1.0000 0.41980  0.29322  0.94960  Biso   1.000  C
  H126     1.0000 0.38260  0.30480  0.90440  Biso   1.000  H
  C215     1.0000 0.45740  0.29986  0.07970  Biso   1.000  C
  C216     1.0000 0.51340  0.28335  0.14440  Biso   1.000  C
  H127     1.0000 0.54070  0.28830  0.22950  Biso   1.000  H
  C217     1.0000 0.52870  0.25951  0.08220  Biso   1.000  C
  H128     1.0000 0.56560  0.24770  0.12720  Biso   1.000  H
  C218     1.0000 0.49000  0.25271  0.95330  Biso   1.000  C
  C219     1.0000 0.54670  0.26640  0.61720  Biso   1.000  C
  H129     1.0000 0.52330  0.27520  0.53610  Biso   1.000  H
  C220     1.0000 0.51730  0.25270  0.68180  Biso   1.000  C
  H130     1.0000 0.47310  0.25220  0.64390  Biso   1.000  H
  C221     1.0000 0.55130  0.23970  0.80160  Biso   1.000  C
  C222     1.0000 0.61510  0.23990  0.86450  Biso   1.000  C
  H131     1.0000 0.63750  0.23140  0.94660  Biso   1.000  H
  C223     1.0000 0.64570  0.25360  0.79840  Biso   1.000  C
  H132     1.0000 0.68980  0.25400  0.83750  Biso   1.000  H
  C224     1.0000 0.61200  0.26680  0.67480  Biso   1.000  C
  C225     1.0000 0.35010  0.62185  0.25150  Biso   1.000  C
  C226     1.0000 0.43330  0.41508  0.23210  Biso   1.000  C
  C227     1.0000 0.54360  0.48388  0.39980  Biso   1.000  C
  H133     1.0000 0.57010  0.49070  0.48290  Biso   1.000  H
  C228     1.0000 0.51200  0.45622  0.38040  Biso   1.000  C
  H134     1.0000 0.51680  0.44400  0.45070  Biso   1.000  H
  C229     1.0000 0.47150  0.44537  0.25540  Biso   1.000  C
  C230     1.0000 0.49800  0.49221  0.17400  Biso   1.000  C
  H135     1.0000 0.49350  0.50470  0.10440  Biso   1.000  H
  C231     1.0000 0.53670  0.50177  0.29820  Biso   1.000  C
  C232     1.0000 0.46710  0.46452  0.15640  Biso   1.000  C
  H136     1.0000 0.44130  0.45790  0.07270  Biso   1.000  H
  C233     1.0000 0.45090  0.59352  0.39090  Biso   1.000  C
  H137     1.0000 0.44600  0.59980  0.46240  Biso   1.000  H
  C234     1.0000 0.50250  0.57495  0.40580  Biso   1.000  C
  H138     1.0000 0.53240  0.56840  0.48700  Biso   1.000  H
  C235     1.0000 0.50830  0.56649  0.29930  Biso   1.000  C
  C236     1.0000 0.46580  0.57546  0.17670  Biso   1.000  C
  H139     1.0000 0.47130  0.56940  0.10580  Biso   1.000  H
  C237     1.0000 0.41500  0.59376  0.16340  Biso   1.000  C
  H140     1.0000 0.38570  0.60020  0.08160  Biso   1.000  H
  C238     1.0000 0.40580  0.60288  0.26640  Biso   1.000  C
  C239     1.0000 0.97000  0.16001  0.12480  Biso   1.000  C
  C240     1.0000 0.29550  0.37707  0.27580  Biso   1.000  C
  C241     1.0000 0.21350  0.58273  0.30390  Biso   1.000  C
  C242     1.0000 0.17980  0.42482  0.34640  Biso   1.000  C
  H141     1.0000 0.17470  0.43120  0.41750  Biso   1.000  H
  C243     1.0000 0.23240  0.40673  0.36460  Biso   1.000  C
  H142     1.0000 0.26300  0.40140  0.44680  Biso   1.000  H
  C244     1.0000 0.23850  0.39663  0.25520  Biso   1.000  C
  C245     1.0000 0.19230  0.40461  0.13480  Biso   1.000  C
  H143     1.0000 0.19560  0.39730  0.06290  Biso   1.000  H
  C246     1.0000 0.14120  0.42323  0.11860  Biso   1.000  C
  H144     1.0000 0.11090  0.42890  0.03660  Biso   1.000  H
  C247     1.0000 0.13520  0.43341  0.22610  Biso   1.000  C
  C248     1.0000 0.13340  0.54420  0.15260  Biso   1.000  C
  H145     1.0000 0.12780  0.55730  0.08400  Biso   1.000  H
  C249     1.0000 0.10010  0.51517  0.13070  Biso   1.000  C
  H146     1.0000 0.07310  0.50870  0.04740  Biso   1.000  H
  C250     1.0000 0.10820  0.49607  0.23550  Biso   1.000  C
  C251     1.0000 0.14730  0.50578  0.35980  Biso   1.000  C
  H147     1.0000 0.15190  0.49310  0.42890  Biso   1.000  H
  C252     1.0000 0.18010  0.53482  0.38150  Biso   1.000  C
  H148     1.0000 0.20530  0.54180  0.46500  Biso   1.000  H
  C253     1.0000 0.17450  0.55310  0.27740  Biso   1.000  C
  C254     1.0000 0.17240  0.34282  0.40000  Biso   1.000  C
  C255     1.0000 0.85840  0.21703  0.85350  Biso   1.000  C
  C256     1.0000 0.94480  0.28704  0.80690  Biso   1.000  C
  H149     1.0000 0.97560  0.29100  0.77960  Biso   1.000  H
  C257     1.0000 0.92330  0.25749  0.80590  Biso   1.000  C
  H150     1.0000 0.94040  0.24070  0.77950  Biso   1.000  H
  C258     1.0000 0.87590  0.25091  0.84300  Biso   1.000  C
  C259     1.0000 0.85080  0.27539  0.88400  Biso   1.000  C
  H151     1.0000 0.81990  0.27140  0.91070  Biso   1.000  H
  C260     1.0000 0.87290  0.30653  0.88450  Biso   1.000  C
  H152     1.0000 0.85540  0.32360  0.90840  Biso   1.000  H
  C261     1.0000 0.92000  0.31150  0.84980  Biso   1.000  C
  C262     1.0000 0.06280  0.35895  0.24850  Biso   1.000  C
  H153     1.0000 0.05950  0.36700  0.31950  Biso   1.000  H
  C263     1.0000 0.01020  0.36180  0.12480  Biso   1.000  C
  H154     1.0000 0.97250  0.37130  0.11360  Biso   1.000  H
  C264     1.0000 0.01700  0.34995  0.02360  Biso   1.000  C
  C265     1.0000 0.07530  0.33560  0.04230  Biso   1.000  C
  H155     1.0000 0.08100  0.32800  0.97340  Biso   1.000  H
  C266     1.0000 0.12200  0.33330  0.16500  Biso   1.000  C
  H156     1.0000 0.15950  0.32300  0.17910  Biso   1.000  H
  C267     1.0000 0.11700  0.34491  0.26500  Biso   1.000  C
  C268     1.0000 0.27030  0.28747  0.67400  Biso   1.000  C
  C269     1.0000 0.08130  0.15746  0.48050  Biso   1.000  C
  H157     1.0000 0.08000  0.16030  0.55830  Biso   1.000  H
  C270     1.0000 0.02720  0.16132  0.36690  Biso   1.000  C
  H158     1.0000 0.98930  0.16700  0.36770  Biso   1.000  H
  C271     1.0000 0.02900  0.15669  0.25030  Biso   1.000  C
  C272     1.0000 0.08620  0.14760  0.25320  Biso   1.000  C
  H159     1.0000 0.08830  0.14360  0.17690  Biso   1.000  H
  C273     1.0000 0.13940  0.14460  0.36800  Biso   1.000  C
  H160     1.0000 0.17790  0.13900  0.36940  Biso   1.000  H
  C274     1.0000 0.13650  0.14955  0.47890  Biso   1.000  C
  C275     1.0000 0.23000  0.18757  0.65460  Biso   1.000  C
  C276     1.0000 0.21830  0.24063  0.71780  Biso   1.000  C
  H161     1.0000 0.20100  0.25450  0.75560  Biso   1.000  H
  C277     1.0000 0.20340  0.20791  0.70760  Biso   1.000  C
  H162     1.0000 0.17550  0.20020  0.73720  Biso   1.000  H
  C278     1.0000 0.27320  0.19878  0.61610  Biso   1.000  C
  H163     1.0000 0.29210  0.18470  0.58220  Biso   1.000  H
  C279     1.0000 0.28870  0.23003  0.62660  Biso   1.000  C
  H164     1.0000 0.31960  0.23710  0.60390  Biso   1.000  H
  C280     1.0000 0.25820  0.25175  0.67180  Biso   1.000  C
