data_image0
_cell_length_a       14.443
_cell_length_b       22.1987
_cell_length_c       17.7628
_cell_angle_alpha    90
_cell_angle_beta     103.975
_cell_angle_gamma    90

_symmetry_space_group_name_H-M    "P 1"
_symmetry_int_tables_number       1

loop_
  _symmetry_equiv_pos_as_xyz
  'x, y, z'

loop_
  _atom_site_label
  _atom_site_occupancy
  _atom_site_fract_x
  _atom_site_fract_y
  _atom_site_fract_z
  _atom_site_thermal_displace_type
  _atom_site_B_iso_or_equiv
  _atom_site_type_symbol
  Co1      1.0000 0.54385  0.05967  0.31916  Biso   1.000  Co
  Co2      1.0000 0.49907  0.13654  0.47250  Biso   1.000  Co
  Co3      1.0000 0.45128  0.10379  0.64844  Biso   1.000  Co
  O1       1.0000 0.55517  0.05981  0.43399  Biso   1.000  O
  O2       1.0000 0.43944  0.07577  0.53794  Biso   1.000  O
  O3       1.0000 0.08010  0.30938  0.91883  Biso   1.000  O
  O4       1.0000 0.37620  0.18351  0.61115  Biso   1.000  O
  N1       1.0000 0.58370  0.14556  0.64390  Biso   1.000  N
  N2       1.0000 0.72780  0.18116  0.66290  Biso   1.000  N
  O5       1.0000 0.11590  0.35863  0.81980  Biso   1.000  O
  O6       1.0000 0.42890  0.20934  0.50730  Biso   1.000  O
  O7       1.0000 0.73770  0.03133  0.52610  Biso   1.000  O
  O8       1.0000 0.62983  0.00804  0.59084  Biso   1.000  O
  N3       1.0000 0.76880  0.35393  0.77080  Biso   1.000  N
  C1       1.0000 0.23720  0.07100  0.64560  Biso   1.000  C
  H1       1.0000 0.21500  0.11040  0.63690  Biso   1.000  H
  N4       1.0000 0.18190  0.02264  0.65160  Biso   1.000  N
  N5       1.0000 0.90960  0.39496  0.80530  Biso   1.000  N
  C2       1.0000 0.49630  0.30436  0.63710  Biso   1.000  C
  C3       1.0000 0.82360  0.20136  0.70120  Biso   1.000  C
  N6       1.0000 0.60600  0.15112  0.57420  Biso   1.000  N
  C4       1.0000 0.40000  0.22150  0.56610  Biso   1.000  C
  C5       1.0000 0.66390  0.32535  0.64670  Biso   1.000  C
  H2       1.0000 0.71520  0.32830  0.62380  Biso   1.000  H
  N7       1.0000 0.32830  0.99241  0.66510  Biso   1.000  N
  C6       1.0000 0.57390  0.30990  0.60240  Biso   1.000  C
  H3       1.0000 0.56480  0.30320  0.54950  Biso   1.000  H
  C7       1.0000 0.89260  0.01720  0.65780  Biso   1.000  C
  N8       1.0000 0.89050  0.36680  0.86880  Biso   1.000  N
  C8       1.0000 0.71390  0.01770  0.58710  Biso   1.000  C
  C9       1.0000 0.08170  0.02210  0.65170  Biso   1.000  C
  N9       1.0000 0.32510  0.05464  0.65370  Biso   1.000  N
  C10      1.0000 0.67610  0.33630  0.72530  Biso   1.000  C
  C11      1.0000 0.84770  0.20620  0.78020  Biso   1.000  C
  H4       1.0000 0.80260  0.19930  0.80880  Biso   1.000  H
  C12      1.0000 0.60180  0.32980  0.76050  Biso   1.000  C
  H5       1.0000 0.61120  0.33650  0.81350  Biso   1.000  H
  C13      1.0000 0.24200  0.97450  0.66350  Biso   1.000  C
  H6       1.0000 0.22420  0.93490  0.66960  Biso   1.000  H
  C14      1.0000 0.00810  0.23330  0.77530  Biso   1.000  C
  C15      1.0000 0.39810  0.28730  0.58950  Biso   1.000  C
  H7       1.0000 0.38080  0.31250  0.54360  Biso   1.000  H
  H8       1.0000 0.35120  0.29320  0.61980  Biso   1.000  H
  C16      1.0000 0.83590  0.38660  0.74690  Biso   1.000  C
  H9       1.0000 0.83040  0.40080  0.69670  Biso   1.000  H
  C17      1.0000 0.65820  0.16440  0.69630  Biso   1.000  C
  H10      1.0000 0.66210  0.16600  0.74930  Biso   1.000  H
  C18      1.0000 0.10940  0.25140  0.81710  Biso   1.000  C
  H11      1.0000 0.13680  0.22150  0.85610  Biso   1.000  H
  H12      1.0000 0.14930  0.25440  0.78060  Biso   1.000  H
  C19      1.0000 0.80610  0.34270  0.84710  Biso   1.000  C
  H13      1.0000 0.77590  0.32100  0.87920  Biso   1.000  H
  C20      1.0000 0.10260  0.31220  0.85520  Biso   1.000  C
  C21      1.0000 0.94070  0.22170  0.81710  Biso   1.000  C
  H14      1.0000 0.95810  0.22440  0.87100  Biso   1.000  H
  C22      1.0000 0.92960  0.97440  0.61660  Biso   1.000  C
  H15      1.0000 0.89010  0.94390  0.59110  Biso   1.000  H
  C23      1.0000 0.04640  0.06480  0.69210  Biso   1.000  C
  H16      1.0000 0.08540  0.09550  0.71750  Biso   1.000  H
  C24      1.0000 0.51170  0.31310  0.71560  Biso   1.000  C
  H17      1.0000 0.46160  0.30780  0.73950  Biso   1.000  H
  C25      1.0000 0.69200  0.17310  0.58620  Biso   1.000  C
  H18      1.0000 0.72370  0.18190  0.54770  Biso   1.000  H
  C26      1.0000 0.95030  0.06170  0.69510  Biso   1.000  C
  H19      1.0000 0.92590  0.09050  0.72310  Biso   1.000  H
  C27      1.0000 0.98110  0.22940  0.69650  Biso   1.000  C
  H20      1.0000 0.02550  0.23710  0.66740  Biso   1.000  H
  C28      1.0000 0.78910  0.01240  0.66320  Biso   1.000  C
  H21      1.0000 0.78080  0.97390  0.68650  Biso   1.000  H
  H22      1.0000 0.77740  0.04360  0.69800  Biso   1.000  H
  C29      1.0000 0.02380  0.97590  0.61240  Biso   1.000  C
  H23      1.0000 0.04800  0.94700  0.58430  Biso   1.000  H
  C30      1.0000 0.88730  0.21370  0.65850  Biso   1.000  C
  H24      1.0000 0.86900  0.21190  0.60460  Biso   1.000  H
  O9       1.0000 0.46576  0.97523  0.30569  Biso   1.000  O
  H25      1.0000 0.38000  0.07400  0.52100  Biso   1.000  H
  H26      1.0000 0.61400  0.06200  0.45400  Biso   1.000  H
  H27      1.0000 0.42900  0.97400  0.26100  Biso   1.000  H
  Co4      1.0000 0.95615  0.55967  0.18084  Biso   1.000  Co
  Co5      1.0000 0.00093  0.63654  0.02750  Biso   1.000  Co
  Co6      1.0000 0.04872  0.60379  0.85156  Biso   1.000  Co
  O10      1.0000 0.94483  0.55981  0.06601  Biso   1.000  O
  O11      1.0000 0.06056  0.57577  0.96206  Biso   1.000  O
  O12      1.0000 0.41990  0.80938  0.58117  Biso   1.000  O
  O13      1.0000 0.12380  0.68351  0.88885  Biso   1.000  O
  N10      1.0000 0.91630  0.64556  0.85610  Biso   1.000  N
  N11      1.0000 0.77220  0.68116  0.83710  Biso   1.000  N
  O14      1.0000 0.38410  0.85863  0.68020  Biso   1.000  O
  O15      1.0000 0.07110  0.70934  0.99270  Biso   1.000  O
  O16      1.0000 0.76230  0.53133  0.97390  Biso   1.000  O
  O17      1.0000 0.87017  0.50804  0.90916  Biso   1.000  O
  N12      1.0000 0.73120  0.85393  0.72920  Biso   1.000  N
  C31      1.0000 0.26280  0.57100  0.85440  Biso   1.000  C
  H28      1.0000 0.28500  0.61040  0.86310  Biso   1.000  H
  N13      1.0000 0.31810  0.52264  0.84840  Biso   1.000  N
  N14      1.0000 0.59040  0.89496  0.69470  Biso   1.000  N
  C32      1.0000 0.00370  0.80436  0.86290  Biso   1.000  C
  C33      1.0000 0.67640  0.70136  0.79880  Biso   1.000  C
  N15      1.0000 0.89400  0.65112  0.92580  Biso   1.000  N
  C34      1.0000 0.10000  0.72150  0.93390  Biso   1.000  C
  C35      1.0000 0.83610  0.82535  0.85330  Biso   1.000  C
  H29      1.0000 0.78480  0.82830  0.87620  Biso   1.000  H
  N16      1.0000 0.17170  0.49241  0.83490  Biso   1.000  N
  C36      1.0000 0.92610  0.80990  0.89760  Biso   1.000  C
  H30      1.0000 0.93520  0.80320  0.95050  Biso   1.000  H
  C37      1.0000 0.60740  0.51720  0.84220  Biso   1.000  C
  N17      1.0000 0.60950  0.86680  0.63120  Biso   1.000  N
  C38      1.0000 0.78610  0.51770  0.91290  Biso   1.000  C
  C39      1.0000 0.41830  0.52210  0.84830  Biso   1.000  C
  N18      1.0000 0.17490  0.55464  0.84630  Biso   1.000  N
  C40      1.0000 0.82390  0.83630  0.77470  Biso   1.000  C
  C41      1.0000 0.65230  0.70620  0.71980  Biso   1.000  C
  H31      1.0000 0.69740  0.69930  0.69120  Biso   1.000  H
  C42      1.0000 0.89820  0.82980  0.73950  Biso   1.000  C
  H32      1.0000 0.88880  0.83650  0.68650  Biso   1.000  H
  C43      1.0000 0.25800  0.47450  0.83650  Biso   1.000  C
  H33      1.0000 0.27580  0.43490  0.83040  Biso   1.000  H
  C44      1.0000 0.49190  0.73330  0.72470  Biso   1.000  C
  C45      1.0000 0.10190  0.78730  0.91050  Biso   1.000  C
  H34      1.0000 0.11920  0.81250  0.95640  Biso   1.000  H
  H35      1.0000 0.14880  0.79320  0.88020  Biso   1.000  H
  C46      1.0000 0.66410  0.88660  0.75310  Biso   1.000  C
  H36      1.0000 0.66960  0.90080  0.80330  Biso   1.000  H
  C47      1.0000 0.84180  0.66440  0.80370  Biso   1.000  C
  H37      1.0000 0.83790  0.66600  0.75070  Biso   1.000  H
  C48      1.0000 0.39060  0.75140  0.68290  Biso   1.000  C
  H38      1.0000 0.36320  0.72150  0.64390  Biso   1.000  H
  H39      1.0000 0.35070  0.75440  0.71940  Biso   1.000  H
  C49      1.0000 0.69390  0.84270  0.65290  Biso   1.000  C
  H40      1.0000 0.72410  0.82100  0.62080  Biso   1.000  H
  C50      1.0000 0.39740  0.81220  0.64480  Biso   1.000  C
  C51      1.0000 0.55930  0.72170  0.68290  Biso   1.000  C
  H41      1.0000 0.54190  0.72440  0.62900  Biso   1.000  H
  C52      1.0000 0.57040  0.47440  0.88340  Biso   1.000  C
  H42      1.0000 0.60990  0.44390  0.90890  Biso   1.000  H
  C53      1.0000 0.45360  0.56480  0.80790  Biso   1.000  C
  H43      1.0000 0.41460  0.59550  0.78250  Biso   1.000  H
  C54      1.0000 0.98830  0.81310  0.78440  Biso   1.000  C
  H44      1.0000 0.03840  0.80780  0.76050  Biso   1.000  H
  C55      1.0000 0.80800  0.67310  0.91380  Biso   1.000  C
  H45      1.0000 0.77630  0.68190  0.95230  Biso   1.000  H
  C56      1.0000 0.54970  0.56170  0.80490  Biso   1.000  C
  H46      1.0000 0.57410  0.59050  0.77690  Biso   1.000  H
  C57      1.0000 0.51890  0.72940  0.80350  Biso   1.000  C
  H47      1.0000 0.47450  0.73710  0.83260  Biso   1.000  H
  C58      1.0000 0.71090  0.51240  0.83680  Biso   1.000  C
  H48      1.0000 0.71920  0.47390  0.81350  Biso   1.000  H
  H49      1.0000 0.72260  0.54360  0.80200  Biso   1.000  H
  C59      1.0000 0.47620  0.47590  0.88760  Biso   1.000  C
  H50      1.0000 0.45200  0.44700  0.91570  Biso   1.000  H
  C60      1.0000 0.61270  0.71370  0.84150  Biso   1.000  C
  H51      1.0000 0.63100  0.71190  0.89540  Biso   1.000  H
  O18      1.0000 0.03424  0.47523  0.19431  Biso   1.000  O
  H52      1.0000 0.12000  0.57400  0.97900  Biso   1.000  H
  H53      1.0000 0.88600  0.56200  0.04600  Biso   1.000  H
  H54      1.0000 0.07100  0.47400  0.23900  Biso   1.000  H
  Co7      1.0000 0.45615  0.94033  0.68084  Biso   1.000  Co
  Co8      1.0000 0.50093  0.86346  0.52750  Biso   1.000  Co
  Co9      1.0000 0.54872  0.89621  0.35156  Biso   1.000  Co
  O19      1.0000 0.44483  0.94019  0.56601  Biso   1.000  O
  O20      1.0000 0.56056  0.92423  0.46206  Biso   1.000  O
  O21      1.0000 0.91990  0.69062  0.08117  Biso   1.000  O
  O22      1.0000 0.62380  0.81649  0.38885  Biso   1.000  O
  N19      1.0000 0.41630  0.85444  0.35610  Biso   1.000  N
  N20      1.0000 0.27220  0.81884  0.33710  Biso   1.000  N
  O23      1.0000 0.88410  0.64137  0.18020  Biso   1.000  O
  O24      1.0000 0.57110  0.79066  0.49270  Biso   1.000  O
  O25      1.0000 0.26230  0.96867  0.47390  Biso   1.000  O
  O26      1.0000 0.37017  0.99196  0.40916  Biso   1.000  O
  N21      1.0000 0.23120  0.64607  0.22920  Biso   1.000  N
  C61      1.0000 0.76280  0.92900  0.35440  Biso   1.000  C
  H55      1.0000 0.78500  0.88960  0.36310  Biso   1.000  H
  N22      1.0000 0.81810  0.97736  0.34840  Biso   1.000  N
  N23      1.0000 0.09040  0.60504  0.19470  Biso   1.000  N
  C62      1.0000 0.50370  0.69564  0.36290  Biso   1.000  C
  C63      1.0000 0.17640  0.79864  0.29880  Biso   1.000  C
  N24      1.0000 0.39400  0.84888  0.42580  Biso   1.000  N
  C64      1.0000 0.60000  0.77850  0.43390  Biso   1.000  C
  C65      1.0000 0.33610  0.67465  0.35330  Biso   1.000  C
  H56      1.0000 0.28480  0.67170  0.37620  Biso   1.000  H
  N25      1.0000 0.67170  0.00759  0.33490  Biso   1.000  N
  C66      1.0000 0.42610  0.69010  0.39760  Biso   1.000  C
  H57      1.0000 0.43520  0.69680  0.45050  Biso   1.000  H
  C67      1.0000 0.10740  0.98280  0.34220  Biso   1.000  C
  N26      1.0000 0.10950  0.63320  0.13120  Biso   1.000  N
  C68      1.0000 0.28610  0.98230  0.41290  Biso   1.000  C
  C69      1.0000 0.91830  0.97790  0.34830  Biso   1.000  C
  N27      1.0000 0.67490  0.94536  0.34630  Biso   1.000  N
  C70      1.0000 0.32390  0.66370  0.27470  Biso   1.000  C
  C71      1.0000 0.15230  0.79380  0.21980  Biso   1.000  C
  H58      1.0000 0.19740  0.80070  0.19120  Biso   1.000  H
  C72      1.0000 0.39820  0.67020  0.23950  Biso   1.000  C
  H59      1.0000 0.38880  0.66350  0.18650  Biso   1.000  H
  C73      1.0000 0.75800  0.02550  0.33650  Biso   1.000  C
  H60      1.0000 0.77580  0.06510  0.33040  Biso   1.000  H
  C74      1.0000 0.99190  0.76670  0.22470  Biso   1.000  C
  C75      1.0000 0.60190  0.71270  0.41050  Biso   1.000  C
  H61      1.0000 0.61920  0.68750  0.45640  Biso   1.000  H
  H62      1.0000 0.64880  0.70680  0.38020  Biso   1.000  H
  C76      1.0000 0.16410  0.61340  0.25310  Biso   1.000  C
  H63      1.0000 0.16960  0.59920  0.30330  Biso   1.000  H
  C77      1.0000 0.34180  0.83560  0.30370  Biso   1.000  C
  H64      1.0000 0.33790  0.83400  0.25070  Biso   1.000  H
  C78      1.0000 0.89060  0.74860  0.18290  Biso   1.000  C
  H65      1.0000 0.86320  0.77850  0.14390  Biso   1.000  H
  H66      1.0000 0.85070  0.74560  0.21940  Biso   1.000  H
  C79      1.0000 0.19390  0.65730  0.15290  Biso   1.000  C
  H67      1.0000 0.22410  0.67900  0.12080  Biso   1.000  H
  C80      1.0000 0.89740  0.68780  0.14480  Biso   1.000  C
  C81      1.0000 0.05930  0.77830  0.18290  Biso   1.000  C
  H68      1.0000 0.04190  0.77560  0.12900  Biso   1.000  H
  C82      1.0000 0.07040  0.02560  0.38340  Biso   1.000  C
  H69      1.0000 0.10990  0.05610  0.40890  Biso   1.000  H
  C83      1.0000 0.95360  0.93520  0.30790  Biso   1.000  C
  H70      1.0000 0.91460  0.90450  0.28250  Biso   1.000  H
  C84      1.0000 0.48830  0.68690  0.28440  Biso   1.000  C
  H71      1.0000 0.53840  0.69220  0.26050  Biso   1.000  H
  C85      1.0000 0.30800  0.82690  0.41380  Biso   1.000  C
  H72      1.0000 0.27630  0.81810  0.45230  Biso   1.000  H
  C86      1.0000 0.04970  0.93830  0.30490  Biso   1.000  C
  H73      1.0000 0.07410  0.90950  0.27690  Biso   1.000  H
  C87      1.0000 0.01890  0.77060  0.30350  Biso   1.000  C
  H74      1.0000 0.97450  0.76290  0.33260  Biso   1.000  H
  C88      1.0000 0.21090  0.98760  0.33680  Biso   1.000  C
  H75      1.0000 0.21920  0.02610  0.31350  Biso   1.000  H
  H76      1.0000 0.22260  0.95640  0.30200  Biso   1.000  H
  C89      1.0000 0.97620  0.02410  0.38760  Biso   1.000  C
  H77      1.0000 0.95200  0.05300  0.41570  Biso   1.000  H
  C90      1.0000 0.11270  0.78630  0.34150  Biso   1.000  C
  H78      1.0000 0.13100  0.78810  0.39540  Biso   1.000  H
  O27      1.0000 0.53424  0.02477  0.69431  Biso   1.000  O
  H79      1.0000 0.62000  0.92600  0.47900  Biso   1.000  H
  H80      1.0000 0.38600  0.93800  0.54600  Biso   1.000  H
  H81      1.0000 0.57100  0.02600  0.73900  Biso   1.000  H
  Co10     1.0000 0.04385  0.44033  0.81916  Biso   1.000  Co
  Co11     1.0000 0.99907  0.36346  0.97250  Biso   1.000  Co
  Co12     1.0000 0.95128  0.39621  0.14844  Biso   1.000  Co
  O28      1.0000 0.05517  0.44019  0.93399  Biso   1.000  O
  O29      1.0000 0.93944  0.42423  0.03794  Biso   1.000  O
  O30      1.0000 0.58010  0.19062  0.41883  Biso   1.000  O
  O31      1.0000 0.87620  0.31649  0.11115  Biso   1.000  O
  N28      1.0000 0.08370  0.35444  0.14390  Biso   1.000  N
  N29      1.0000 0.22780  0.31884  0.16290  Biso   1.000  N
  O32      1.0000 0.61590  0.14137  0.31980  Biso   1.000  O
  O33      1.0000 0.92890  0.29066  0.00730  Biso   1.000  O
  O34      1.0000 0.23770  0.46867  0.02610  Biso   1.000  O
  O35      1.0000 0.12983  0.49196  0.09084  Biso   1.000  O
  N30      1.0000 0.26880  0.14607  0.27080  Biso   1.000  N
  C91      1.0000 0.73720  0.42900  0.14560  Biso   1.000  C
  H82      1.0000 0.71500  0.38960  0.13690  Biso   1.000  H
  N31      1.0000 0.68190  0.47736  0.15160  Biso   1.000  N
  N32      1.0000 0.40960  0.10504  0.30530  Biso   1.000  N
  C92      1.0000 0.99630  0.19564  0.13710  Biso   1.000  C
  C93      1.0000 0.32360  0.29864  0.20120  Biso   1.000  C
  N33      1.0000 0.10600  0.34888  0.07420  Biso   1.000  N
  C94      1.0000 0.90000  0.27850  0.06610  Biso   1.000  C
  C95      1.0000 0.16390  0.17465  0.14670  Biso   1.000  C
  H83      1.0000 0.21520  0.17170  0.12380  Biso   1.000  H
  N34      1.0000 0.82830  0.50759  0.16510  Biso   1.000  N
  C96      1.0000 0.07390  0.19010  0.10240  Biso   1.000  C
  H84      1.0000 0.06480  0.19680  0.04950  Biso   1.000  H
  C97      1.0000 0.39260  0.48280  0.15780  Biso   1.000  C
  N35      1.0000 0.39050  0.13320  0.36880  Biso   1.000  N
  C98      1.0000 0.21390  0.48230  0.08710  Biso   1.000  C
  C99      1.0000 0.58170  0.47790  0.15170  Biso   1.000  C
  N36      1.0000 0.82510  0.44536  0.15370  Biso   1.000  N
  C100     1.0000 0.17610  0.16370  0.22530  Biso   1.000  C
  C101     1.0000 0.34770  0.29380  0.28020  Biso   1.000  C
  H85      1.0000 0.30260  0.30070  0.30880  Biso   1.000  H
  C102     1.0000 0.10180  0.17020  0.26050  Biso   1.000  C
  H86      1.0000 0.11120  0.16350  0.31350  Biso   1.000  H
  C103     1.0000 0.74200  0.52550  0.16350  Biso   1.000  C
  H87      1.0000 0.72420  0.56510  0.16960  Biso   1.000  H
  C104     1.0000 0.50810  0.26670  0.27530  Biso   1.000  C
  C105     1.0000 0.89810  0.21270  0.08950  Biso   1.000  C
  H88      1.0000 0.88080  0.18750  0.04360  Biso   1.000  H
  H89      1.0000 0.85120  0.20680  0.11980  Biso   1.000  H
  C106     1.0000 0.33590  0.11340  0.24690  Biso   1.000  C
  H90      1.0000 0.33040  0.09920  0.19670  Biso   1.000  H
  C107     1.0000 0.15820  0.33560  0.19630  Biso   1.000  C
  H91      1.0000 0.16210  0.33400  0.24930  Biso   1.000  H
  C108     1.0000 0.60940  0.24860  0.31710  Biso   1.000  C
  H92      1.0000 0.63680  0.27850  0.35610  Biso   1.000  H
  H93      1.0000 0.64930  0.24560  0.28060  Biso   1.000  H
  C109     1.0000 0.30610  0.15730  0.34710  Biso   1.000  C
  H94      1.0000 0.27590  0.17900  0.37920  Biso   1.000  H
  C110     1.0000 0.60260  0.18780  0.35520  Biso   1.000  C
  C111     1.0000 0.44070  0.27830  0.31710  Biso   1.000  C
  H95      1.0000 0.45810  0.27560  0.37100  Biso   1.000  H
  C112     1.0000 0.42960  0.52560  0.11660  Biso   1.000  C
  H96      1.0000 0.39010  0.55610  0.09110  Biso   1.000  H
  C113     1.0000 0.54640  0.43520  0.19210  Biso   1.000  C
  H97      1.0000 0.58540  0.40450  0.21750  Biso   1.000  H
  C114     1.0000 0.01170  0.18690  0.21560  Biso   1.000  C
  H98      1.0000 0.96160  0.19220  0.23950  Biso   1.000  H
  C115     1.0000 0.19200  0.32690  0.08620  Biso   1.000  C
  H99      1.0000 0.22370  0.31810  0.04770  Biso   1.000  H
  C116     1.0000 0.45030  0.43830  0.19510  Biso   1.000  C
  H100     1.0000 0.42590  0.40950  0.22310  Biso   1.000  H
  C117     1.0000 0.48110  0.27060  0.19650  Biso   1.000  C
  H101     1.0000 0.52550  0.26290  0.16740  Biso   1.000  H
  C118     1.0000 0.28910  0.48760  0.16320  Biso   1.000  C
  H102     1.0000 0.28080  0.52610  0.18650  Biso   1.000  H
  H103     1.0000 0.27740  0.45640  0.19800  Biso   1.000  H
  C119     1.0000 0.52380  0.52410  0.11240  Biso   1.000  C
  H104     1.0000 0.54800  0.55300  0.08430  Biso   1.000  H
  C120     1.0000 0.38730  0.28630  0.15850  Biso   1.000  C
  H105     1.0000 0.36900  0.28810  0.10460  Biso   1.000  H
  O36      1.0000 0.96576  0.52477  0.80569  Biso   1.000  O
  H106     1.0000 0.88000  0.42600  0.02100  Biso   1.000  H
  H107     1.0000 0.11400  0.43800  0.95400  Biso   1.000  H
  H108     1.0000 0.92900  0.52600  0.76100  Biso   1.000  H
  Co13     1.0000 0.50000  0.00000  0.50000  Biso   1.000  Co
  Co14     1.0000 0.00000  0.50000  0.00000  Biso   1.000  Co
