data_image0
_cell_length_a       21.156
_cell_length_b       8.726
_cell_length_c       15.847
_cell_angle_alpha    90
_cell_angle_beta     90
_cell_angle_gamma    90

_symmetry_space_group_name_H-M    "P 1"
_symmetry_int_tables_number       1

loop_
  _symmetry_equiv_pos_as_xyz
  'x, y, z'

loop_
  _atom_site_label
  _atom_site_occupancy
  _atom_site_fract_x
  _atom_site_fract_y
  _atom_site_fract_z
  _atom_site_thermal_displace_type
  _atom_site_B_iso_or_equiv
  _atom_site_type_symbol
  O1       1.0000 0.98353  0.77550  0.87587  Biso   1.000  O
  O2       1.0000 0.92914  0.90370  0.78063  Biso   1.000  O
  C1       1.0000 0.94139  0.87410  0.85752  Biso   1.000  C
  N1       1.0000 0.57052  0.57160  0.23478  Biso   1.000  N
  N2       1.0000 0.74672  0.24370  0.10909  Biso   1.000  N
  N3       1.0000 0.76565  0.22900  0.24986  Biso   1.000  N
  C2       1.0000 0.90602  0.95240  0.92642  Biso   1.000  C
  C3       1.0000 0.92207  0.92600  0.01044  Biso   1.000  C
  H1       1.0000 0.95550  0.86100  0.02340  Biso   1.000  H
  C4       1.0000 0.83765  0.09140  0.05553  Biso   1.000  C
  C5       1.0000 0.79899  0.16230  0.12195  Biso   1.000  C
  C6       1.0000 0.72822  0.28130  0.18875  Biso   1.000  C
  C7       1.0000 0.85578  0.04840  0.90744  Biso   1.000  C
  H2       1.0000 0.84510  0.06700  0.85140  Biso   1.000  H
  C8       1.0000 0.67293  0.37700  0.20521  Biso   1.000  C
  N4       1.0000 0.81079  0.15330  0.20501  Biso   1.000  N
  H3       1.0000 0.84250  0.10610  0.22690  Biso   1.000  H
  C9       1.0000 0.88838  0.99610  0.07468  Biso   1.000  C
  H4       1.0000 0.89970  0.97940  0.13060  Biso   1.000  H
  C10      1.0000 0.82135  0.11690  0.97180  Biso   1.000  C
  H5       1.0000 0.78730  0.18000  0.95880  Biso   1.000  H
  C11      1.0000 0.65720  0.42200  0.28644  Biso   1.000  C
  H6       1.0000 0.68070  0.38830  0.33240  Biso   1.000  H
  C12      1.0000 0.60579  0.51820  0.29792  Biso   1.000  C
  H7       1.0000 0.59540  0.54710  0.35270  Biso   1.000  H
  C13      1.0000 0.63562  0.43000  0.13947  Biso   1.000  C
  H8       1.0000 0.64430  0.40080  0.08420  Biso   1.000  H
  C14      1.0000 0.58556  0.52630  0.15647  Biso   1.000  C
  H9       1.0000 0.56110  0.56130  0.11160  Biso   1.000  H
  O3       1.0000 0.01647  0.77550  0.62413  Biso   1.000  O
  O4       1.0000 0.07086  0.90370  0.71937  Biso   1.000  O
  C15      1.0000 0.05861  0.87410  0.64248  Biso   1.000  C
  N5       1.0000 0.42948  0.57160  0.26522  Biso   1.000  N
  N6       1.0000 0.25328  0.24370  0.39091  Biso   1.000  N
  N7       1.0000 0.23435  0.22900  0.25014  Biso   1.000  N
  C16      1.0000 0.09398  0.95240  0.57358  Biso   1.000  C
  C17      1.0000 0.07793  0.92600  0.48956  Biso   1.000  C
  H10      1.0000 0.04450  0.86100  0.47660  Biso   1.000  H
  C18      1.0000 0.16235  0.09140  0.44447  Biso   1.000  C
  C19      1.0000 0.20101  0.16230  0.37805  Biso   1.000  C
  C20      1.0000 0.27178  0.28130  0.31125  Biso   1.000  C
  C21      1.0000 0.14422  0.04840  0.59256  Biso   1.000  C
  H11      1.0000 0.15490  0.06700  0.64860  Biso   1.000  H
  C22      1.0000 0.32707  0.37700  0.29479  Biso   1.000  C
  N8       1.0000 0.18921  0.15330  0.29499  Biso   1.000  N
  H12      1.0000 0.15750  0.10610  0.27310  Biso   1.000  H
  C23      1.0000 0.11162  0.99610  0.42532  Biso   1.000  C
  H13      1.0000 0.10030  0.97940  0.36940  Biso   1.000  H
  C24      1.0000 0.17865  0.11690  0.52820  Biso   1.000  C
  H14      1.0000 0.21270  0.18000  0.54120  Biso   1.000  H
  C25      1.0000 0.34280  0.42200  0.21356  Biso   1.000  C
  H15      1.0000 0.31930  0.38830  0.16760  Biso   1.000  H
  C26      1.0000 0.39421  0.51820  0.20208  Biso   1.000  C
  H16      1.0000 0.40460  0.54710  0.14730  Biso   1.000  H
  C27      1.0000 0.36438  0.43000  0.36053  Biso   1.000  C
  H17      1.0000 0.35570  0.40080  0.41580  Biso   1.000  H
  C28      1.0000 0.41444  0.52630  0.34353  Biso   1.000  C
  H18      1.0000 0.43890  0.56130  0.38840  Biso   1.000  H
  O5       1.0000 0.48353  0.77550  0.12413  Biso   1.000  O
  O6       1.0000 0.42914  0.90370  0.21937  Biso   1.000  O
  C29      1.0000 0.44139  0.87410  0.14248  Biso   1.000  C
  N9       1.0000 0.07052  0.57160  0.76522  Biso   1.000  N
  N10      1.0000 0.24672  0.24370  0.89091  Biso   1.000  N
  N11      1.0000 0.26565  0.22900  0.75014  Biso   1.000  N
  C30      1.0000 0.40602  0.95240  0.07358  Biso   1.000  C
  C31      1.0000 0.42207  0.92600  0.98956  Biso   1.000  C
  H19      1.0000 0.45550  0.86100  0.97660  Biso   1.000  H
  C32      1.0000 0.33765  0.09140  0.94447  Biso   1.000  C
  C33      1.0000 0.29899  0.16230  0.87805  Biso   1.000  C
  C34      1.0000 0.22822  0.28130  0.81125  Biso   1.000  C
  C35      1.0000 0.35578  0.04840  0.09256  Biso   1.000  C
  H20      1.0000 0.34510  0.06700  0.14860  Biso   1.000  H
  C36      1.0000 0.17293  0.37700  0.79479  Biso   1.000  C
  N12      1.0000 0.31079  0.15330  0.79499  Biso   1.000  N
  H21      1.0000 0.34250  0.10610  0.77310  Biso   1.000  H
  C37      1.0000 0.38838  0.99610  0.92532  Biso   1.000  C
  H22      1.0000 0.39970  0.97940  0.86940  Biso   1.000  H
  C38      1.0000 0.32135  0.11690  0.02820  Biso   1.000  C
  H23      1.0000 0.28730  0.18000  0.04120  Biso   1.000  H
  C39      1.0000 0.15720  0.42200  0.71356  Biso   1.000  C
  H24      1.0000 0.18070  0.38830  0.66760  Biso   1.000  H
  C40      1.0000 0.10579  0.51820  0.70208  Biso   1.000  C
  H25      1.0000 0.09540  0.54710  0.64730  Biso   1.000  H
  C41      1.0000 0.13562  0.43000  0.86053  Biso   1.000  C
  H26      1.0000 0.14430  0.40080  0.91580  Biso   1.000  H
  C42      1.0000 0.08556  0.52630  0.84353  Biso   1.000  C
  H27      1.0000 0.06110  0.56130  0.88840  Biso   1.000  H
  O7       1.0000 0.51647  0.77550  0.37587  Biso   1.000  O
  O8       1.0000 0.57086  0.90370  0.28063  Biso   1.000  O
  C43      1.0000 0.55861  0.87410  0.35752  Biso   1.000  C
  N13      1.0000 0.92948  0.57160  0.73478  Biso   1.000  N
  N14      1.0000 0.75328  0.24370  0.60909  Biso   1.000  N
  N15      1.0000 0.73435  0.22900  0.74986  Biso   1.000  N
  C44      1.0000 0.59398  0.95240  0.42642  Biso   1.000  C
  C45      1.0000 0.57793  0.92600  0.51044  Biso   1.000  C
  H28      1.0000 0.54450  0.86100  0.52340  Biso   1.000  H
  C46      1.0000 0.66235  0.09140  0.55553  Biso   1.000  C
  C47      1.0000 0.70101  0.16230  0.62195  Biso   1.000  C
  C48      1.0000 0.77178  0.28130  0.68875  Biso   1.000  C
  C49      1.0000 0.64422  0.04840  0.40744  Biso   1.000  C
  H29      1.0000 0.65490  0.06700  0.35140  Biso   1.000  H
  C50      1.0000 0.82707  0.37700  0.70521  Biso   1.000  C
  N16      1.0000 0.68921  0.15330  0.70501  Biso   1.000  N
  H30      1.0000 0.65750  0.10610  0.72690  Biso   1.000  H
  C51      1.0000 0.61162  0.99610  0.57468  Biso   1.000  C
  H31      1.0000 0.60030  0.97940  0.63060  Biso   1.000  H
  C52      1.0000 0.67865  0.11690  0.47180  Biso   1.000  C
  H32      1.0000 0.71270  0.18000  0.45880  Biso   1.000  H
  C53      1.0000 0.84280  0.42200  0.78644  Biso   1.000  C
  H33      1.0000 0.81930  0.38830  0.83240  Biso   1.000  H
  C54      1.0000 0.89421  0.51820  0.79792  Biso   1.000  C
  H34      1.0000 0.90460  0.54710  0.85270  Biso   1.000  H
  C55      1.0000 0.86438  0.43000  0.63947  Biso   1.000  C
  H35      1.0000 0.85570  0.40080  0.58420  Biso   1.000  H
  C56      1.0000 0.91444  0.52630  0.65647  Biso   1.000  C
  H36      1.0000 0.93890  0.56130  0.61160  Biso   1.000  H
  Ni1      1.0000 0.50000  0.73025  0.25000  Biso   1.000  Ni
  Ni2      1.0000 0.00000  0.73025  0.75000  Biso   1.000  Ni
  O9       1.0000 0.51647  0.22450  0.87587  Biso   1.000  O
  O10      1.0000 0.57086  0.09630  0.78063  Biso   1.000  O
  C57      1.0000 0.55861  0.12590  0.85752  Biso   1.000  C
  N17      1.0000 0.92948  0.42840  0.23478  Biso   1.000  N
  N18      1.0000 0.75328  0.75630  0.10909  Biso   1.000  N
  N19      1.0000 0.73435  0.77100  0.24986  Biso   1.000  N
  C58      1.0000 0.59398  0.04760  0.92642  Biso   1.000  C
  C59      1.0000 0.57793  0.07400  0.01044  Biso   1.000  C
  H37      1.0000 0.54450  0.13900  0.02340  Biso   1.000  H
  C60      1.0000 0.66235  0.90860  0.05553  Biso   1.000  C
  C61      1.0000 0.70101  0.83770  0.12195  Biso   1.000  C
  C62      1.0000 0.77178  0.71870  0.18875  Biso   1.000  C
  C63      1.0000 0.64422  0.95160  0.90744  Biso   1.000  C
  H38      1.0000 0.65490  0.93300  0.85140  Biso   1.000  H
  C64      1.0000 0.82707  0.62300  0.20521  Biso   1.000  C
  N20      1.0000 0.68921  0.84670  0.20501  Biso   1.000  N
  H39      1.0000 0.65750  0.89390  0.22690  Biso   1.000  H
  C65      1.0000 0.61162  0.00390  0.07468  Biso   1.000  C
  H40      1.0000 0.60030  0.02060  0.13060  Biso   1.000  H
  C66      1.0000 0.67865  0.88310  0.97180  Biso   1.000  C
  H41      1.0000 0.71270  0.82000  0.95880  Biso   1.000  H
  C67      1.0000 0.84280  0.57800  0.28644  Biso   1.000  C
  H42      1.0000 0.81930  0.61170  0.33240  Biso   1.000  H
  C68      1.0000 0.89421  0.48180  0.29792  Biso   1.000  C
  H43      1.0000 0.90460  0.45290  0.35270  Biso   1.000  H
  C69      1.0000 0.86438  0.57000  0.13947  Biso   1.000  C
  H44      1.0000 0.85570  0.59920  0.08420  Biso   1.000  H
  C70      1.0000 0.91444  0.47370  0.15647  Biso   1.000  C
  H45      1.0000 0.93890  0.43870  0.11160  Biso   1.000  H
  O11      1.0000 0.48353  0.22450  0.62413  Biso   1.000  O
  O12      1.0000 0.42914  0.09630  0.71937  Biso   1.000  O
  C71      1.0000 0.44139  0.12590  0.64248  Biso   1.000  C
  N21      1.0000 0.07052  0.42840  0.26522  Biso   1.000  N
  N22      1.0000 0.24672  0.75630  0.39091  Biso   1.000  N
  N23      1.0000 0.26565  0.77100  0.25014  Biso   1.000  N
  C72      1.0000 0.40602  0.04760  0.57358  Biso   1.000  C
  C73      1.0000 0.42207  0.07400  0.48956  Biso   1.000  C
  H46      1.0000 0.45550  0.13900  0.47660  Biso   1.000  H
  C74      1.0000 0.33765  0.90860  0.44447  Biso   1.000  C
  C75      1.0000 0.29899  0.83770  0.37805  Biso   1.000  C
  C76      1.0000 0.22822  0.71870  0.31125  Biso   1.000  C
  C77      1.0000 0.35578  0.95160  0.59256  Biso   1.000  C
  H47      1.0000 0.34510  0.93300  0.64860  Biso   1.000  H
  C78      1.0000 0.17293  0.62300  0.29479  Biso   1.000  C
  N24      1.0000 0.31079  0.84670  0.29499  Biso   1.000  N
  H48      1.0000 0.34250  0.89390  0.27310  Biso   1.000  H
  C79      1.0000 0.38838  0.00390  0.42532  Biso   1.000  C
  H49      1.0000 0.39970  0.02060  0.36940  Biso   1.000  H
  C80      1.0000 0.32135  0.88310  0.52820  Biso   1.000  C
  H50      1.0000 0.28730  0.82000  0.54120  Biso   1.000  H
  C81      1.0000 0.15720  0.57800  0.21356  Biso   1.000  C
  H51      1.0000 0.18070  0.61170  0.16760  Biso   1.000  H
  C82      1.0000 0.10579  0.48180  0.20208  Biso   1.000  C
  H52      1.0000 0.09540  0.45290  0.14730  Biso   1.000  H
  C83      1.0000 0.13562  0.57000  0.36053  Biso   1.000  C
  H53      1.0000 0.14430  0.59920  0.41580  Biso   1.000  H
  C84      1.0000 0.08556  0.47370  0.34353  Biso   1.000  C
  H54      1.0000 0.06110  0.43870  0.38840  Biso   1.000  H
  O13      1.0000 0.01647  0.22450  0.12413  Biso   1.000  O
  O14      1.0000 0.07086  0.09630  0.21937  Biso   1.000  O
  C85      1.0000 0.05861  0.12590  0.14248  Biso   1.000  C
  N25      1.0000 0.42948  0.42840  0.76522  Biso   1.000  N
  N26      1.0000 0.25328  0.75630  0.89091  Biso   1.000  N
  N27      1.0000 0.23435  0.77100  0.75014  Biso   1.000  N
  C86      1.0000 0.09398  0.04760  0.07358  Biso   1.000  C
  C87      1.0000 0.07793  0.07400  0.98956  Biso   1.000  C
  H55      1.0000 0.04450  0.13900  0.97660  Biso   1.000  H
  C88      1.0000 0.16235  0.90860  0.94447  Biso   1.000  C
  C89      1.0000 0.20101  0.83770  0.87805  Biso   1.000  C
  C90      1.0000 0.27178  0.71870  0.81125  Biso   1.000  C
  C91      1.0000 0.14422  0.95160  0.09256  Biso   1.000  C
  H56      1.0000 0.15490  0.93300  0.14860  Biso   1.000  H
  C92      1.0000 0.32707  0.62300  0.79479  Biso   1.000  C
  N28      1.0000 0.18921  0.84670  0.79499  Biso   1.000  N
  H57      1.0000 0.15750  0.89390  0.77310  Biso   1.000  H
  C93      1.0000 0.11162  0.00390  0.92532  Biso   1.000  C
  H58      1.0000 0.10030  0.02060  0.86940  Biso   1.000  H
  C94      1.0000 0.17865  0.88310  0.02820  Biso   1.000  C
  H59      1.0000 0.21270  0.82000  0.04120  Biso   1.000  H
  C95      1.0000 0.34280  0.57800  0.71356  Biso   1.000  C
  H60      1.0000 0.31930  0.61170  0.66760  Biso   1.000  H
  C96      1.0000 0.39421  0.48180  0.70208  Biso   1.000  C
  H61      1.0000 0.40460  0.45290  0.64730  Biso   1.000  H
  C97      1.0000 0.36438  0.57000  0.86053  Biso   1.000  C
  H62      1.0000 0.35570  0.59920  0.91580  Biso   1.000  H
  C98      1.0000 0.41444  0.47370  0.84353  Biso   1.000  C
  H63      1.0000 0.43890  0.43870  0.88840  Biso   1.000  H
  O15      1.0000 0.98353  0.22450  0.37587  Biso   1.000  O
  O16      1.0000 0.92914  0.09630  0.28063  Biso   1.000  O
  C99      1.0000 0.94139  0.12590  0.35752  Biso   1.000  C
  N29      1.0000 0.57052  0.42840  0.73478  Biso   1.000  N
  N30      1.0000 0.74672  0.75630  0.60909  Biso   1.000  N
  N31      1.0000 0.76565  0.77100  0.74986  Biso   1.000  N
  C100     1.0000 0.90602  0.04760  0.42642  Biso   1.000  C
  C101     1.0000 0.92207  0.07400  0.51044  Biso   1.000  C
  H64      1.0000 0.95550  0.13900  0.52340  Biso   1.000  H
  C102     1.0000 0.83765  0.90860  0.55553  Biso   1.000  C
  C103     1.0000 0.79899  0.83770  0.62195  Biso   1.000  C
  C104     1.0000 0.72822  0.71870  0.68875  Biso   1.000  C
  C105     1.0000 0.85578  0.95160  0.40744  Biso   1.000  C
  H65      1.0000 0.84510  0.93300  0.35140  Biso   1.000  H
  C106     1.0000 0.67293  0.62300  0.70521  Biso   1.000  C
  N32      1.0000 0.81079  0.84670  0.70501  Biso   1.000  N
  H66      1.0000 0.84250  0.89390  0.72690  Biso   1.000  H
  C107     1.0000 0.88838  0.00390  0.57468  Biso   1.000  C
  H67      1.0000 0.89970  0.02060  0.63060  Biso   1.000  H
  C108     1.0000 0.82135  0.88310  0.47180  Biso   1.000  C
  H68      1.0000 0.78730  0.82000  0.45880  Biso   1.000  H
  C109     1.0000 0.65720  0.57800  0.78644  Biso   1.000  C
  H69      1.0000 0.68070  0.61170  0.83240  Biso   1.000  H
  C110     1.0000 0.60579  0.48180  0.79792  Biso   1.000  C
  H70      1.0000 0.59540  0.45290  0.85270  Biso   1.000  H
  C111     1.0000 0.63562  0.57000  0.63947  Biso   1.000  C
  H71      1.0000 0.64430  0.59920  0.58420  Biso   1.000  H
  C112     1.0000 0.58556  0.47370  0.65647  Biso   1.000  C
  H72      1.0000 0.56110  0.43870  0.61160  Biso   1.000  H
  Ni3      1.0000 0.00000  0.26975  0.25000  Biso   1.000  Ni
  Ni4      1.0000 0.50000  0.26975  0.75000  Biso   1.000  Ni
