data_image0
_cell_length_a       10.9539
_cell_length_b       17.4492
_cell_length_c       18.7
_cell_angle_alpha    88.868
_cell_angle_beta     86.16
_cell_angle_gamma    76.462

_symmetry_space_group_name_H-M    "P 1"
_symmetry_int_tables_number       1

loop_
  _symmetry_equiv_pos_as_xyz
  'x, y, z'

loop_
  _atom_site_label
  _atom_site_occupancy
  _atom_site_fract_x
  _atom_site_fract_y
  _atom_site_fract_z
  _atom_site_thermal_displace_type
  _atom_site_B_iso_or_equiv
  _atom_site_type_symbol
  Ba1      1.0000 0.40167  0.39294  0.49075  Biso   1.000  Ba
  Ba2      1.0000 0.44130  0.46473  0.24564  Biso   1.000  Ba
  Ba3      1.0000 0.14237  0.64461  0.03220  Biso   1.000  Ba
  Ba4      1.0000 0.80156  0.09600  0.98444  Biso   1.000  Ba
  Ba5      1.0000 0.11344  0.95874  0.26078  Biso   1.000  Ba
  Ba6      1.0000 0.20044  0.17734  0.45978  Biso   1.000  Ba
  Fe1      1.0000 0.10873  0.63600  0.36585  Biso   1.000  Fe
  Fe2      1.0000 0.39548  0.32055  0.82403  Biso   1.000  Fe
  Fe3      1.0000 0.26340  0.14500  0.12777  Biso   1.000  Fe
  Fe4      1.0000 0.74537  0.14279  0.32200  Biso   1.000  Fe
  O1       1.0000 0.21950  0.56200  0.43180  Biso   1.000  O
  O2       1.0000 0.37800  0.55530  0.50130  Biso   1.000  O
  O3       1.0000 0.21970  0.70720  0.39260  Biso   1.000  O
  O4       1.0000 0.36970  0.71170  0.46740  Biso   1.000  O
  O5       1.0000 0.97390  0.68940  0.43890  Biso   1.000  O
  O6       1.0000 0.81170  0.66700  0.50710  Biso   1.000  O
  O7       1.0000 0.99370  0.55930  0.36630  Biso   1.000  O
  O8       1.0000 0.82130  0.53630  0.42560  Biso   1.000  O
  O9       1.0000 0.22160  0.58290  0.28220  Biso   1.000  O
  O10      1.0000 0.25850  0.59560  0.16420  Biso   1.000  O
  O11      1.0000 0.03340  0.70600  0.28620  Biso   1.000  O
  O12      1.0000 0.04970  0.72020  0.16660  Biso   1.000  O
  O13      1.0000 0.47220  0.39330  0.75530  Biso   1.000  O
  O14      1.0000 0.47640  0.42970  0.64010  Biso   1.000  O
  O15      1.0000 0.37460  0.27520  0.72880  Biso   1.000  O
  O16      1.0000 0.36750  0.30600  0.61270  Biso   1.000  O
  O17      1.0000 0.56770  0.24800  0.84040  Biso   1.000  O
  O18      1.0000 0.72970  0.23800  0.90970  Biso   1.000  O
  O19      1.0000 0.44020  0.37220  0.91000  Biso   1.000  O
  O20      1.0000 0.59900  0.36620  0.98140  Biso   1.000  O
  O21      1.0000 0.23020  0.40530  0.83110  Biso   1.000  O
  O22      1.0000 0.04020  0.42800  0.89530  Biso   1.000  O
  O23      1.0000 0.29230  0.25630  0.87860  Biso   1.000  O
  O24      1.0000 0.11270  0.27320  0.94540  Biso   1.000  O
  O25      1.0000 0.09460  0.21190  0.09920  Biso   1.000  O
  O26      1.0000 0.93740  0.20790  0.02900  Biso   1.000  O
  O27      1.0000 0.21170  0.06820  0.06270  Biso   1.000  O
  O28      1.0000 0.06660  0.05930  0.98830  Biso   1.000  O
  O29      1.0000 0.36150  0.19340  0.05420  Biso   1.000  O
  O30      1.0000 0.54470  0.16800  0.98920  Biso   1.000  O
  O31      1.0000 0.42990  0.06410  0.12940  Biso   1.000  O
  O32      1.0000 0.61910  0.03230  0.06930  Biso   1.000  O
  O33      1.0000 0.18670  0.09750  0.21370  Biso   1.000  O
  O34      1.0000 0.14420  0.11140  0.33170  Biso   1.000  O
  O35      1.0000 0.28320  0.21960  0.20480  Biso   1.000  O
  O36      1.0000 0.25330  0.24070  0.32290  Biso   1.000  O
  O37      1.0000 0.68260  0.18830  0.22860  Biso   1.000  O
  O38      1.0000 0.71450  0.17600  0.11050  Biso   1.000  O
  O39      1.0000 0.86660  0.06850  0.25290  Biso   1.000  O
  O40      1.0000 0.92230  0.05350  0.13620  Biso   1.000  O
  O41      1.0000 0.61730  0.07770  0.34200  Biso   1.000  O
  O42      1.0000 0.42170  0.08470  0.38980  Biso   1.000  O
  O43      1.0000 0.60590  0.22260  0.37450  Biso   1.000  O
  O44      1.0000 0.42290  0.23490  0.43860  Biso   1.000  O
  O45      1.0000 0.85010  0.22320  0.32580  Biso   1.000  O
  O46      1.0000 0.97340  0.26440  0.39970  Biso   1.000  O
  O47      1.0000 0.83890  0.10120  0.40840  Biso   1.000  O
  O48      1.0000 0.97670  0.13010  0.48050  Biso   1.000  O
  O49      1.0000 0.29420  0.39620  0.35110  Biso   1.000  O
  H1       1.0000 0.21090  0.42630  0.34400  Biso   1.000  H
  H2       1.0000 0.28980  0.34320  0.34340  Biso   1.000  H
  O50      1.0000 0.56710  0.38270  0.36040  Biso   1.000  O
  H3       1.0000 0.65130  0.39010  0.35700  Biso   1.000  H
  H4       1.0000 0.57730  0.32730  0.35590  Biso   1.000  H
  O51      1.0000 0.68490  0.07640  0.85190  Biso   1.000  O
  H5       1.0000 0.63870  0.03660  0.84930  Biso   1.000  H
  H6       1.0000 0.62440  0.12430  0.84410  Biso   1.000  H
  O52      1.0000 0.95920  0.11760  0.85590  Biso   1.000  O
  H7       1.0000 0.95320  0.17060  0.84100  Biso   1.000  H
  H8       1.0000 0.04770  0.09580  0.85780  Biso   1.000  H
  C1       1.0000 0.29890  0.59140  0.46090  Biso   1.000  C
  C2       1.0000 0.29750  0.67870  0.44000  Biso   1.000  C
  C3       1.0000 0.89360  0.64940  0.45740  Biso   1.000  C
  C4       1.0000 0.90190  0.57380  0.41340  Biso   1.000  C
  C5       1.0000 0.19810  0.61590  0.22040  Biso   1.000  C
  C6       1.0000 0.08310  0.68710  0.22350  Biso   1.000  C
  C7       1.0000 0.45240  0.38660  0.68980  Biso   1.000  C
  C8       1.0000 0.39230  0.31670  0.67440  Biso   1.000  C
  C9       1.0000 0.62330  0.27090  0.89200  Biso   1.000  C
  C10      1.0000 0.54880  0.34350  0.93160  Biso   1.000  C
  C11      1.0000 0.14620  0.38430  0.87480  Biso   1.000  C
  C12      1.0000 0.18450  0.29830  0.90350  Biso   1.000  C
  C13      1.0000 0.03990  0.17930  0.05420  Biso   1.000  C
  C14      1.0000 0.11030  0.09590  0.03200  Biso   1.000  C
  C15      1.0000 0.47160  0.15210  0.03670  Biso   1.000  C
  C16      1.0000 0.51350  0.07580  0.08120  Biso   1.000  C
  C17      1.0000 0.24410  0.20520  0.26860  Biso   1.000  C
  C18      1.0000 0.18470  0.13250  0.27420  Biso   1.000  C
  C19      1.0000 0.74090  0.15550  0.17190  Biso   1.000  C
  C20      1.0000 0.85410  0.08570  0.18670  Biso   1.000  C
  C21      1.0000 0.51370  0.11230  0.37670  Biso   1.000  C
  C22      1.0000 0.51130  0.19720  0.40050  Biso   1.000  C
  C23      1.0000 0.91440  0.21670  0.38190  Biso   1.000  C
  C24      1.0000 0.91180  0.14320  0.42880  Biso   1.000  C
  Ba7      1.0000 0.59833  0.60706  0.50925  Biso   1.000  Ba
  Ba8      1.0000 0.55870  0.53527  0.75436  Biso   1.000  Ba
  Ba9      1.0000 0.85763  0.35539  0.96780  Biso   1.000  Ba
  Ba10     1.0000 0.19844  0.90400  0.01556  Biso   1.000  Ba
  Ba11     1.0000 0.88656  0.04126  0.73922  Biso   1.000  Ba
  Ba12     1.0000 0.79956  0.82266  0.54022  Biso   1.000  Ba
  Fe5      1.0000 0.89127  0.36400  0.63415  Biso   1.000  Fe
  Fe6      1.0000 0.60452  0.67945  0.17597  Biso   1.000  Fe
  Fe7      1.0000 0.73660  0.85500  0.87223  Biso   1.000  Fe
  Fe8      1.0000 0.25463  0.85721  0.67800  Biso   1.000  Fe
  O53      1.0000 0.78050  0.43800  0.56820  Biso   1.000  O
  O54      1.0000 0.62200  0.44470  0.49870  Biso   1.000  O
  O55      1.0000 0.78030  0.29280  0.60740  Biso   1.000  O
  O56      1.0000 0.63030  0.28830  0.53260  Biso   1.000  O
  O57      1.0000 0.02610  0.31060  0.56110  Biso   1.000  O
  O58      1.0000 0.18830  0.33300  0.49290  Biso   1.000  O
  O59      1.0000 0.00630  0.44070  0.63370  Biso   1.000  O
  O60      1.0000 0.17870  0.46370  0.57440  Biso   1.000  O
  O61      1.0000 0.77840  0.41710  0.71780  Biso   1.000  O
  O62      1.0000 0.74150  0.40440  0.83580  Biso   1.000  O
  O63      1.0000 0.96660  0.29400  0.71380  Biso   1.000  O
  O64      1.0000 0.95030  0.27980  0.83340  Biso   1.000  O
  O65      1.0000 0.52780  0.60670  0.24470  Biso   1.000  O
  O66      1.0000 0.52360  0.57030  0.35990  Biso   1.000  O
  O67      1.0000 0.62540  0.72480  0.27120  Biso   1.000  O
  O68      1.0000 0.63250  0.69400  0.38730  Biso   1.000  O
  O69      1.0000 0.43230  0.75200  0.15960  Biso   1.000  O
  O70      1.0000 0.27030  0.76200  0.09030  Biso   1.000  O
  O71      1.0000 0.55980  0.62780  0.09000  Biso   1.000  O
  O72      1.0000 0.40100  0.63380  0.01860  Biso   1.000  O
  O73      1.0000 0.76980  0.59470  0.16890  Biso   1.000  O
  O74      1.0000 0.95980  0.57200  0.10470  Biso   1.000  O
  O75      1.0000 0.70770  0.74370  0.12140  Biso   1.000  O
  O76      1.0000 0.88730  0.72680  0.05460  Biso   1.000  O
  O77      1.0000 0.90540  0.78810  0.90080  Biso   1.000  O
  O78      1.0000 0.06260  0.79210  0.97100  Biso   1.000  O
  O79      1.0000 0.78830  0.93180  0.93730  Biso   1.000  O
  O80      1.0000 0.93340  0.94070  0.01170  Biso   1.000  O
  O81      1.0000 0.63850  0.80660  0.94580  Biso   1.000  O
  O82      1.0000 0.45530  0.83200  0.01080  Biso   1.000  O
  O83      1.0000 0.57010  0.93590  0.87060  Biso   1.000  O
  O84      1.0000 0.38090  0.96770  0.93070  Biso   1.000  O
  O85      1.0000 0.81330  0.90250  0.78630  Biso   1.000  O
  O86      1.0000 0.85580  0.88860  0.66830  Biso   1.000  O
  O87      1.0000 0.71680  0.78040  0.79520  Biso   1.000  O
  O88      1.0000 0.74670  0.75930  0.67710  Biso   1.000  O
  O89      1.0000 0.31740  0.81170  0.77140  Biso   1.000  O
  O90      1.0000 0.28550  0.82400  0.88950  Biso   1.000  O
  O91      1.0000 0.13340  0.93150  0.74710  Biso   1.000  O
  O92      1.0000 0.07770  0.94650  0.86380  Biso   1.000  O
  O93      1.0000 0.38270  0.92230  0.65800  Biso   1.000  O
  O94      1.0000 0.57830  0.91530  0.61020  Biso   1.000  O
  O95      1.0000 0.39410  0.77740  0.62550  Biso   1.000  O
  O96      1.0000 0.57710  0.76510  0.56140  Biso   1.000  O
  O97      1.0000 0.14990  0.77680  0.67420  Biso   1.000  O
  O98      1.0000 0.02660  0.73560  0.60030  Biso   1.000  O
  O99      1.0000 0.16110  0.89880  0.59160  Biso   1.000  O
  O100     1.0000 0.02330  0.86990  0.51950  Biso   1.000  O
  O101     1.0000 0.70580  0.60380  0.64890  Biso   1.000  O
  H9       1.0000 0.78910  0.57370  0.65600  Biso   1.000  H
  H10      1.0000 0.71020  0.65680  0.65660  Biso   1.000  H
  O102     1.0000 0.43290  0.61730  0.63960  Biso   1.000  O
  H11      1.0000 0.34870  0.60990  0.64300  Biso   1.000  H
  H12      1.0000 0.42270  0.67270  0.64410  Biso   1.000  H
  O103     1.0000 0.31510  0.92360  0.14810  Biso   1.000  O
  H13      1.0000 0.36130  0.96340  0.15070  Biso   1.000  H
  H14      1.0000 0.37560  0.87570  0.15590  Biso   1.000  H
  O104     1.0000 0.04080  0.88240  0.14410  Biso   1.000  O
  H15      1.0000 0.04680  0.82940  0.15900  Biso   1.000  H
  H16      1.0000 0.95230  0.90420  0.14220  Biso   1.000  H
  C25      1.0000 0.70110  0.40860  0.53910  Biso   1.000  C
  C26      1.0000 0.70250  0.32130  0.56000  Biso   1.000  C
  C27      1.0000 0.10640  0.35060  0.54260  Biso   1.000  C
  C28      1.0000 0.09810  0.42620  0.58660  Biso   1.000  C
  C29      1.0000 0.80190  0.38410  0.77960  Biso   1.000  C
  C30      1.0000 0.91690  0.31290  0.77650  Biso   1.000  C
  C31      1.0000 0.54760  0.61340  0.31020  Biso   1.000  C
  C32      1.0000 0.60770  0.68330  0.32560  Biso   1.000  C
  C33      1.0000 0.37670  0.72910  0.10800  Biso   1.000  C
  C34      1.0000 0.45120  0.65650  0.06840  Biso   1.000  C
  C35      1.0000 0.85380  0.61570  0.12520  Biso   1.000  C
  C36      1.0000 0.81550  0.70170  0.09650  Biso   1.000  C
  C37      1.0000 0.96010  0.82070  0.94580  Biso   1.000  C
  C38      1.0000 0.88970  0.90410  0.96800  Biso   1.000  C
  C39      1.0000 0.52840  0.84790  0.96330  Biso   1.000  C
  C40      1.0000 0.48650  0.92420  0.91880  Biso   1.000  C
  C41      1.0000 0.75590  0.79480  0.73140  Biso   1.000  C
  C42      1.0000 0.81530  0.86750  0.72580  Biso   1.000  C
  C43      1.0000 0.25910  0.84450  0.82810  Biso   1.000  C
  C44      1.0000 0.14590  0.91430  0.81330  Biso   1.000  C
  C45      1.0000 0.48630  0.88770  0.62330  Biso   1.000  C
  C46      1.0000 0.48870  0.80280  0.59950  Biso   1.000  C
  C47      1.0000 0.08560  0.78330  0.61810  Biso   1.000  C
  C48      1.0000 0.08820  0.85680  0.57120  Biso   1.000  C
