data_image0
_cell_length_a       14.424
_cell_length_b       17.798
_cell_length_c       17.195
_cell_angle_alpha    90
_cell_angle_beta     90
_cell_angle_gamma    90

_symmetry_space_group_name_H-M    "P 1"
_symmetry_int_tables_number       1

loop_
  _symmetry_equiv_pos_as_xyz
  'x, y, z'

loop_
  _atom_site_label
  _atom_site_occupancy
  _atom_site_fract_x
  _atom_site_fract_y
  _atom_site_fract_z
  _atom_site_thermal_displace_type
  _atom_site_B_iso_or_equiv
  _atom_site_type_symbol
  Mn1      1.0000 0.99799  0.83640  0.75170  Biso   1.000  Mn
  Mn2      1.0000 0.50776  0.32636  0.16425  Biso   1.000  Mn
  S1       1.0000 0.00260  0.76437  0.45091  Biso   1.000  S
  O1       1.0000 0.54170  0.41232  0.08160  Biso   1.000  O
  O2       1.0000 0.67100  0.39151  0.14890  Biso   1.000  O
  O3       1.0000 0.10660  0.92709  0.75370  Biso   1.000  O
  O4       1.0000 0.00120  0.93210  0.84560  Biso   1.000  O
  O5       1.0000 0.03790  0.73660  0.67600  Biso   1.000  O
  O6       1.0000 0.99380  0.83540  0.60850  Biso   1.000  O
  O7       1.0000 0.00810  0.74080  0.28030  Biso   1.000  O
  O8       1.0000 0.02750  0.61780  0.28180  Biso   1.000  O
  N1       1.0000 0.91770  0.76030  0.82830  Biso   1.000  N
  N2       1.0000 0.84490  0.85760  0.73270  Biso   1.000  N
  N3       1.0000 0.10010  0.77620  0.83170  Biso   1.000  N
  N4       1.0000 0.41760  0.24800  0.09390  Biso   1.000  N
  N5       1.0000 0.35150  0.35940  0.17860  Biso   1.000  N
  N6       1.0000 0.59950  0.23080  0.11660  Biso   1.000  N
  C1       1.0000 0.82450  0.75700  0.82420  Biso   1.000  C
  C2       1.0000 0.77460  0.70330  0.86570  Biso   1.000  C
  H1       1.0000 0.71020  0.70260  0.86270  Biso   1.000  H
  C3       1.0000 0.82020  0.65070  0.91160  Biso   1.000  C
  C4       1.0000 0.91780  0.65600  0.91520  Biso   1.000  C
  H2       1.0000 0.95120  0.62200  0.94510  Biso   1.000  H
  C5       1.0000 0.96380  0.71160  0.87430  Biso   1.000  C
  C6       1.0000 0.78340  0.81500  0.77270  Biso   1.000  C
  C7       1.0000 0.68770  0.82590  0.76510  Biso   1.000  C
  H3       1.0000 0.64660  0.79530  0.79210  Biso   1.000  H
  C8       1.0000 0.65470  0.88180  0.71770  Biso   1.000  C
  H4       1.0000 0.59130  0.88980  0.71230  Biso   1.000  H
  C9       1.0000 0.71810  0.92650  0.67780  Biso   1.000  C
  H5       1.0000 0.69790  0.96550  0.64610  Biso   1.000  H
  C10      1.0000 0.81270  0.91160  0.68630  Biso   1.000  C
  H6       1.0000 0.85490  0.94060  0.65850  Biso   1.000  H
  C11      1.0000 0.06540  0.72220  0.87800  Biso   1.000  C
  C12      1.0000 0.12240  0.68020  0.92660  Biso   1.000  C
  H7       1.0000 0.09720  0.64310  0.95830  Biso   1.000  H
  C13      1.0000 0.21560  0.69390  0.92750  Biso   1.000  C
  H8       1.0000 0.25440  0.66590  0.95950  Biso   1.000  H
  C14      1.0000 0.25210  0.75010  0.88000  Biso   1.000  C
  H9       1.0000 0.31510  0.76100  0.88040  Biso   1.000  H
  C15      1.0000 0.19230  0.78900  0.83250  Biso   1.000  C
  H10      1.0000 0.21630  0.82570  0.79960  Biso   1.000  H
  C16      1.0000 0.77070  0.58980  0.95590  Biso   1.000  C
  C17      1.0000 0.67870  0.57270  0.94150  Biso   1.000  C
  H11      1.0000 0.64710  0.59750  0.90200  Biso   1.000  H
  C18      1.0000 0.63330  0.51900  0.98540  Biso   1.000  C
  H12      1.0000 0.57130  0.50880  0.97500  Biso   1.000  H
  C19      1.0000 0.67800  0.47980  0.04490  Biso   1.000  C
  C20      1.0000 0.77120  0.49520  0.05740  Biso   1.000  C
  H13      1.0000 0.80350  0.46880  0.09530  Biso   1.000  H
  C21      1.0000 0.81680  0.54930  0.01390  Biso   1.000  C
  H14      1.0000 0.87910  0.55900  0.02350  Biso   1.000  H
  C22      1.0000 0.62850  0.42480  0.09560  Biso   1.000  C
  C23      1.0000 0.32610  0.25770  0.08920  Biso   1.000  C
  C24      1.0000 0.26930  0.21120  0.04440  Biso   1.000  C
  H15      1.0000 0.20590  0.22030  0.04130  Biso   1.000  H
  C25      1.0000 0.30930  0.15010  0.00370  Biso   1.000  C
  C26      1.0000 0.40550  0.14120  0.00980  Biso   1.000  C
  H16      1.0000 0.43490  0.10230  0.98330  Biso   1.000  H
  C27      1.0000 0.45720  0.19060  0.05560  Biso   1.000  C
  C28      1.0000 0.28730  0.31960  0.13820  Biso   1.000  C
  C29      1.0000 0.19310  0.33490  0.14330  Biso   1.000  C
  H17      1.0000 0.15050  0.30720  0.11460  Biso   1.000  H
  C30      1.0000 0.16360  0.39210  0.19220  Biso   1.000  C
  H18      1.0000 0.10070  0.40250  0.19750  Biso   1.000  H
  C31      1.0000 0.22840  0.43350  0.23260  Biso   1.000  C
  H19      1.0000 0.21010  0.47270  0.26500  Biso   1.000  H
  C32      1.0000 0.32050  0.41570  0.22420  Biso   1.000  C
  H20      1.0000 0.36380  0.44410  0.25150  Biso   1.000  H
  C33      1.0000 0.55920  0.18110  0.06700  Biso   1.000  C
  C34      1.0000 0.60920  0.12430  0.03240  Biso   1.000  C
  H21      1.0000 0.58130  0.09240  0.99660  Biso   1.000  H
  C35      1.0000 0.70180  0.11550  0.05180  Biso   1.000  C
  H22      1.0000 0.73640  0.07690  0.02970  Biso   1.000  H
  C36      1.0000 0.74250  0.16420  0.10380  Biso   1.000  C
  H23      1.0000 0.80420  0.15870  0.11840  Biso   1.000  H
  C37      1.0000 0.68830  0.22170  0.13360  Biso   1.000  C
  H24      1.0000 0.71580  0.25570  0.16750  Biso   1.000  H
  C38      1.0000 0.25100  0.09730  0.95810  Biso   1.000  C
  C39      1.0000 0.15600  0.09210  0.97110  Biso   1.000  C
  H25      1.0000 0.12920  0.12090  0.01020  Biso   1.000  H
  C40      1.0000 0.10000  0.04450  0.92690  Biso   1.000  C
  H26      1.0000 0.03680  0.04130  0.93710  Biso   1.000  H
  C41      1.0000 0.13900  0.00180  0.86730  Biso   1.000  C
  C42      1.0000 0.23490  0.00450  0.85590  Biso   1.000  C
  H27      1.0000 0.26200  0.97450  0.81790  Biso   1.000  H
  C43      1.0000 0.28960  0.05140  0.90030  Biso   1.000  C
  H28      1.0000 0.35330  0.05250  0.89180  Biso   1.000  H
  C44      1.0000 0.07840  0.95150  0.81880  Biso   1.000  C
  C45      1.0000 0.02780  0.72430  0.53920  Biso   1.000  C
  C46      1.0000 0.05400  0.64970  0.53090  Biso   1.000  C
  H29      1.0000 0.06900  0.61840  0.57230  Biso   1.000  H
  C47      1.0000 0.05500  0.62710  0.45250  Biso   1.000  C
  H30      1.0000 0.07230  0.57930  0.43620  Biso   1.000  H
  C48      1.0000 0.02800  0.68260  0.40280  Biso   1.000  C
  C49      1.0000 0.01950  0.76840  0.61180  Biso   1.000  C
  C50      1.0000 0.02040  0.68060  0.31600  Biso   1.000  C
  Mn3      1.0000 0.49799  0.16360  0.75170  Biso   1.000  Mn
  Mn4      1.0000 0.00776  0.67364  0.16425  Biso   1.000  Mn
  S2       1.0000 0.50260  0.23563  0.45091  Biso   1.000  S
  O9       1.0000 0.04170  0.58768  0.08160  Biso   1.000  O
  O10      1.0000 0.17100  0.60849  0.14890  Biso   1.000  O
  O11      1.0000 0.60660  0.07291  0.75370  Biso   1.000  O
  O12      1.0000 0.50120  0.06790  0.84560  Biso   1.000  O
  O13      1.0000 0.53790  0.26340  0.67600  Biso   1.000  O
  O14      1.0000 0.49380  0.16460  0.60850  Biso   1.000  O
  O15      1.0000 0.50810  0.25920  0.28030  Biso   1.000  O
  O16      1.0000 0.52750  0.38220  0.28180  Biso   1.000  O
  N7       1.0000 0.41770  0.23970  0.82830  Biso   1.000  N
  N8       1.0000 0.34490  0.14240  0.73270  Biso   1.000  N
  N9       1.0000 0.60010  0.22380  0.83170  Biso   1.000  N
  N10      1.0000 0.91760  0.75200  0.09390  Biso   1.000  N
  N11      1.0000 0.85150  0.64060  0.17860  Biso   1.000  N
  N12      1.0000 0.09950  0.76920  0.11660  Biso   1.000  N
  C51      1.0000 0.32450  0.24300  0.82420  Biso   1.000  C
  C52      1.0000 0.27460  0.29670  0.86570  Biso   1.000  C
  H31      1.0000 0.21020  0.29740  0.86270  Biso   1.000  H
  C53      1.0000 0.32020  0.34930  0.91160  Biso   1.000  C
  C54      1.0000 0.41780  0.34400  0.91520  Biso   1.000  C
  H32      1.0000 0.45120  0.37800  0.94510  Biso   1.000  H
  C55      1.0000 0.46380  0.28840  0.87430  Biso   1.000  C
  C56      1.0000 0.28340  0.18500  0.77270  Biso   1.000  C
  C57      1.0000 0.18770  0.17410  0.76510  Biso   1.000  C
  H33      1.0000 0.14660  0.20470  0.79210  Biso   1.000  H
  C58      1.0000 0.15470  0.11820  0.71770  Biso   1.000  C
  H34      1.0000 0.09130  0.11020  0.71230  Biso   1.000  H
  C59      1.0000 0.21810  0.07350  0.67780  Biso   1.000  C
  H35      1.0000 0.19790  0.03450  0.64610  Biso   1.000  H
  C60      1.0000 0.31270  0.08840  0.68630  Biso   1.000  C
  H36      1.0000 0.35490  0.05940  0.65850  Biso   1.000  H
  C61      1.0000 0.56540  0.27780  0.87800  Biso   1.000  C
  C62      1.0000 0.62240  0.31980  0.92660  Biso   1.000  C
  H37      1.0000 0.59720  0.35690  0.95830  Biso   1.000  H
  C63      1.0000 0.71560  0.30610  0.92750  Biso   1.000  C
  H38      1.0000 0.75440  0.33410  0.95950  Biso   1.000  H
  C64      1.0000 0.75210  0.24990  0.88000  Biso   1.000  C
  H39      1.0000 0.81510  0.23900  0.88040  Biso   1.000  H
  C65      1.0000 0.69230  0.21100  0.83250  Biso   1.000  C
  H40      1.0000 0.71630  0.17430  0.79960  Biso   1.000  H
  C66      1.0000 0.27070  0.41020  0.95590  Biso   1.000  C
  C67      1.0000 0.17870  0.42730  0.94150  Biso   1.000  C
  H41      1.0000 0.14710  0.40250  0.90200  Biso   1.000  H
  C68      1.0000 0.13330  0.48100  0.98540  Biso   1.000  C
  H42      1.0000 0.07130  0.49120  0.97500  Biso   1.000  H
  C69      1.0000 0.17800  0.52020  0.04490  Biso   1.000  C
  C70      1.0000 0.27120  0.50480  0.05740  Biso   1.000  C
  H43      1.0000 0.30350  0.53120  0.09530  Biso   1.000  H
  C71      1.0000 0.31680  0.45070  0.01390  Biso   1.000  C
  H44      1.0000 0.37910  0.44100  0.02350  Biso   1.000  H
  C72      1.0000 0.12850  0.57520  0.09560  Biso   1.000  C
  C73      1.0000 0.82610  0.74230  0.08920  Biso   1.000  C
  C74      1.0000 0.76930  0.78880  0.04440  Biso   1.000  C
  H45      1.0000 0.70590  0.77970  0.04130  Biso   1.000  H
  C75      1.0000 0.80930  0.84990  0.00370  Biso   1.000  C
  C76      1.0000 0.90550  0.85880  0.00980  Biso   1.000  C
  H46      1.0000 0.93490  0.89770  0.98330  Biso   1.000  H
  C77      1.0000 0.95720  0.80940  0.05560  Biso   1.000  C
  C78      1.0000 0.78730  0.68040  0.13820  Biso   1.000  C
  C79      1.0000 0.69310  0.66510  0.14330  Biso   1.000  C
  H47      1.0000 0.65050  0.69280  0.11460  Biso   1.000  H
  C80      1.0000 0.66360  0.60790  0.19220  Biso   1.000  C
  H48      1.0000 0.60070  0.59750  0.19750  Biso   1.000  H
  C81      1.0000 0.72840  0.56650  0.23260  Biso   1.000  C
  H49      1.0000 0.71010  0.52730  0.26500  Biso   1.000  H
  C82      1.0000 0.82050  0.58430  0.22420  Biso   1.000  C
  H50      1.0000 0.86380  0.55590  0.25150  Biso   1.000  H
  C83      1.0000 0.05920  0.81890  0.06700  Biso   1.000  C
  C84      1.0000 0.10920  0.87570  0.03240  Biso   1.000  C
  H51      1.0000 0.08130  0.90760  0.99660  Biso   1.000  H
  C85      1.0000 0.20180  0.88450  0.05180  Biso   1.000  C
  H52      1.0000 0.23640  0.92310  0.02970  Biso   1.000  H
  C86      1.0000 0.24250  0.83580  0.10380  Biso   1.000  C
  H53      1.0000 0.30420  0.84130  0.11840  Biso   1.000  H
  C87      1.0000 0.18830  0.77830  0.13360  Biso   1.000  C
  H54      1.0000 0.21580  0.74430  0.16750  Biso   1.000  H
  C88      1.0000 0.75100  0.90270  0.95810  Biso   1.000  C
  C89      1.0000 0.65600  0.90790  0.97110  Biso   1.000  C
  H55      1.0000 0.62920  0.87910  0.01020  Biso   1.000  H
  C90      1.0000 0.60000  0.95550  0.92690  Biso   1.000  C
  H56      1.0000 0.53680  0.95870  0.93710  Biso   1.000  H
  C91      1.0000 0.63900  0.99820  0.86730  Biso   1.000  C
  C92      1.0000 0.73490  0.99550  0.85590  Biso   1.000  C
  H57      1.0000 0.76200  0.02550  0.81790  Biso   1.000  H
  C93      1.0000 0.78960  0.94860  0.90030  Biso   1.000  C
  H58      1.0000 0.85330  0.94750  0.89180  Biso   1.000  H
  C94      1.0000 0.57840  0.04850  0.81880  Biso   1.000  C
  C95      1.0000 0.52780  0.27570  0.53920  Biso   1.000  C
  C96      1.0000 0.55400  0.35030  0.53090  Biso   1.000  C
  H59      1.0000 0.56900  0.38160  0.57230  Biso   1.000  H
  C97      1.0000 0.55500  0.37290  0.45250  Biso   1.000  C
  H60      1.0000 0.57230  0.42070  0.43620  Biso   1.000  H
  C98      1.0000 0.52800  0.31740  0.40280  Biso   1.000  C
  C99      1.0000 0.51950  0.23160  0.61180  Biso   1.000  C
  C100     1.0000 0.52040  0.31940  0.31600  Biso   1.000  C
  Mn5      1.0000 0.00201  0.16360  0.25170  Biso   1.000  Mn
  Mn6      1.0000 0.49224  0.67364  0.66425  Biso   1.000  Mn
  S3       1.0000 0.99740  0.23563  0.95091  Biso   1.000  S
  O17      1.0000 0.45830  0.58768  0.58160  Biso   1.000  O
  O18      1.0000 0.32900  0.60849  0.64890  Biso   1.000  O
  O19      1.0000 0.89340  0.07291  0.25370  Biso   1.000  O
  O20      1.0000 0.99880  0.06790  0.34560  Biso   1.000  O
  O21      1.0000 0.96210  0.26340  0.17600  Biso   1.000  O
  O22      1.0000 0.00620  0.16460  0.10850  Biso   1.000  O
  O23      1.0000 0.99190  0.25920  0.78030  Biso   1.000  O
  O24      1.0000 0.97250  0.38220  0.78180  Biso   1.000  O
  N13      1.0000 0.08230  0.23970  0.32830  Biso   1.000  N
  N14      1.0000 0.15510  0.14240  0.23270  Biso   1.000  N
  N15      1.0000 0.89990  0.22380  0.33170  Biso   1.000  N
  N16      1.0000 0.58240  0.75200  0.59390  Biso   1.000  N
  N17      1.0000 0.64850  0.64060  0.67860  Biso   1.000  N
  N18      1.0000 0.40050  0.76920  0.61660  Biso   1.000  N
  C101     1.0000 0.17550  0.24300  0.32420  Biso   1.000  C
  C102     1.0000 0.22540  0.29670  0.36570  Biso   1.000  C
  H61      1.0000 0.28980  0.29740  0.36270  Biso   1.000  H
  C103     1.0000 0.17980  0.34930  0.41160  Biso   1.000  C
  C104     1.0000 0.08220  0.34400  0.41520  Biso   1.000  C
  H62      1.0000 0.04880  0.37800  0.44510  Biso   1.000  H
  C105     1.0000 0.03620  0.28840  0.37430  Biso   1.000  C
  C106     1.0000 0.21660  0.18500  0.27270  Biso   1.000  C
  C107     1.0000 0.31230  0.17410  0.26510  Biso   1.000  C
  H63      1.0000 0.35340  0.20470  0.29210  Biso   1.000  H
  C108     1.0000 0.34530  0.11820  0.21770  Biso   1.000  C
  H64      1.0000 0.40870  0.11020  0.21230  Biso   1.000  H
  C109     1.0000 0.28190  0.07350  0.17780  Biso   1.000  C
  H65      1.0000 0.30210  0.03450  0.14610  Biso   1.000  H
  C110     1.0000 0.18730  0.08840  0.18630  Biso   1.000  C
  H66      1.0000 0.14510  0.05940  0.15850  Biso   1.000  H
  C111     1.0000 0.93460  0.27780  0.37800  Biso   1.000  C
  C112     1.0000 0.87760  0.31980  0.42660  Biso   1.000  C
  H67      1.0000 0.90280  0.35690  0.45830  Biso   1.000  H
  C113     1.0000 0.78440  0.30610  0.42750  Biso   1.000  C
  H68      1.0000 0.74560  0.33410  0.45950  Biso   1.000  H
  C114     1.0000 0.74790  0.24990  0.38000  Biso   1.000  C
  H69      1.0000 0.68490  0.23900  0.38040  Biso   1.000  H
  C115     1.0000 0.80770  0.21100  0.33250  Biso   1.000  C
  H70      1.0000 0.78370  0.17430  0.29960  Biso   1.000  H
  C116     1.0000 0.22930  0.41020  0.45590  Biso   1.000  C
  C117     1.0000 0.32130  0.42730  0.44150  Biso   1.000  C
  H71      1.0000 0.35290  0.40250  0.40200  Biso   1.000  H
  C118     1.0000 0.36670  0.48100  0.48540  Biso   1.000  C
  H72      1.0000 0.42870  0.49120  0.47500  Biso   1.000  H
  C119     1.0000 0.32200  0.52020  0.54490  Biso   1.000  C
  C120     1.0000 0.22880  0.50480  0.55740  Biso   1.000  C
  H73      1.0000 0.19650  0.53120  0.59530  Biso   1.000  H
  C121     1.0000 0.18320  0.45070  0.51390  Biso   1.000  C
  H74      1.0000 0.12090  0.44100  0.52350  Biso   1.000  H
  C122     1.0000 0.37150  0.57520  0.59560  Biso   1.000  C
  C123     1.0000 0.67390  0.74230  0.58920  Biso   1.000  C
  C124     1.0000 0.73070  0.78880  0.54440  Biso   1.000  C
  H75      1.0000 0.79410  0.77970  0.54130  Biso   1.000  H
  C125     1.0000 0.69070  0.84990  0.50370  Biso   1.000  C
  C126     1.0000 0.59450  0.85880  0.50980  Biso   1.000  C
  H76      1.0000 0.56510  0.89770  0.48330  Biso   1.000  H
  C127     1.0000 0.54280  0.80940  0.55560  Biso   1.000  C
  C128     1.0000 0.71270  0.68040  0.63820  Biso   1.000  C
  C129     1.0000 0.80690  0.66510  0.64330  Biso   1.000  C
  H77      1.0000 0.84950  0.69280  0.61460  Biso   1.000  H
  C130     1.0000 0.83640  0.60790  0.69220  Biso   1.000  C
  H78      1.0000 0.89930  0.59750  0.69750  Biso   1.000  H
  C131     1.0000 0.77160  0.56650  0.73260  Biso   1.000  C
  H79      1.0000 0.78990  0.52730  0.76500  Biso   1.000  H
  C132     1.0000 0.67950  0.58430  0.72420  Biso   1.000  C
  H80      1.0000 0.63620  0.55590  0.75150  Biso   1.000  H
  C133     1.0000 0.44080  0.81890  0.56700  Biso   1.000  C
  C134     1.0000 0.39080  0.87570  0.53240  Biso   1.000  C
  H81      1.0000 0.41870  0.90760  0.49660  Biso   1.000  H
  C135     1.0000 0.29820  0.88450  0.55180  Biso   1.000  C
  H82      1.0000 0.26360  0.92310  0.52970  Biso   1.000  H
  C136     1.0000 0.25750  0.83580  0.60380  Biso   1.000  C
  H83      1.0000 0.19580  0.84130  0.61840  Biso   1.000  H
  C137     1.0000 0.31170  0.77830  0.63360  Biso   1.000  C
  H84      1.0000 0.28420  0.74430  0.66750  Biso   1.000  H
  C138     1.0000 0.74900  0.90270  0.45810  Biso   1.000  C
  C139     1.0000 0.84400  0.90790  0.47110  Biso   1.000  C
  H85      1.0000 0.87080  0.87910  0.51020  Biso   1.000  H
  C140     1.0000 0.90000  0.95550  0.42690  Biso   1.000  C
  H86      1.0000 0.96320  0.95870  0.43710  Biso   1.000  H
  C141     1.0000 0.86100  0.99820  0.36730  Biso   1.000  C
  C142     1.0000 0.76510  0.99550  0.35590  Biso   1.000  C
  H87      1.0000 0.73800  0.02550  0.31790  Biso   1.000  H
  C143     1.0000 0.71040  0.94860  0.40030  Biso   1.000  C
  H88      1.0000 0.64670  0.94750  0.39180  Biso   1.000  H
  C144     1.0000 0.92160  0.04850  0.31880  Biso   1.000  C
  C145     1.0000 0.97220  0.27570  0.03920  Biso   1.000  C
  C146     1.0000 0.94600  0.35030  0.03090  Biso   1.000  C
  H89      1.0000 0.93100  0.38160  0.07230  Biso   1.000  H
  C147     1.0000 0.94500  0.37290  0.95250  Biso   1.000  C
  H90      1.0000 0.92770  0.42070  0.93620  Biso   1.000  H
  C148     1.0000 0.97200  0.31740  0.90280  Biso   1.000  C
  C149     1.0000 0.98050  0.23160  0.11180  Biso   1.000  C
  C150     1.0000 0.97960  0.31940  0.81600  Biso   1.000  C
  Mn7      1.0000 0.50201  0.83640  0.25170  Biso   1.000  Mn
  Mn8      1.0000 0.99224  0.32636  0.66425  Biso   1.000  Mn
  S4       1.0000 0.49740  0.76437  0.95091  Biso   1.000  S
  O25      1.0000 0.95830  0.41232  0.58160  Biso   1.000  O
  O26      1.0000 0.82900  0.39151  0.64890  Biso   1.000  O
  O27      1.0000 0.39340  0.92709  0.25370  Biso   1.000  O
  O28      1.0000 0.49880  0.93210  0.34560  Biso   1.000  O
  O29      1.0000 0.46210  0.73660  0.17600  Biso   1.000  O
  O30      1.0000 0.50620  0.83540  0.10850  Biso   1.000  O
  O31      1.0000 0.49190  0.74080  0.78030  Biso   1.000  O
  O32      1.0000 0.47250  0.61780  0.78180  Biso   1.000  O
  N19      1.0000 0.58230  0.76030  0.32830  Biso   1.000  N
  N20      1.0000 0.65510  0.85760  0.23270  Biso   1.000  N
  N21      1.0000 0.39990  0.77620  0.33170  Biso   1.000  N
  N22      1.0000 0.08240  0.24800  0.59390  Biso   1.000  N
  N23      1.0000 0.14850  0.35940  0.67860  Biso   1.000  N
  N24      1.0000 0.90050  0.23080  0.61660  Biso   1.000  N
  C151     1.0000 0.67550  0.75700  0.32420  Biso   1.000  C
  C152     1.0000 0.72540  0.70330  0.36570  Biso   1.000  C
  H91      1.0000 0.78980  0.70260  0.36270  Biso   1.000  H
  C153     1.0000 0.67980  0.65070  0.41160  Biso   1.000  C
  C154     1.0000 0.58220  0.65600  0.41520  Biso   1.000  C
  H92      1.0000 0.54880  0.62200  0.44510  Biso   1.000  H
  C155     1.0000 0.53620  0.71160  0.37430  Biso   1.000  C
  C156     1.0000 0.71660  0.81500  0.27270  Biso   1.000  C
  C157     1.0000 0.81230  0.82590  0.26510  Biso   1.000  C
  H93      1.0000 0.85340  0.79530  0.29210  Biso   1.000  H
  C158     1.0000 0.84530  0.88180  0.21770  Biso   1.000  C
  H94      1.0000 0.90870  0.88980  0.21230  Biso   1.000  H
  C159     1.0000 0.78190  0.92650  0.17780  Biso   1.000  C
  H95      1.0000 0.80210  0.96550  0.14610  Biso   1.000  H
  C160     1.0000 0.68730  0.91160  0.18630  Biso   1.000  C
  H96      1.0000 0.64510  0.94060  0.15850  Biso   1.000  H
  C161     1.0000 0.43460  0.72220  0.37800  Biso   1.000  C
  C162     1.0000 0.37760  0.68020  0.42660  Biso   1.000  C
  H97      1.0000 0.40280  0.64310  0.45830  Biso   1.000  H
  C163     1.0000 0.28440  0.69390  0.42750  Biso   1.000  C
  H98      1.0000 0.24560  0.66590  0.45950  Biso   1.000  H
  C164     1.0000 0.24790  0.75010  0.38000  Biso   1.000  C
  H99      1.0000 0.18490  0.76100  0.38040  Biso   1.000  H
  C165     1.0000 0.30770  0.78900  0.33250  Biso   1.000  C
  H100     1.0000 0.28370  0.82570  0.29960  Biso   1.000  H
  C166     1.0000 0.72930  0.58980  0.45590  Biso   1.000  C
  C167     1.0000 0.82130  0.57270  0.44150  Biso   1.000  C
  H101     1.0000 0.85290  0.59750  0.40200  Biso   1.000  H
  C168     1.0000 0.86670  0.51900  0.48540  Biso   1.000  C
  H102     1.0000 0.92870  0.50880  0.47500  Biso   1.000  H
  C169     1.0000 0.82200  0.47980  0.54490  Biso   1.000  C
  C170     1.0000 0.72880  0.49520  0.55740  Biso   1.000  C
  H103     1.0000 0.69650  0.46880  0.59530  Biso   1.000  H
  C171     1.0000 0.68320  0.54930  0.51390  Biso   1.000  C
  H104     1.0000 0.62090  0.55900  0.52350  Biso   1.000  H
  C172     1.0000 0.87150  0.42480  0.59560  Biso   1.000  C
  C173     1.0000 0.17390  0.25770  0.58920  Biso   1.000  C
  C174     1.0000 0.23070  0.21120  0.54440  Biso   1.000  C
  H105     1.0000 0.29410  0.22030  0.54130  Biso   1.000  H
  C175     1.0000 0.19070  0.15010  0.50370  Biso   1.000  C
  C176     1.0000 0.09450  0.14120  0.50980  Biso   1.000  C
  H106     1.0000 0.06510  0.10230  0.48330  Biso   1.000  H
  C177     1.0000 0.04280  0.19060  0.55560  Biso   1.000  C
  C178     1.0000 0.21270  0.31960  0.63820  Biso   1.000  C
  C179     1.0000 0.30690  0.33490  0.64330  Biso   1.000  C
  H107     1.0000 0.34950  0.30720  0.61460  Biso   1.000  H
  C180     1.0000 0.33640  0.39210  0.69220  Biso   1.000  C
  H108     1.0000 0.39930  0.40250  0.69750  Biso   1.000  H
  C181     1.0000 0.27160  0.43350  0.73260  Biso   1.000  C
  H109     1.0000 0.28990  0.47270  0.76500  Biso   1.000  H
  C182     1.0000 0.17950  0.41570  0.72420  Biso   1.000  C
  H110     1.0000 0.13620  0.44410  0.75150  Biso   1.000  H
  C183     1.0000 0.94080  0.18110  0.56700  Biso   1.000  C
  C184     1.0000 0.89080  0.12430  0.53240  Biso   1.000  C
  H111     1.0000 0.91870  0.09240  0.49660  Biso   1.000  H
  C185     1.0000 0.79820  0.11550  0.55180  Biso   1.000  C
  H112     1.0000 0.76360  0.07690  0.52970  Biso   1.000  H
  C186     1.0000 0.75750  0.16420  0.60380  Biso   1.000  C
  H113     1.0000 0.69580  0.15870  0.61840  Biso   1.000  H
  C187     1.0000 0.81170  0.22170  0.63360  Biso   1.000  C
  H114     1.0000 0.78420  0.25570  0.66750  Biso   1.000  H
  C188     1.0000 0.24900  0.09730  0.45810  Biso   1.000  C
  C189     1.0000 0.34400  0.09210  0.47110  Biso   1.000  C
  H115     1.0000 0.37080  0.12090  0.51020  Biso   1.000  H
  C190     1.0000 0.40000  0.04450  0.42690  Biso   1.000  C
  H116     1.0000 0.46320  0.04130  0.43710  Biso   1.000  H
  C191     1.0000 0.36100  0.00180  0.36730  Biso   1.000  C
  C192     1.0000 0.26510  0.00450  0.35590  Biso   1.000  C
  H117     1.0000 0.23800  0.97450  0.31790  Biso   1.000  H
  C193     1.0000 0.21040  0.05140  0.40030  Biso   1.000  C
  H118     1.0000 0.14670  0.05250  0.39180  Biso   1.000  H
  C194     1.0000 0.42160  0.95150  0.31880  Biso   1.000  C
  C195     1.0000 0.47220  0.72430  0.03920  Biso   1.000  C
  C196     1.0000 0.44600  0.64970  0.03090  Biso   1.000  C
  H119     1.0000 0.43100  0.61840  0.07230  Biso   1.000  H
  C197     1.0000 0.44500  0.62710  0.95250  Biso   1.000  C
  H120     1.0000 0.42770  0.57930  0.93620  Biso   1.000  H
  C198     1.0000 0.47200  0.68260  0.90280  Biso   1.000  C
  C199     1.0000 0.48050  0.76840  0.11180  Biso   1.000  C
  C200     1.0000 0.47960  0.68060  0.81600  Biso   1.000  C
