data_image0
_cell_length_a       16.0445
_cell_length_b       11.8985
_cell_length_c       18.3896
_cell_angle_alpha    90
_cell_angle_beta     104.452
_cell_angle_gamma    90

_symmetry_space_group_name_H-M    "P 1"
_symmetry_int_tables_number       1

loop_
  _symmetry_equiv_pos_as_xyz
  'x, y, z'

loop_
  _atom_site_label
  _atom_site_occupancy
  _atom_site_fract_x
  _atom_site_fract_y
  _atom_site_fract_z
  _atom_site_thermal_displace_type
  _atom_site_B_iso_or_equiv
  _atom_site_type_symbol
  Mn1      1.0000 0.14315  0.70904  0.43777  Biso   1.000  Mn
  O1       1.0000 0.98450  0.70620  0.15080  Biso   1.000  O
  O2       1.0000 0.32840  0.33250  0.14120  Biso   1.000  O
  O3       1.0000 0.21310  0.58930  0.39000  Biso   1.000  O
  C1       1.0000 0.21290  0.44980  0.15140  Biso   1.000  C
  O4       1.0000 0.34010  0.59070  0.36210  Biso   1.000  O
  C2       1.0000 0.09490  0.57030  0.15720  Biso   1.000  C
  O5       1.0000 0.21640  0.33820  0.04580  Biso   1.000  O
  O6       1.0000 0.96220  0.57710  0.06340  Biso   1.000  O
  C3       1.0000 0.21610  0.55390  0.26460  Biso   1.000  C
  C4       1.0000 0.13270  0.49420  0.11850  Biso   1.000  C
  H1       1.0000 0.10410  0.47280  0.07010  Biso   1.000  H
  C5       1.0000 0.25930  0.58120  0.34530  Biso   1.000  C
  O7       1.0000 0.08640  0.83300  0.49700  Biso   1.000  O
  H2       1.0000 0.11870  0.84420  0.53860  Biso   1.000  H
  C6       1.0000 0.25510  0.36840  0.10960  Biso   1.000  C
  C7       1.0000 0.25490  0.48200  0.22390  Biso   1.000  C
  H3       1.0000 0.30990  0.45480  0.24540  Biso   1.000  H
  C8       1.0000 0.00870  0.62060  0.12110  Biso   1.000  C
  C9       1.0000 0.13570  0.59830  0.23100  Biso   1.000  C
  H4       1.0000 0.10910  0.64690  0.25780  Biso   1.000  H
  Mn2      1.0000 0.64315  0.20904  0.43777  Biso   1.000  Mn
  O8       1.0000 0.48450  0.20620  0.15080  Biso   1.000  O
  O9       1.0000 0.82840  0.83250  0.14120  Biso   1.000  O
  O10      1.0000 0.71310  0.08930  0.39000  Biso   1.000  O
  C10      1.0000 0.71290  0.94980  0.15140  Biso   1.000  C
  O11      1.0000 0.84010  0.09070  0.36210  Biso   1.000  O
  C11      1.0000 0.59490  0.07030  0.15720  Biso   1.000  C
  O12      1.0000 0.71640  0.83820  0.04580  Biso   1.000  O
  O13      1.0000 0.46220  0.07710  0.06340  Biso   1.000  O
  C12      1.0000 0.71610  0.05390  0.26460  Biso   1.000  C
  C13      1.0000 0.63270  0.99420  0.11850  Biso   1.000  C
  H5       1.0000 0.60410  0.97280  0.07010  Biso   1.000  H
  C14      1.0000 0.75930  0.08120  0.34530  Biso   1.000  C
  O14      1.0000 0.58640  0.33300  0.49700  Biso   1.000  O
  H6       1.0000 0.61870  0.34420  0.53860  Biso   1.000  H
  C15      1.0000 0.75510  0.86840  0.10960  Biso   1.000  C
  C16      1.0000 0.75490  0.98200  0.22390  Biso   1.000  C
  H7       1.0000 0.80990  0.95480  0.24540  Biso   1.000  H
  C17      1.0000 0.50870  0.12060  0.12110  Biso   1.000  C
  C18      1.0000 0.63570  0.09830  0.23100  Biso   1.000  C
  H8       1.0000 0.60910  0.14690  0.25780  Biso   1.000  H
  Mn3      1.0000 0.85685  0.70904  0.06223  Biso   1.000  Mn
  O15      1.0000 0.01550  0.70620  0.34920  Biso   1.000  O
  O16      1.0000 0.67160  0.33250  0.35880  Biso   1.000  O
  O17      1.0000 0.78690  0.58930  0.11000  Biso   1.000  O
  C19      1.0000 0.78710  0.44980  0.34860  Biso   1.000  C
  O18      1.0000 0.65990  0.59070  0.13790  Biso   1.000  O
  C20      1.0000 0.90510  0.57030  0.34280  Biso   1.000  C
  O19      1.0000 0.78360  0.33820  0.45420  Biso   1.000  O
  O20      1.0000 0.03780  0.57710  0.43660  Biso   1.000  O
  C21      1.0000 0.78390  0.55390  0.23540  Biso   1.000  C
  C22      1.0000 0.86730  0.49420  0.38150  Biso   1.000  C
  H9       1.0000 0.89590  0.47280  0.42990  Biso   1.000  H
  C23      1.0000 0.74070  0.58120  0.15470  Biso   1.000  C
  O21      1.0000 0.91360  0.83300  0.00300  Biso   1.000  O
  H10      1.0000 0.88130  0.84420  0.96140  Biso   1.000  H
  C24      1.0000 0.74490  0.36840  0.39040  Biso   1.000  C
  C25      1.0000 0.74510  0.48200  0.27610  Biso   1.000  C
  H11      1.0000 0.69010  0.45480  0.25460  Biso   1.000  H
  C26      1.0000 0.99130  0.62060  0.37890  Biso   1.000  C
  C27      1.0000 0.86430  0.59830  0.26900  Biso   1.000  C
  H12      1.0000 0.89090  0.64690  0.24220  Biso   1.000  H
  Mn4      1.0000 0.35685  0.20904  0.06223  Biso   1.000  Mn
  O22      1.0000 0.51550  0.20620  0.34920  Biso   1.000  O
  O23      1.0000 0.17160  0.83250  0.35880  Biso   1.000  O
  O24      1.0000 0.28690  0.08930  0.11000  Biso   1.000  O
  C28      1.0000 0.28710  0.94980  0.34860  Biso   1.000  C
  O25      1.0000 0.15990  0.09070  0.13790  Biso   1.000  O
  C29      1.0000 0.40510  0.07030  0.34280  Biso   1.000  C
  O26      1.0000 0.28360  0.83820  0.45420  Biso   1.000  O
  O27      1.0000 0.53780  0.07710  0.43660  Biso   1.000  O
  C30      1.0000 0.28390  0.05390  0.23540  Biso   1.000  C
  C31      1.0000 0.36730  0.99420  0.38150  Biso   1.000  C
  H13      1.0000 0.39590  0.97280  0.42990  Biso   1.000  H
  C32      1.0000 0.24070  0.08120  0.15470  Biso   1.000  C
  O28      1.0000 0.41360  0.33300  0.00300  Biso   1.000  O
  H14      1.0000 0.38130  0.34420  0.96140  Biso   1.000  H
  C33      1.0000 0.24490  0.86840  0.39040  Biso   1.000  C
  C34      1.0000 0.24510  0.98200  0.27610  Biso   1.000  C
  H15      1.0000 0.19010  0.95480  0.25460  Biso   1.000  H
  C35      1.0000 0.49130  0.12060  0.37890  Biso   1.000  C
  C36      1.0000 0.36430  0.09830  0.26900  Biso   1.000  C
  H16      1.0000 0.39090  0.14690  0.24220  Biso   1.000  H
  Mn5      1.0000 0.85685  0.29096  0.56223  Biso   1.000  Mn
  O29      1.0000 0.01550  0.29380  0.84920  Biso   1.000  O
  O30      1.0000 0.67160  0.66750  0.85880  Biso   1.000  O
  O31      1.0000 0.78690  0.41070  0.61000  Biso   1.000  O
  C37      1.0000 0.78710  0.55020  0.84860  Biso   1.000  C
  O32      1.0000 0.65990  0.40930  0.63790  Biso   1.000  O
  C38      1.0000 0.90510  0.42970  0.84280  Biso   1.000  C
  O33      1.0000 0.78360  0.66180  0.95420  Biso   1.000  O
  O34      1.0000 0.03780  0.42290  0.93660  Biso   1.000  O
  C39      1.0000 0.78390  0.44610  0.73540  Biso   1.000  C
  C40      1.0000 0.86730  0.50580  0.88150  Biso   1.000  C
  H17      1.0000 0.89590  0.52720  0.92990  Biso   1.000  H
  C41      1.0000 0.74070  0.41880  0.65470  Biso   1.000  C
  O35      1.0000 0.91360  0.16700  0.50300  Biso   1.000  O
  H18      1.0000 0.88130  0.15580  0.46140  Biso   1.000  H
  C42      1.0000 0.74490  0.63160  0.89040  Biso   1.000  C
  C43      1.0000 0.74510  0.51800  0.77610  Biso   1.000  C
  H19      1.0000 0.69010  0.54520  0.75460  Biso   1.000  H
  C44      1.0000 0.99130  0.37940  0.87890  Biso   1.000  C
  C45      1.0000 0.86430  0.40170  0.76900  Biso   1.000  C
  H20      1.0000 0.89090  0.35310  0.74220  Biso   1.000  H
  Mn6      1.0000 0.35685  0.79096  0.56223  Biso   1.000  Mn
  O36      1.0000 0.51550  0.79380  0.84920  Biso   1.000  O
  O37      1.0000 0.17160  0.16750  0.85880  Biso   1.000  O
  O38      1.0000 0.28690  0.91070  0.61000  Biso   1.000  O
  C46      1.0000 0.28710  0.05020  0.84860  Biso   1.000  C
  O39      1.0000 0.15990  0.90930  0.63790  Biso   1.000  O
  C47      1.0000 0.40510  0.92970  0.84280  Biso   1.000  C
  O40      1.0000 0.28360  0.16180  0.95420  Biso   1.000  O
  O41      1.0000 0.53780  0.92290  0.93660  Biso   1.000  O
  C48      1.0000 0.28390  0.94610  0.73540  Biso   1.000  C
  C49      1.0000 0.36730  0.00580  0.88150  Biso   1.000  C
  H21      1.0000 0.39590  0.02720  0.92990  Biso   1.000  H
  C50      1.0000 0.24070  0.91880  0.65470  Biso   1.000  C
  O42      1.0000 0.41360  0.66700  0.50300  Biso   1.000  O
  H22      1.0000 0.38130  0.65580  0.46140  Biso   1.000  H
  C51      1.0000 0.24490  0.13160  0.89040  Biso   1.000  C
  C52      1.0000 0.24510  0.01800  0.77610  Biso   1.000  C
  H23      1.0000 0.19010  0.04520  0.75460  Biso   1.000  H
  C53      1.0000 0.49130  0.87940  0.87890  Biso   1.000  C
  C54      1.0000 0.36430  0.90170  0.76900  Biso   1.000  C
  H24      1.0000 0.39090  0.85310  0.74220  Biso   1.000  H
  Mn7      1.0000 0.14315  0.29096  0.93777  Biso   1.000  Mn
  O43      1.0000 0.98450  0.29380  0.65080  Biso   1.000  O
  O44      1.0000 0.32840  0.66750  0.64120  Biso   1.000  O
  O45      1.0000 0.21310  0.41070  0.89000  Biso   1.000  O
  C55      1.0000 0.21290  0.55020  0.65140  Biso   1.000  C
  O46      1.0000 0.34010  0.40930  0.86210  Biso   1.000  O
  C56      1.0000 0.09490  0.42970  0.65720  Biso   1.000  C
  O47      1.0000 0.21640  0.66180  0.54580  Biso   1.000  O
  O48      1.0000 0.96220  0.42290  0.56340  Biso   1.000  O
  C57      1.0000 0.21610  0.44610  0.76460  Biso   1.000  C
  C58      1.0000 0.13270  0.50580  0.61850  Biso   1.000  C
  H25      1.0000 0.10410  0.52720  0.57010  Biso   1.000  H
  C59      1.0000 0.25930  0.41880  0.84530  Biso   1.000  C
  O49      1.0000 0.08640  0.16700  0.99700  Biso   1.000  O
  H26      1.0000 0.11870  0.15580  0.03860  Biso   1.000  H
  C60      1.0000 0.25510  0.63160  0.60960  Biso   1.000  C
  C61      1.0000 0.25490  0.51800  0.72390  Biso   1.000  C
  H27      1.0000 0.30990  0.54520  0.74540  Biso   1.000  H
  C62      1.0000 0.00870  0.37940  0.62110  Biso   1.000  C
  C63      1.0000 0.13570  0.40170  0.73100  Biso   1.000  C
  H28      1.0000 0.10910  0.35310  0.75780  Biso   1.000  H
  Mn8      1.0000 0.64315  0.79096  0.93777  Biso   1.000  Mn
  O50      1.0000 0.48450  0.79380  0.65080  Biso   1.000  O
  O51      1.0000 0.82840  0.16750  0.64120  Biso   1.000  O
  O52      1.0000 0.71310  0.91070  0.89000  Biso   1.000  O
  C64      1.0000 0.71290  0.05020  0.65140  Biso   1.000  C
  O53      1.0000 0.84010  0.90930  0.86210  Biso   1.000  O
  C65      1.0000 0.59490  0.92970  0.65720  Biso   1.000  C
  O54      1.0000 0.71640  0.16180  0.54580  Biso   1.000  O
  O55      1.0000 0.46220  0.92290  0.56340  Biso   1.000  O
  C66      1.0000 0.71610  0.94610  0.76460  Biso   1.000  C
  C67      1.0000 0.63270  0.00580  0.61850  Biso   1.000  C
  H29      1.0000 0.60410  0.02720  0.57010  Biso   1.000  H
  C68      1.0000 0.75930  0.91880  0.84530  Biso   1.000  C
  O56      1.0000 0.58640  0.66700  0.99700  Biso   1.000  O
  H30      1.0000 0.61870  0.65580  0.03860  Biso   1.000  H
  C69      1.0000 0.75510  0.13160  0.60960  Biso   1.000  C
  C70      1.0000 0.75490  0.01800  0.72390  Biso   1.000  C
  H31      1.0000 0.80990  0.04520  0.74540  Biso   1.000  H
  C71      1.0000 0.50870  0.87940  0.62110  Biso   1.000  C
  C72      1.0000 0.63570  0.90170  0.73100  Biso   1.000  C
  H32      1.0000 0.60910  0.85310  0.75780  Biso   1.000  H
