data_image0
_cell_length_a       11.5178
_cell_length_b       12.4126
_cell_length_c       13.1708
_cell_angle_alpha    94.261
_cell_angle_beta     92.978
_cell_angle_gamma    93.134

_symmetry_space_group_name_H-M    "P 1"
_symmetry_int_tables_number       1

loop_
  _symmetry_equiv_pos_as_xyz
  'x, y, z'

loop_
  _atom_site_label
  _atom_site_occupancy
  _atom_site_fract_x
  _atom_site_fract_y
  _atom_site_fract_z
  _atom_site_thermal_displace_type
  _atom_site_B_iso_or_equiv
  _atom_site_type_symbol
  Cd1      1.0000 0.72349  0.04160  0.47506  Biso   1.000  Cd
  Cd2      1.0000 0.12088  0.46578  0.72660  Biso   1.000  Cd
  Cd3      1.0000 0.47107  0.68328  0.12148  Biso   1.000  Cd
  C1       1.0000 0.43690  0.45280  0.34000  Biso   1.000  C
  N1       1.0000 0.85210  0.17770  0.55360  Biso   1.000  N
  O1       1.0000 0.21280  0.50710  0.57790  Biso   1.000  O
  N2       1.0000 0.99320  0.32550  0.64710  Biso   1.000  N
  O2       1.0000 0.28170  0.37500  0.65900  Biso   1.000  O
  O3       1.0000 0.63160  0.17340  0.35150  Biso   1.000  O
  C2       1.0000 0.27930  0.43140  0.58360  Biso   1.000  C
  O4       1.0000 0.52170  0.77580  0.96760  Biso   1.000  O
  O5       1.0000 0.57730  0.15350  0.50580  Biso   1.000  O
  O6       1.0000 0.77510  0.90910  0.56990  Biso   1.000  O
  C3       1.0000 0.49890  0.29740  0.42160  Biso   1.000  C
  O7       1.0000 0.51460  0.50930  0.18640  Biso   1.000  O
  C4       1.0000 0.50270  0.36350  0.34190  Biso   1.000  C
  H1       1.0000 0.55050  0.34760  0.28870  Biso   1.000  H
  C5       1.0000 0.57290  0.20200  0.42500  Biso   1.000  C
  C6       1.0000 0.42700  0.32170  0.50040  Biso   1.000  C
  H2       1.0000 0.42500  0.27830  0.55490  Biso   1.000  H
  O8       1.0000 0.38930  0.61150  0.26160  Biso   1.000  O
  C7       1.0000 0.35860  0.40880  0.49910  Biso   1.000  C
  C8       1.0000 0.94760  0.60570  0.76300  Biso   1.000  C
  C9       1.0000 0.60800  0.71970  0.95720  Biso   1.000  C
  O9       1.0000 0.63030  0.64820  0.01800  Biso   1.000  O
  O10      1.0000 0.97360  0.54370  0.83170  Biso   1.000  O
  C10      1.0000 0.44690  0.52910  0.25750  Biso   1.000  C
  C11      1.0000 0.68620  0.73610  0.87240  Biso   1.000  C
  C12      1.0000 0.82750  0.75630  0.70790  Biso   1.000  C
  H3       1.0000 0.87290  0.76150  0.65190  Biso   1.000  H
  C13      1.0000 0.36370  0.47490  0.41890  Biso   1.000  C
  H4       1.0000 0.31800  0.53430  0.41780  Biso   1.000  H
  C14      1.0000 0.66750  0.81460  0.80410  Biso   1.000  C
  H5       1.0000 0.60720  0.86070  0.81330  Biso   1.000  H
  C15      1.0000 0.77860  0.66930  0.85740  Biso   1.000  C
  H6       1.0000 0.79250  0.61670  0.90260  Biso   1.000  H
  O11      1.0000 0.00230  0.60720  0.68490  Biso   1.000  O
  O12      1.0000 0.64110  0.97660  0.66650  Biso   1.000  O
  C16      1.0000 0.84950  0.67970  0.77720  Biso   1.000  C
  C17      1.0000 0.71570  0.90990  0.64680  Biso   1.000  C
  C18      1.0000 0.73790  0.82490  0.72230  Biso   1.000  C
  C19      1.0000 0.96880  0.13660  0.57000  Biso   1.000  C
  H7       1.0000 0.00020  0.11700  0.50470  Biso   1.000  H
  H8       1.0000 0.96300  0.07220  0.60730  Biso   1.000  H
  C20      1.0000 0.81070  0.21190  0.65490  Biso   1.000  C
  H9       1.0000 0.80840  0.15090  0.69690  Biso   1.000  H
  H10      1.0000 0.73240  0.23640  0.64710  Biso   1.000  H
  C21      1.0000 0.89140  0.30270  0.70670  Biso   1.000  C
  H11      1.0000 0.84870  0.36770  0.71590  Biso   1.000  H
  H12      1.0000 0.91760  0.28300  0.77360  Biso   1.000  H
  C22      1.0000 0.95100  0.35820  0.54830  Biso   1.000  C
  H13      1.0000 0.01630  0.36850  0.50570  Biso   1.000  H
  H14      1.0000 0.91470  0.42660  0.55790  Biso   1.000  H
  C23      1.0000 0.86260  0.27300  0.49450  Biso   1.000  C
  H15      1.0000 0.78730  0.30370  0.48680  Biso   1.000  H
  H16      1.0000 0.88750  0.25170  0.42710  Biso   1.000  H
  C24      1.0000 0.05120  0.22310  0.63030  Biso   1.000  C
  H17      1.0000 0.07500  0.19740  0.69560  Biso   1.000  H
  H18      1.0000 0.12040  0.23550  0.59290  Biso   1.000  H
  Cd4      1.0000 0.27651  0.95840  0.52494  Biso   1.000  Cd
  Cd5      1.0000 0.87912  0.53422  0.27340  Biso   1.000  Cd
  Cd6      1.0000 0.52893  0.31672  0.87852  Biso   1.000  Cd
  C25      1.0000 0.56310  0.54720  0.66000  Biso   1.000  C
  N3       1.0000 0.14790  0.82230  0.44640  Biso   1.000  N
  O13      1.0000 0.78720  0.49290  0.42210  Biso   1.000  O
  N4       1.0000 0.00680  0.67450  0.35290  Biso   1.000  N
  O14      1.0000 0.71830  0.62500  0.34100  Biso   1.000  O
  O15      1.0000 0.36840  0.82660  0.64850  Biso   1.000  O
  C26      1.0000 0.72070  0.56860  0.41640  Biso   1.000  C
  O16      1.0000 0.47830  0.22420  0.03240  Biso   1.000  O
  O17      1.0000 0.42270  0.84650  0.49420  Biso   1.000  O
  O18      1.0000 0.22490  0.09090  0.43010  Biso   1.000  O
  C27      1.0000 0.50110  0.70260  0.57840  Biso   1.000  C
  O19      1.0000 0.48540  0.49070  0.81360  Biso   1.000  O
  C28      1.0000 0.49730  0.63650  0.65810  Biso   1.000  C
  H19      1.0000 0.44950  0.65240  0.71130  Biso   1.000  H
  C29      1.0000 0.42710  0.79800  0.57500  Biso   1.000  C
  C30      1.0000 0.57300  0.67830  0.49960  Biso   1.000  C
  H20      1.0000 0.57500  0.72170  0.44510  Biso   1.000  H
  O20      1.0000 0.61070  0.38850  0.73840  Biso   1.000  O
  C31      1.0000 0.64140  0.59120  0.50090  Biso   1.000  C
  C32      1.0000 0.05240  0.39430  0.23700  Biso   1.000  C
  C33      1.0000 0.39200  0.28030  0.04280  Biso   1.000  C
  O21      1.0000 0.36970  0.35180  0.98200  Biso   1.000  O
  O22      1.0000 0.02640  0.45630  0.16830  Biso   1.000  O
  C34      1.0000 0.55310  0.47090  0.74250  Biso   1.000  C
  C35      1.0000 0.31380  0.26390  0.12760  Biso   1.000  C
  C36      1.0000 0.17250  0.24370  0.29210  Biso   1.000  C
  H21      1.0000 0.12710  0.23850  0.34810  Biso   1.000  H
  C37      1.0000 0.63630  0.52510  0.58110  Biso   1.000  C
  H22      1.0000 0.68200  0.46570  0.58220  Biso   1.000  H
  C38      1.0000 0.33250  0.18540  0.19590  Biso   1.000  C
  H23      1.0000 0.39280  0.13930  0.18670  Biso   1.000  H
  C39      1.0000 0.22140  0.33070  0.14260  Biso   1.000  C
  H24      1.0000 0.20750  0.38330  0.09740  Biso   1.000  H
  O23      1.0000 0.99770  0.39280  0.31510  Biso   1.000  O
  O24      1.0000 0.35890  0.02340  0.33350  Biso   1.000  O
  C40      1.0000 0.15050  0.32030  0.22280  Biso   1.000  C
  C41      1.0000 0.28430  0.09010  0.35320  Biso   1.000  C
  C42      1.0000 0.26210  0.17510  0.27770  Biso   1.000  C
  C43      1.0000 0.03120  0.86340  0.43000  Biso   1.000  C
  H25      1.0000 0.99980  0.88300  0.49530  Biso   1.000  H
  H26      1.0000 0.03700  0.92780  0.39270  Biso   1.000  H
  C44      1.0000 0.18930  0.78810  0.34510  Biso   1.000  C
  H27      1.0000 0.19160  0.84910  0.30310  Biso   1.000  H
  H28      1.0000 0.26760  0.76360  0.35290  Biso   1.000  H
  C45      1.0000 0.10860  0.69730  0.29330  Biso   1.000  C
  H29      1.0000 0.15130  0.63230  0.28410  Biso   1.000  H
  H30      1.0000 0.08240  0.71700  0.22640  Biso   1.000  H
  C46      1.0000 0.04900  0.64180  0.45170  Biso   1.000  C
  H31      1.0000 0.98370  0.63150  0.49430  Biso   1.000  H
  H32      1.0000 0.08530  0.57340  0.44210  Biso   1.000  H
  C47      1.0000 0.13740  0.72700  0.50550  Biso   1.000  C
  H33      1.0000 0.21270  0.69630  0.51320  Biso   1.000  H
  H34      1.0000 0.11250  0.74830  0.57290  Biso   1.000  H
  C48      1.0000 0.94880  0.77690  0.36970  Biso   1.000  C
  H35      1.0000 0.92500  0.80260  0.30440  Biso   1.000  H
  H36      1.0000 0.87960  0.76450  0.40710  Biso   1.000  H
