data_image0
_cell_length_a       15.4035
_cell_length_b       16.2311
_cell_length_c       26.268
_cell_angle_alpha    90
_cell_angle_beta     95.187
_cell_angle_gamma    90

_symmetry_space_group_name_H-M    "P 1"
_symmetry_int_tables_number       1

loop_
  _symmetry_equiv_pos_as_xyz
  'x, y, z'

loop_
  _atom_site_label
  _atom_site_occupancy
  _atom_site_fract_x
  _atom_site_fract_y
  _atom_site_fract_z
  _atom_site_thermal_displace_type
  _atom_site_B_iso_or_equiv
  _atom_site_type_symbol
  Mn1      1.0000 0.83428  0.23169  0.65592  Biso   1.000  Mn
  O1       1.0000 0.64050  0.33170  0.59980  Biso   1.000  O
  Mn2      1.0000 0.67876  0.24091  0.54724  Biso   1.000  Mn
  O2       1.0000 0.79050  0.31910  0.52949  Biso   1.000  O
  Mn3      1.0000 0.75278  0.04704  0.61445  Biso   1.000  Mn
  O3       1.0000 0.07450  0.66290  0.55790  Biso   1.000  O
  O4       1.0000 0.11240  0.54760  0.60090  Biso   1.000  O
  O5       1.0000 0.77440  0.16580  0.58846  Biso   1.000  O
  O6       1.0000 0.72700  0.30910  0.67010  Biso   1.000  O
  O7       1.0000 0.87540  0.32800  0.60320  Biso   1.000  O
  O8       1.0000 0.73930  0.56510  0.42300  Biso   1.000  O
  C1       1.0000 0.84450  0.35580  0.56120  Biso   1.000  C
  C2       1.0000 0.68730  0.46000  0.71010  Biso   1.000  C
  C3       1.0000 0.64130  0.42860  0.66670  Biso   1.000  C
  C4       1.0000 0.66270  0.53550  0.73030  Biso   1.000  C
  C5       1.0000 0.94880  0.47560  0.56890  Biso   1.000  C
  C6       1.0000 0.97400  0.55250  0.55430  Biso   1.000  C
  O9       1.0000 0.39890  0.53650  0.62540  Biso   1.000  O
  C7       1.0000 0.87220  0.44060  0.54700  Biso   1.000  C
  C8       1.0000 0.56790  0.46840  0.64720  Biso   1.000  C
  O10      1.0000 0.45000  0.65800  0.65300  Biso   1.000  O
  C9       1.0000 0.84490  0.56190  0.49520  Biso   1.000  C
  C10      1.0000 0.67320  0.35020  0.64330  Biso   1.000  C
  C11      1.0000 0.82140  0.48580  0.51040  Biso   1.000  C
  C12      1.0000 0.92080  0.59540  0.51750  Biso   1.000  C
  C13      1.0000 0.06120  0.59010  0.57260  Biso   1.000  C
  C14      1.0000 0.54080  0.54140  0.66650  Biso   1.000  C
  C15      1.0000 0.45780  0.58160  0.64660  Biso   1.000  C
  C16      1.0000 0.70870  0.56820  0.77840  Biso   1.000  C
  C17      1.0000 0.59080  0.57650  0.70800  Biso   1.000  C
  C18      1.0000 0.79310  0.60530  0.45220  Biso   1.000  C
  O11      1.0000 0.74860  0.51560  0.80830  Biso   1.000  O
  O12      1.0000 0.70320  0.64240  0.78920  Biso   1.000  O
  O13      1.0000 0.80260  0.68030  0.44810  Biso   1.000  O
  H1       1.0000 0.55200  0.44900  0.62100  Biso   1.000  H
  H2       1.0000 0.98200  0.44500  0.59200  Biso   1.000  H
  H3       1.0000 0.56900  0.62300  0.71900  Biso   1.000  H
  H4       1.0000 0.94000  0.64100  0.51300  Biso   1.000  H
  H5       1.0000 0.77800  0.47000  0.50000  Biso   1.000  H
  H6       1.0000 0.74000  0.43000  0.70900  Biso   1.000  H
  Mn4      1.0000 0.33428  0.73169  0.65592  Biso   1.000  Mn
  O14      1.0000 0.14050  0.83170  0.59980  Biso   1.000  O
  Mn5      1.0000 0.17876  0.74091  0.54724  Biso   1.000  Mn
  O15      1.0000 0.29050  0.81910  0.52949  Biso   1.000  O
  Mn6      1.0000 0.25278  0.54704  0.61445  Biso   1.000  Mn
  O16      1.0000 0.57450  0.16290  0.55790  Biso   1.000  O
  O17      1.0000 0.61240  0.04760  0.60090  Biso   1.000  O
  O18      1.0000 0.27440  0.66580  0.58846  Biso   1.000  O
  O19      1.0000 0.22700  0.80910  0.67010  Biso   1.000  O
  O20      1.0000 0.37540  0.82800  0.60320  Biso   1.000  O
  O21      1.0000 0.23930  0.06510  0.42300  Biso   1.000  O
  C19      1.0000 0.34450  0.85580  0.56120  Biso   1.000  C
  C20      1.0000 0.18730  0.96000  0.71010  Biso   1.000  C
  C21      1.0000 0.14130  0.92860  0.66670  Biso   1.000  C
  C22      1.0000 0.16270  0.03550  0.73030  Biso   1.000  C
  C23      1.0000 0.44880  0.97560  0.56890  Biso   1.000  C
  C24      1.0000 0.47400  0.05250  0.55430  Biso   1.000  C
  O22      1.0000 0.89890  0.03650  0.62540  Biso   1.000  O
  C25      1.0000 0.37220  0.94060  0.54700  Biso   1.000  C
  C26      1.0000 0.06790  0.96840  0.64720  Biso   1.000  C
  O23      1.0000 0.95000  0.15800  0.65300  Biso   1.000  O
  C27      1.0000 0.34490  0.06190  0.49520  Biso   1.000  C
  C28      1.0000 0.17320  0.85020  0.64330  Biso   1.000  C
  C29      1.0000 0.32140  0.98580  0.51040  Biso   1.000  C
  C30      1.0000 0.42080  0.09540  0.51750  Biso   1.000  C
  C31      1.0000 0.56120  0.09010  0.57260  Biso   1.000  C
  C32      1.0000 0.04080  0.04140  0.66650  Biso   1.000  C
  C33      1.0000 0.95780  0.08160  0.64660  Biso   1.000  C
  C34      1.0000 0.20870  0.06820  0.77840  Biso   1.000  C
  C35      1.0000 0.09080  0.07650  0.70800  Biso   1.000  C
  C36      1.0000 0.29310  0.10530  0.45220  Biso   1.000  C
  O24      1.0000 0.24860  0.01560  0.80830  Biso   1.000  O
  O25      1.0000 0.20320  0.14240  0.78920  Biso   1.000  O
  O26      1.0000 0.30260  0.18030  0.44810  Biso   1.000  O
  H7       1.0000 0.05200  0.94900  0.62100  Biso   1.000  H
  H8       1.0000 0.48200  0.94500  0.59200  Biso   1.000  H
  H9       1.0000 0.06900  0.12300  0.71900  Biso   1.000  H
  H10      1.0000 0.44000  0.14100  0.51300  Biso   1.000  H
  H11      1.0000 0.27800  0.97000  0.50000  Biso   1.000  H
  H12      1.0000 0.24000  0.93000  0.70900  Biso   1.000  H
  Mn7      1.0000 0.16572  0.23169  0.84408  Biso   1.000  Mn
  O27      1.0000 0.35950  0.33170  0.90020  Biso   1.000  O
  Mn8      1.0000 0.32124  0.24091  0.95276  Biso   1.000  Mn
  O28      1.0000 0.20950  0.31910  0.97051  Biso   1.000  O
  Mn9      1.0000 0.24722  0.04704  0.88555  Biso   1.000  Mn
  O29      1.0000 0.92550  0.66290  0.94210  Biso   1.000  O
  O30      1.0000 0.88760  0.54760  0.89910  Biso   1.000  O
  O31      1.0000 0.22560  0.16580  0.91154  Biso   1.000  O
  O32      1.0000 0.27300  0.30910  0.82990  Biso   1.000  O
  O33      1.0000 0.12460  0.32800  0.89680  Biso   1.000  O
  O34      1.0000 0.26070  0.56510  0.07700  Biso   1.000  O
  C37      1.0000 0.15550  0.35580  0.93880  Biso   1.000  C
  C38      1.0000 0.31270  0.46000  0.78990  Biso   1.000  C
  C39      1.0000 0.35870  0.42860  0.83330  Biso   1.000  C
  C40      1.0000 0.33730  0.53550  0.76970  Biso   1.000  C
  C41      1.0000 0.05120  0.47560  0.93110  Biso   1.000  C
  C42      1.0000 0.02600  0.55250  0.94570  Biso   1.000  C
  O35      1.0000 0.60110  0.53650  0.87460  Biso   1.000  O
  C43      1.0000 0.12780  0.44060  0.95300  Biso   1.000  C
  C44      1.0000 0.43210  0.46840  0.85280  Biso   1.000  C
  O36      1.0000 0.55000  0.65800  0.84700  Biso   1.000  O
  C45      1.0000 0.15510  0.56190  0.00480  Biso   1.000  C
  C46      1.0000 0.32680  0.35020  0.85670  Biso   1.000  C
  C47      1.0000 0.17860  0.48580  0.98960  Biso   1.000  C
  C48      1.0000 0.07920  0.59540  0.98250  Biso   1.000  C
  C49      1.0000 0.93880  0.59010  0.92740  Biso   1.000  C
  C50      1.0000 0.45920  0.54140  0.83350  Biso   1.000  C
  C51      1.0000 0.54220  0.58160  0.85340  Biso   1.000  C
  C52      1.0000 0.29130  0.56820  0.72160  Biso   1.000  C
  C53      1.0000 0.40920  0.57650  0.79200  Biso   1.000  C
  C54      1.0000 0.20690  0.60530  0.04780  Biso   1.000  C
  O37      1.0000 0.25140  0.51560  0.69170  Biso   1.000  O
  O38      1.0000 0.29680  0.64240  0.71080  Biso   1.000  O
  O39      1.0000 0.19740  0.68030  0.05190  Biso   1.000  O
  H13      1.0000 0.44800  0.44900  0.87900  Biso   1.000  H
  H14      1.0000 0.01800  0.44500  0.90800  Biso   1.000  H
  H15      1.0000 0.43100  0.62300  0.78100  Biso   1.000  H
  H16      1.0000 0.06000  0.64100  0.98700  Biso   1.000  H
  H17      1.0000 0.22200  0.47000  0.00000  Biso   1.000  H
  H18      1.0000 0.26000  0.43000  0.79100  Biso   1.000  H
  Mn10     1.0000 0.66572  0.73169  0.84408  Biso   1.000  Mn
  O40      1.0000 0.85950  0.83170  0.90020  Biso   1.000  O
  Mn11     1.0000 0.82124  0.74091  0.95276  Biso   1.000  Mn
  O41      1.0000 0.70950  0.81910  0.97051  Biso   1.000  O
  Mn12     1.0000 0.74722  0.54704  0.88555  Biso   1.000  Mn
  O42      1.0000 0.42550  0.16290  0.94210  Biso   1.000  O
  O43      1.0000 0.38760  0.04760  0.89910  Biso   1.000  O
  O44      1.0000 0.72560  0.66580  0.91154  Biso   1.000  O
  O45      1.0000 0.77300  0.80910  0.82990  Biso   1.000  O
  O46      1.0000 0.62460  0.82800  0.89680  Biso   1.000  O
  O47      1.0000 0.76070  0.06510  0.07700  Biso   1.000  O
  C55      1.0000 0.65550  0.85580  0.93880  Biso   1.000  C
  C56      1.0000 0.81270  0.96000  0.78990  Biso   1.000  C
  C57      1.0000 0.85870  0.92860  0.83330  Biso   1.000  C
  C58      1.0000 0.83730  0.03550  0.76970  Biso   1.000  C
  C59      1.0000 0.55120  0.97560  0.93110  Biso   1.000  C
  C60      1.0000 0.52600  0.05250  0.94570  Biso   1.000  C
  O48      1.0000 0.10110  0.03650  0.87460  Biso   1.000  O
  C61      1.0000 0.62780  0.94060  0.95300  Biso   1.000  C
  C62      1.0000 0.93210  0.96840  0.85280  Biso   1.000  C
  O49      1.0000 0.05000  0.15800  0.84700  Biso   1.000  O
  C63      1.0000 0.65510  0.06190  0.00480  Biso   1.000  C
  C64      1.0000 0.82680  0.85020  0.85670  Biso   1.000  C
  C65      1.0000 0.67860  0.98580  0.98960  Biso   1.000  C
  C66      1.0000 0.57920  0.09540  0.98250  Biso   1.000  C
  C67      1.0000 0.43880  0.09010  0.92740  Biso   1.000  C
  C68      1.0000 0.95920  0.04140  0.83350  Biso   1.000  C
  C69      1.0000 0.04220  0.08160  0.85340  Biso   1.000  C
  C70      1.0000 0.79130  0.06820  0.72160  Biso   1.000  C
  C71      1.0000 0.90920  0.07650  0.79200  Biso   1.000  C
  C72      1.0000 0.70690  0.10530  0.04780  Biso   1.000  C
  O50      1.0000 0.75140  0.01560  0.69170  Biso   1.000  O
  O51      1.0000 0.79680  0.14240  0.71080  Biso   1.000  O
  O52      1.0000 0.69740  0.18030  0.05190  Biso   1.000  O
  H19      1.0000 0.94800  0.94900  0.87900  Biso   1.000  H
  H20      1.0000 0.51800  0.94500  0.90800  Biso   1.000  H
  H21      1.0000 0.93100  0.12300  0.78100  Biso   1.000  H
  H22      1.0000 0.56000  0.14100  0.98700  Biso   1.000  H
  H23      1.0000 0.72200  0.97000  0.00000  Biso   1.000  H
  H24      1.0000 0.76000  0.93000  0.79100  Biso   1.000  H
  Mn13     1.0000 0.16572  0.76831  0.34408  Biso   1.000  Mn
  O53      1.0000 0.35950  0.66830  0.40020  Biso   1.000  O
  Mn14     1.0000 0.32124  0.75909  0.45276  Biso   1.000  Mn
  O54      1.0000 0.20950  0.68090  0.47051  Biso   1.000  O
  Mn15     1.0000 0.24722  0.95296  0.38555  Biso   1.000  Mn
  O55      1.0000 0.92550  0.33710  0.44210  Biso   1.000  O
  O56      1.0000 0.88760  0.45240  0.39910  Biso   1.000  O
  O57      1.0000 0.22560  0.83420  0.41154  Biso   1.000  O
  O58      1.0000 0.27300  0.69090  0.32990  Biso   1.000  O
  O59      1.0000 0.12460  0.67200  0.39680  Biso   1.000  O
  O60      1.0000 0.26070  0.43490  0.57700  Biso   1.000  O
  C73      1.0000 0.15550  0.64420  0.43880  Biso   1.000  C
  C74      1.0000 0.31270  0.54000  0.28990  Biso   1.000  C
  C75      1.0000 0.35870  0.57140  0.33330  Biso   1.000  C
  C76      1.0000 0.33730  0.46450  0.26970  Biso   1.000  C
  C77      1.0000 0.05120  0.52440  0.43110  Biso   1.000  C
  C78      1.0000 0.02600  0.44750  0.44570  Biso   1.000  C
  O61      1.0000 0.60110  0.46350  0.37460  Biso   1.000  O
  C79      1.0000 0.12780  0.55940  0.45300  Biso   1.000  C
  C80      1.0000 0.43210  0.53160  0.35280  Biso   1.000  C
  O62      1.0000 0.55000  0.34200  0.34700  Biso   1.000  O
  C81      1.0000 0.15510  0.43810  0.50480  Biso   1.000  C
  C82      1.0000 0.32680  0.64980  0.35670  Biso   1.000  C
  C83      1.0000 0.17860  0.51420  0.48960  Biso   1.000  C
  C84      1.0000 0.07920  0.40460  0.48250  Biso   1.000  C
  C85      1.0000 0.93880  0.40990  0.42740  Biso   1.000  C
  C86      1.0000 0.45920  0.45860  0.33350  Biso   1.000  C
  C87      1.0000 0.54220  0.41840  0.35340  Biso   1.000  C
  C88      1.0000 0.29130  0.43180  0.22160  Biso   1.000  C
  C89      1.0000 0.40920  0.42350  0.29200  Biso   1.000  C
  C90      1.0000 0.20690  0.39470  0.54780  Biso   1.000  C
  O63      1.0000 0.25140  0.48440  0.19170  Biso   1.000  O
  O64      1.0000 0.29680  0.35760  0.21080  Biso   1.000  O
  O65      1.0000 0.19740  0.31970  0.55190  Biso   1.000  O
  H25      1.0000 0.44800  0.55100  0.37900  Biso   1.000  H
  H26      1.0000 0.01800  0.55500  0.40800  Biso   1.000  H
  H27      1.0000 0.43100  0.37700  0.28100  Biso   1.000  H
  H28      1.0000 0.06000  0.35900  0.48700  Biso   1.000  H
  H29      1.0000 0.22200  0.53000  0.50000  Biso   1.000  H
  H30      1.0000 0.26000  0.57000  0.29100  Biso   1.000  H
  Mn16     1.0000 0.66572  0.26831  0.34408  Biso   1.000  Mn
  O66      1.0000 0.85950  0.16830  0.40020  Biso   1.000  O
  Mn17     1.0000 0.82124  0.25909  0.45276  Biso   1.000  Mn
  O67      1.0000 0.70950  0.18090  0.47051  Biso   1.000  O
  Mn18     1.0000 0.74722  0.45296  0.38555  Biso   1.000  Mn
  O68      1.0000 0.42550  0.83710  0.44210  Biso   1.000  O
  O69      1.0000 0.38760  0.95240  0.39910  Biso   1.000  O
  O70      1.0000 0.72560  0.33420  0.41154  Biso   1.000  O
  O71      1.0000 0.77300  0.19090  0.32990  Biso   1.000  O
  O72      1.0000 0.62460  0.17200  0.39680  Biso   1.000  O
  O73      1.0000 0.76070  0.93490  0.57700  Biso   1.000  O
  C91      1.0000 0.65550  0.14420  0.43880  Biso   1.000  C
  C92      1.0000 0.81270  0.04000  0.28990  Biso   1.000  C
  C93      1.0000 0.85870  0.07140  0.33330  Biso   1.000  C
  C94      1.0000 0.83730  0.96450  0.26970  Biso   1.000  C
  C95      1.0000 0.55120  0.02440  0.43110  Biso   1.000  C
  C96      1.0000 0.52600  0.94750  0.44570  Biso   1.000  C
  O74      1.0000 0.10110  0.96350  0.37460  Biso   1.000  O
  C97      1.0000 0.62780  0.05940  0.45300  Biso   1.000  C
  C98      1.0000 0.93210  0.03160  0.35280  Biso   1.000  C
  O75      1.0000 0.05000  0.84200  0.34700  Biso   1.000  O
  C99      1.0000 0.65510  0.93810  0.50480  Biso   1.000  C
  C100     1.0000 0.82680  0.14980  0.35670  Biso   1.000  C
  C101     1.0000 0.67860  0.01420  0.48960  Biso   1.000  C
  C102     1.0000 0.57920  0.90460  0.48250  Biso   1.000  C
  C103     1.0000 0.43880  0.90990  0.42740  Biso   1.000  C
  C104     1.0000 0.95920  0.95860  0.33350  Biso   1.000  C
  C105     1.0000 0.04220  0.91840  0.35340  Biso   1.000  C
  C106     1.0000 0.79130  0.93180  0.22160  Biso   1.000  C
  C107     1.0000 0.90920  0.92350  0.29200  Biso   1.000  C
  C108     1.0000 0.70690  0.89470  0.54780  Biso   1.000  C
  O76      1.0000 0.75140  0.98440  0.19170  Biso   1.000  O
  O77      1.0000 0.79680  0.85760  0.21080  Biso   1.000  O
  O78      1.0000 0.69740  0.81970  0.55190  Biso   1.000  O
  H31      1.0000 0.94800  0.05100  0.37900  Biso   1.000  H
  H32      1.0000 0.51800  0.05500  0.40800  Biso   1.000  H
  H33      1.0000 0.93100  0.87700  0.28100  Biso   1.000  H
  H34      1.0000 0.56000  0.85900  0.48700  Biso   1.000  H
  H35      1.0000 0.72200  0.03000  0.50000  Biso   1.000  H
  H36      1.0000 0.76000  0.07000  0.29100  Biso   1.000  H
  Mn19     1.0000 0.83428  0.76831  0.15592  Biso   1.000  Mn
  O79      1.0000 0.64050  0.66830  0.09980  Biso   1.000  O
  Mn20     1.0000 0.67876  0.75909  0.04724  Biso   1.000  Mn
  O80      1.0000 0.79050  0.68090  0.02949  Biso   1.000  O
  Mn21     1.0000 0.75278  0.95296  0.11445  Biso   1.000  Mn
  O81      1.0000 0.07450  0.33710  0.05790  Biso   1.000  O
  O82      1.0000 0.11240  0.45240  0.10090  Biso   1.000  O
  O83      1.0000 0.77440  0.83420  0.08846  Biso   1.000  O
  O84      1.0000 0.72700  0.69090  0.17010  Biso   1.000  O
  O85      1.0000 0.87540  0.67200  0.10320  Biso   1.000  O
  O86      1.0000 0.73930  0.43490  0.92300  Biso   1.000  O
  C109     1.0000 0.84450  0.64420  0.06120  Biso   1.000  C
  C110     1.0000 0.68730  0.54000  0.21010  Biso   1.000  C
  C111     1.0000 0.64130  0.57140  0.16670  Biso   1.000  C
  C112     1.0000 0.66270  0.46450  0.23030  Biso   1.000  C
  C113     1.0000 0.94880  0.52440  0.06890  Biso   1.000  C
  C114     1.0000 0.97400  0.44750  0.05430  Biso   1.000  C
  O87      1.0000 0.39890  0.46350  0.12540  Biso   1.000  O
  C115     1.0000 0.87220  0.55940  0.04700  Biso   1.000  C
  C116     1.0000 0.56790  0.53160  0.14720  Biso   1.000  C
  O88      1.0000 0.45000  0.34200  0.15300  Biso   1.000  O
  C117     1.0000 0.84490  0.43810  0.99520  Biso   1.000  C
  C118     1.0000 0.67320  0.64980  0.14330  Biso   1.000  C
  C119     1.0000 0.82140  0.51420  0.01040  Biso   1.000  C
  C120     1.0000 0.92080  0.40460  0.01750  Biso   1.000  C
  C121     1.0000 0.06120  0.40990  0.07260  Biso   1.000  C
  C122     1.0000 0.54080  0.45860  0.16650  Biso   1.000  C
  C123     1.0000 0.45780  0.41840  0.14660  Biso   1.000  C
  C124     1.0000 0.70870  0.43180  0.27840  Biso   1.000  C
  C125     1.0000 0.59080  0.42350  0.20800  Biso   1.000  C
  C126     1.0000 0.79310  0.39470  0.95220  Biso   1.000  C
  O89      1.0000 0.74860  0.48440  0.30830  Biso   1.000  O
  O90      1.0000 0.70320  0.35760  0.28920  Biso   1.000  O
  O91      1.0000 0.80260  0.31970  0.94810  Biso   1.000  O
  H37      1.0000 0.55200  0.55100  0.12100  Biso   1.000  H
  H38      1.0000 0.98200  0.55500  0.09200  Biso   1.000  H
  H39      1.0000 0.56900  0.37700  0.21900  Biso   1.000  H
  H40      1.0000 0.94000  0.35900  0.01300  Biso   1.000  H
  H41      1.0000 0.77800  0.53000  0.00000  Biso   1.000  H
  H42      1.0000 0.74000  0.57000  0.20900  Biso   1.000  H
  Mn22     1.0000 0.33428  0.26831  0.15592  Biso   1.000  Mn
  O92      1.0000 0.14050  0.16830  0.09980  Biso   1.000  O
  Mn23     1.0000 0.17876  0.25909  0.04724  Biso   1.000  Mn
  O93      1.0000 0.29050  0.18090  0.02949  Biso   1.000  O
  Mn24     1.0000 0.25278  0.45296  0.11445  Biso   1.000  Mn
  O94      1.0000 0.57450  0.83710  0.05790  Biso   1.000  O
  O95      1.0000 0.61240  0.95240  0.10090  Biso   1.000  O
  O96      1.0000 0.27440  0.33420  0.08846  Biso   1.000  O
  O97      1.0000 0.22700  0.19090  0.17010  Biso   1.000  O
  O98      1.0000 0.37540  0.17200  0.10320  Biso   1.000  O
  O99      1.0000 0.23930  0.93490  0.92300  Biso   1.000  O
  C127     1.0000 0.34450  0.14420  0.06120  Biso   1.000  C
  C128     1.0000 0.18730  0.04000  0.21010  Biso   1.000  C
  C129     1.0000 0.14130  0.07140  0.16670  Biso   1.000  C
  C130     1.0000 0.16270  0.96450  0.23030  Biso   1.000  C
  C131     1.0000 0.44880  0.02440  0.06890  Biso   1.000  C
  C132     1.0000 0.47400  0.94750  0.05430  Biso   1.000  C
  O100     1.0000 0.89890  0.96350  0.12540  Biso   1.000  O
  C133     1.0000 0.37220  0.05940  0.04700  Biso   1.000  C
  C134     1.0000 0.06790  0.03160  0.14720  Biso   1.000  C
  O101     1.0000 0.95000  0.84200  0.15300  Biso   1.000  O
  C135     1.0000 0.34490  0.93810  0.99520  Biso   1.000  C
  C136     1.0000 0.17320  0.14980  0.14330  Biso   1.000  C
  C137     1.0000 0.32140  0.01420  0.01040  Biso   1.000  C
  C138     1.0000 0.42080  0.90460  0.01750  Biso   1.000  C
  C139     1.0000 0.56120  0.90990  0.07260  Biso   1.000  C
  C140     1.0000 0.04080  0.95860  0.16650  Biso   1.000  C
  C141     1.0000 0.95780  0.91840  0.14660  Biso   1.000  C
  C142     1.0000 0.20870  0.93180  0.27840  Biso   1.000  C
  C143     1.0000 0.09080  0.92350  0.20800  Biso   1.000  C
  C144     1.0000 0.29310  0.89470  0.95220  Biso   1.000  C
  O102     1.0000 0.24860  0.98440  0.30830  Biso   1.000  O
  O103     1.0000 0.20320  0.85760  0.28920  Biso   1.000  O
  O104     1.0000 0.30260  0.81970  0.94810  Biso   1.000  O
  H43      1.0000 0.05200  0.05100  0.12100  Biso   1.000  H
  H44      1.0000 0.48200  0.05500  0.09200  Biso   1.000  H
  H45      1.0000 0.06900  0.87700  0.21900  Biso   1.000  H
  H46      1.0000 0.44000  0.85900  0.01300  Biso   1.000  H
  H47      1.0000 0.27800  0.03000  0.00000  Biso   1.000  H
  H48      1.0000 0.24000  0.07000  0.20900  Biso   1.000  H
