data_image0
_cell_length_a       6.6687
_cell_length_b       12.245
_cell_length_c       9.0305
_cell_angle_alpha    90
_cell_angle_beta     110.439
_cell_angle_gamma    90

_symmetry_space_group_name_H-M    "P 1"
_symmetry_int_tables_number       1

loop_
  _symmetry_equiv_pos_as_xyz
  'x, y, z'

loop_
  _atom_site_label
  _atom_site_occupancy
  _atom_site_fract_x
  _atom_site_fract_y
  _atom_site_fract_z
  _atom_site_thermal_displace_type
  _atom_site_B_iso_or_equiv
  _atom_site_type_symbol
  N1       1.0000 0.41800  0.12340  0.14680  Biso   1.000  N
  N2       1.0000 0.20900  0.12480  0.14060  Biso   1.000  N
  N3       1.0000 0.52200  0.19640  0.24890  Biso   1.000  N
  C1       1.0000 0.20400  0.20180  0.24250  Biso   1.000  C
  N4       1.0000 0.39900  0.24790  0.31270  Biso   1.000  N
  N5       1.0000 0.99710  0.23360  0.27000  Biso   1.000  N
  H1       1.0000 0.87900  0.20110  0.21850  Biso   1.000  H
  H2       1.0000 0.99930  0.28400  0.33700  Biso   1.000  H
  F1       1.0000 0.20410  0.38420  0.52060  Biso   1.000  F
  N6       1.0000 0.58200  0.12340  0.85320  Biso   1.000  N
  N7       1.0000 0.79100  0.12480  0.85940  Biso   1.000  N
  N8       1.0000 0.47800  0.19640  0.75110  Biso   1.000  N
  C2       1.0000 0.79600  0.20180  0.75750  Biso   1.000  C
  N9       1.0000 0.60100  0.24790  0.68730  Biso   1.000  N
  N10      1.0000 0.00290  0.23360  0.73000  Biso   1.000  N
  H3       1.0000 0.12100  0.20110  0.78150  Biso   1.000  H
  H4       1.0000 0.00070  0.28400  0.66300  Biso   1.000  H
  F2       1.0000 0.79590  0.38420  0.47940  Biso   1.000  F
  N11      1.0000 0.58200  0.87660  0.85320  Biso   1.000  N
  N12      1.0000 0.79100  0.87520  0.85940  Biso   1.000  N
  N13      1.0000 0.47800  0.80360  0.75110  Biso   1.000  N
  C3       1.0000 0.79600  0.79820  0.75750  Biso   1.000  C
  N14      1.0000 0.60100  0.75210  0.68730  Biso   1.000  N
  N15      1.0000 0.00290  0.76640  0.73000  Biso   1.000  N
  H5       1.0000 0.12100  0.79890  0.78150  Biso   1.000  H
  H6       1.0000 0.00070  0.71600  0.66300  Biso   1.000  H
  F3       1.0000 0.79590  0.61580  0.47940  Biso   1.000  F
  N16      1.0000 0.41800  0.87660  0.14680  Biso   1.000  N
  N17      1.0000 0.20900  0.87520  0.14060  Biso   1.000  N
  N18      1.0000 0.52200  0.80360  0.24890  Biso   1.000  N
  C4       1.0000 0.20400  0.79820  0.24250  Biso   1.000  C
  N19      1.0000 0.39900  0.75210  0.31270  Biso   1.000  N
  N20      1.0000 0.99710  0.76640  0.27000  Biso   1.000  N
  H7       1.0000 0.87900  0.79890  0.21850  Biso   1.000  H
  H8       1.0000 0.99930  0.71600  0.33700  Biso   1.000  H
  F4       1.0000 0.20410  0.61580  0.52060  Biso   1.000  F
  Fe1      1.0000 0.50000  0.00000  0.00000  Biso   1.000  Fe
  F5       1.0000 0.19000  0.00000  0.86390  Biso   1.000  F
  F6       1.0000 0.81000  0.00000  0.13610  Biso   1.000  F
  Fe2      1.0000 0.00000  0.00000  0.00000  Biso   1.000  Fe
  Fe3      1.0000 0.50000  0.36593  0.50000  Biso   1.000  Fe
  Fe4      1.0000 0.50000  0.63407  0.50000  Biso   1.000  Fe
  O1       1.0000 0.58700  0.50000  0.66060  Biso   1.000  O
  F7       1.0000 0.41300  0.50000  0.33940  Biso   1.000  F
  Fe5      1.0000 0.00000  0.50000  0.50000  Biso   1.000  Fe
