data_image0
_cell_length_a       14.2079
_cell_length_b       17.2295
_cell_length_c       26.1584
_cell_angle_alpha    88.764
_cell_angle_beta     74.47
_cell_angle_gamma    70.377

_symmetry_space_group_name_H-M    "P 1"
_symmetry_int_tables_number       1

loop_
  _symmetry_equiv_pos_as_xyz
  'x, y, z'

loop_
  _atom_site_label
  _atom_site_occupancy
  _atom_site_fract_x
  _atom_site_fract_y
  _atom_site_fract_z
  _atom_site_thermal_displace_type
  _atom_site_B_iso_or_equiv
  _atom_site_type_symbol
  Zn1      1.0000 0.11005  0.79977  0.42005  Biso   1.000  Zn
  Zn2      1.0000 0.17306  0.61911  0.47782  Biso   1.000  Zn
  Zn3      1.0000 0.46896  0.21843  0.70865  Biso   1.000  Zn
  Zn4      1.0000 0.66620  0.11612  0.00883  Biso   1.000  Zn
  Zn5      1.0000 0.85584  0.27887  0.19851  Biso   1.000  Zn
  Zn6      1.0000 0.57025  0.31381  0.07135  Biso   1.000  Zn
  C1       1.0000 0.32640  0.67100  0.39530  Biso   1.000  C
  C2       1.0000 0.32380  0.78720  0.36320  Biso   1.000  C
  H1       1.0000 0.29900  0.84250  0.35630  Biso   1.000  H
  C3       1.0000 0.42550  0.66120  0.36330  Biso   1.000  C
  C4       1.0000 0.50240  0.58440  0.35330  Biso   1.000  C
  C5       1.0000 0.38410  0.53600  0.40900  Biso   1.000  C
  H2       1.0000 0.37290  0.49100  0.42650  Biso   1.000  H
  C6       1.0000 0.05750  0.82940  0.58820  Biso   1.000  C
  C7       1.0000 0.08420  0.79400  0.63230  Biso   1.000  C
  H3       1.0000 0.12260  0.73800  0.63040  Biso   1.000  H
  C8       1.0000 0.05410  0.84160  0.67900  Biso   1.000  C
  C9       1.0000 0.00560  0.92710  0.67980  Biso   1.000  C
  H4       1.0000 0.98490  0.95970  0.71150  Biso   1.000  H
  C10      1.0000 0.98820  0.96380  0.63420  Biso   1.000  C
  C11      1.0000 0.01370  0.91520  0.58880  Biso   1.000  C
  H5       1.0000 0.00190  0.93930  0.55790  Biso   1.000  H
  C12      1.0000 0.08690  0.77980  0.53720  Biso   1.000  C
  C13      1.0000 0.08290  0.80950  0.72750  Biso   1.000  C
  C14      1.0000 0.93750  0.05570  0.63470  Biso   1.000  C
  C15      1.0000 0.18990  0.42070  0.57310  Biso   1.000  C
  C16      1.0000 0.24500  0.37600  0.60730  Biso   1.000  C
  H6       1.0000 0.29870  0.39020  0.61360  Biso   1.000  H
  C17      1.0000 0.22020  0.31000  0.63190  Biso   1.000  C
  C18      1.0000 0.13790  0.29170  0.62400  Biso   1.000  C
  H7       1.0000 0.11920  0.24890  0.64080  Biso   1.000  H
  C19      1.0000 0.08340  0.33770  0.59070  Biso   1.000  C
  C20      1.0000 0.10850  0.40330  0.56600  Biso   1.000  C
  H8       1.0000 0.06930  0.43490  0.54470  Biso   1.000  H
  C21      1.0000 0.21410  0.49280  0.54520  Biso   1.000  C
  C22      1.0000 0.27920  0.26160  0.66890  Biso   1.000  C
  C23      1.0000 0.99520  0.31610  0.58100  Biso   1.000  C
  C24      1.0000 0.52740  0.31650  0.82970  Biso   1.000  C
  C25      1.0000 0.57160  0.26990  0.86750  Biso   1.000  C
  H9       1.0000 0.59620  0.21250  0.86290  Biso   1.000  H
  C26      1.0000 0.57860  0.30780  0.91060  Biso   1.000  C
  C27      1.0000 0.55310  0.39230  0.91490  Biso   1.000  C
  H10      1.0000 0.55800  0.41790  0.94460  Biso   1.000  H
  C28      1.0000 0.51950  0.44050  0.87410  Biso   1.000  C
  C29      1.0000 0.50480  0.40170  0.83360  Biso   1.000  C
  H11      1.0000 0.47900  0.43300  0.80780  Biso   1.000  H
  C30      1.0000 0.51130  0.27560  0.78590  Biso   1.000  C
  C31      1.0000 0.61560  0.26020  0.95470  Biso   1.000  C
  C32      1.0000 0.48960  0.53380  0.87990  Biso   1.000  C
  C33      1.0000 0.16530  0.23170  0.12240  Biso   1.000  C
  C34      1.0000 0.17540  0.15310  0.09800  Biso   1.000  C
  H12      1.0000 0.11770  0.13730  0.10140  Biso   1.000  H
  C35      1.0000 0.27830  0.10030  0.06820  Biso   1.000  C
  C36      1.0000 0.36090  0.12110  0.06390  Biso   1.000  C
  H13      1.0000 0.42600  0.08520  0.04500  Biso   1.000  H
  C37      1.0000 0.35250  0.19700  0.08750  Biso   1.000  C
  C38      1.0000 0.25620  0.25040  0.11690  Biso   1.000  C
  H14      1.0000 0.25190  0.29940  0.13320  Biso   1.000  H
  C39      1.0000 0.06510  0.28280  0.15340  Biso   1.000  C
  C40      1.0000 0.28330  0.02160  0.04330  Biso   1.000  C
  C41      1.0000 0.82720  0.15910  0.11680  Biso   1.000  C
  C42      1.0000 0.44920  0.21770  0.08030  Biso   1.000  C
  C43      1.0000 0.70770  0.27570  0.14120  Biso   1.000  C
  H15      1.0000 0.66600  0.32610  0.16000  Biso   1.000  H
  C44      1.0000 0.76130  0.17100  0.08600  Biso   1.000  C
  C45      1.0000 0.85570  0.04960  0.04100  Biso   1.000  C
  H16      1.0000 0.86800  0.01150  0.01320  Biso   1.000  H
  C46      1.0000 0.91010  0.08540  0.10760  Biso   1.000  C
  N1       1.0000 0.92620  0.02960  0.06760  Biso   1.000  N
  N2       1.0000 0.97960  0.06660  0.13680  Biso   1.000  N
  H17      1.0000 0.03130  0.02080  0.12950  Biso   1.000  H
  H18      1.0000 0.97210  0.10040  0.16250  Biso   1.000  H
  N3       1.0000 0.79390  0.22840  0.15268  Biso   1.000  N
  N4       1.0000 0.68460  0.24670  0.10150  Biso   1.000  N
  N5       1.0000 0.76960  0.11540  0.04740  Biso   1.000  N
  N6       1.0000 0.30130  0.60720  0.42060  Biso   1.000  N
  N7       1.0000 0.26210  0.74860  0.39510  Biso   1.000  N
  N8       1.0000 0.42180  0.73900  0.34310  Biso   1.000  N
  N9       1.0000 0.60020  0.56520  0.32270  Biso   1.000  N
  H19      1.0000 0.64230  0.51500  0.31910  Biso   1.000  H
  H20      1.0000 0.62100  0.60300  0.30660  Biso   1.000  H
  N10      1.0000 0.47570  0.52090  0.37740  Biso   1.000  N
  O1       1.0000 0.05950  0.81390  0.49839  Biso   1.000  O
  O2       1.0000 0.13820  0.70160  0.53611  Biso   1.000  O
  O3       1.0000 0.13110  0.73030  0.72750  Biso   1.000  O
  O4       1.0000 0.06130  0.84930  0.76760  Biso   1.000  O
  O5       1.0000 0.89020  0.10280  0.67550  Biso   1.000  O
  O6       1.0000 0.94270  0.08400  0.58846  Biso   1.000  O
  O7       1.0000 0.27310  0.52360  0.55940  Biso   1.000  O
  O8       1.0000 0.17550  0.51450  0.50765  Biso   1.000  O
  O9       1.0000 0.94430  0.36130  0.55147  Biso   1.000  O
  O10      1.0000 0.97440  0.25300  0.60208  Biso   1.000  O
  O11      1.0000 0.24980  0.20830  0.69380  Biso   1.000  O
  O12      1.0000 0.35830  0.27670  0.67165  Biso   1.000  O
  O13      1.0000 0.49020  0.57150  0.83620  Biso   1.000  O
  O14      1.0000 0.46900  0.56720  0.92400  Biso   1.000  O
  O15      1.0000 0.43460  0.31770  0.76710  Biso   1.000  O
  O16      1.0000 0.55930  0.20110  0.77018  Biso   1.000  O
  O17      1.0000 0.62200  0.30000  0.99361  Biso   1.000  O
  O18      1.0000 0.63460  0.18490  0.95030  Biso   1.000  O
  O19      1.0000 0.05950  0.33770  0.18700  Biso   1.000  O
  O20      1.0000 0.98640  0.27080  0.14650  Biso   1.000  O
  O21      1.0000 0.21310  0.99140  0.05740  Biso   1.000  O
  O22      1.0000 0.36420  0.98550  0.00590  Biso   1.000  O
  O23      1.0000 0.53360  0.16370  0.06840  Biso   1.000  O
  O24      1.0000 0.43560  0.29590  0.08840  Biso   1.000  O
  Zn7      1.0000 0.88995  0.20023  0.57995  Biso   1.000  Zn
  Zn8      1.0000 0.82694  0.38089  0.52218  Biso   1.000  Zn
  Zn9      1.0000 0.53104  0.78157  0.29135  Biso   1.000  Zn
  Zn10     1.0000 0.33380  0.88388  0.99117  Biso   1.000  Zn
  Zn11     1.0000 0.14416  0.72113  0.80149  Biso   1.000  Zn
  Zn12     1.0000 0.42975  0.68619  0.92865  Biso   1.000  Zn
  C47      1.0000 0.67360  0.32900  0.60470  Biso   1.000  C
  C48      1.0000 0.67620  0.21280  0.63680  Biso   1.000  C
  H21      1.0000 0.70100  0.15750  0.64370  Biso   1.000  H
  C49      1.0000 0.57450  0.33880  0.63670  Biso   1.000  C
  C50      1.0000 0.49760  0.41560  0.64670  Biso   1.000  C
  C51      1.0000 0.61590  0.46400  0.59100  Biso   1.000  C
  H22      1.0000 0.62710  0.50900  0.57350  Biso   1.000  H
  C52      1.0000 0.94250  0.17060  0.41180  Biso   1.000  C
  C53      1.0000 0.91580  0.20600  0.36770  Biso   1.000  C
  H23      1.0000 0.87740  0.26200  0.36960  Biso   1.000  H
  C54      1.0000 0.94590  0.15840  0.32100  Biso   1.000  C
  C55      1.0000 0.99440  0.07290  0.32020  Biso   1.000  C
  H24      1.0000 0.01510  0.04030  0.28850  Biso   1.000  H
  C56      1.0000 0.01180  0.03620  0.36580  Biso   1.000  C
  C57      1.0000 0.98630  0.08480  0.41120  Biso   1.000  C
  H25      1.0000 0.99810  0.06070  0.44210  Biso   1.000  H
  C58      1.0000 0.91310  0.22020  0.46280  Biso   1.000  C
  C59      1.0000 0.91710  0.19050  0.27250  Biso   1.000  C
  C60      1.0000 0.06250  0.94430  0.36530  Biso   1.000  C
  C61      1.0000 0.81010  0.57930  0.42690  Biso   1.000  C
  C62      1.0000 0.75500  0.62400  0.39270  Biso   1.000  C
  H26      1.0000 0.70130  0.60980  0.38640  Biso   1.000  H
  C63      1.0000 0.77980  0.69000  0.36810  Biso   1.000  C
  C64      1.0000 0.86210  0.70830  0.37600  Biso   1.000  C
  H27      1.0000 0.88080  0.75110  0.35920  Biso   1.000  H
  C65      1.0000 0.91660  0.66230  0.40930  Biso   1.000  C
  C66      1.0000 0.89150  0.59670  0.43400  Biso   1.000  C
  H28      1.0000 0.93070  0.56510  0.45530  Biso   1.000  H
  C67      1.0000 0.78590  0.50720  0.45480  Biso   1.000  C
  C68      1.0000 0.72080  0.73840  0.33110  Biso   1.000  C
  C69      1.0000 0.00480  0.68390  0.41900  Biso   1.000  C
  C70      1.0000 0.47260  0.68350  0.17030  Biso   1.000  C
  C71      1.0000 0.42840  0.73010  0.13250  Biso   1.000  C
  H29      1.0000 0.40380  0.78750  0.13710  Biso   1.000  H
  C72      1.0000 0.42140  0.69220  0.08940  Biso   1.000  C
  C73      1.0000 0.44690  0.60770  0.08510  Biso   1.000  C
  H30      1.0000 0.44200  0.58210  0.05540  Biso   1.000  H
  C74      1.0000 0.48050  0.55950  0.12590  Biso   1.000  C
  C75      1.0000 0.49520  0.59830  0.16640  Biso   1.000  C
  H31      1.0000 0.52100  0.56700  0.19220  Biso   1.000  H
  C76      1.0000 0.48870  0.72440  0.21410  Biso   1.000  C
  C77      1.0000 0.38440  0.73980  0.04530  Biso   1.000  C
  C78      1.0000 0.51040  0.46620  0.12010  Biso   1.000  C
  C79      1.0000 0.83470  0.76830  0.87760  Biso   1.000  C
  C80      1.0000 0.82460  0.84690  0.90200  Biso   1.000  C
  H32      1.0000 0.88230  0.86270  0.89860  Biso   1.000  H
  C81      1.0000 0.72170  0.89970  0.93180  Biso   1.000  C
  C82      1.0000 0.63910  0.87890  0.93610  Biso   1.000  C
  H33      1.0000 0.57400  0.91480  0.95500  Biso   1.000  H
  C83      1.0000 0.64750  0.80300  0.91250  Biso   1.000  C
  C84      1.0000 0.74380  0.74960  0.88310  Biso   1.000  C
  H34      1.0000 0.74810  0.70060  0.86680  Biso   1.000  H
  C85      1.0000 0.93490  0.71720  0.84660  Biso   1.000  C
  C86      1.0000 0.71670  0.97840  0.95670  Biso   1.000  C
  C87      1.0000 0.17280  0.84090  0.88320  Biso   1.000  C
  C88      1.0000 0.55080  0.78230  0.91970  Biso   1.000  C
  C89      1.0000 0.29230  0.72430  0.85880  Biso   1.000  C
  H35      1.0000 0.33400  0.67390  0.84000  Biso   1.000  H
  C90      1.0000 0.23870  0.82900  0.91400  Biso   1.000  C
  C91      1.0000 0.14430  0.95040  0.95900  Biso   1.000  C
  H36      1.0000 0.13200  0.98850  0.98680  Biso   1.000  H
  C92      1.0000 0.08990  0.91460  0.89240  Biso   1.000  C
  N11      1.0000 0.07380  0.97040  0.93240  Biso   1.000  N
  N12      1.0000 0.02040  0.93340  0.86320  Biso   1.000  N
  H37      1.0000 0.96870  0.97920  0.87050  Biso   1.000  H
  H38      1.0000 0.02790  0.89960  0.83750  Biso   1.000  H
  N13      1.0000 0.20610  0.77160  0.84732  Biso   1.000  N
  N14      1.0000 0.31540  0.75330  0.89850  Biso   1.000  N
  N15      1.0000 0.23040  0.88460  0.95260  Biso   1.000  N
  N16      1.0000 0.69870  0.39280  0.57940  Biso   1.000  N
  N17      1.0000 0.73790  0.25140  0.60490  Biso   1.000  N
  N18      1.0000 0.57820  0.26100  0.65690  Biso   1.000  N
  N19      1.0000 0.39980  0.43480  0.67730  Biso   1.000  N
  H39      1.0000 0.35770  0.48500  0.68090  Biso   1.000  H
  H40      1.0000 0.37900  0.39700  0.69340  Biso   1.000  H
  N20      1.0000 0.52430  0.47910  0.62260  Biso   1.000  N
  O25      1.0000 0.94050  0.18610  0.50161  Biso   1.000  O
  O26      1.0000 0.86180  0.29840  0.46389  Biso   1.000  O
  O27      1.0000 0.86890  0.26970  0.27250  Biso   1.000  O
  O28      1.0000 0.93870  0.15070  0.23240  Biso   1.000  O
  O29      1.0000 0.10980  0.89720  0.32450  Biso   1.000  O
  O30      1.0000 0.05730  0.91600  0.41154  Biso   1.000  O
  O31      1.0000 0.72690  0.47640  0.44060  Biso   1.000  O
  O32      1.0000 0.82450  0.48550  0.49235  Biso   1.000  O
  O33      1.0000 0.05570  0.63870  0.44853  Biso   1.000  O
  O34      1.0000 0.02560  0.74700  0.39792  Biso   1.000  O
  O35      1.0000 0.75020  0.79170  0.30620  Biso   1.000  O
  O36      1.0000 0.64170  0.72330  0.32835  Biso   1.000  O
  O37      1.0000 0.50980  0.42850  0.16380  Biso   1.000  O
  O38      1.0000 0.53100  0.43280  0.07600  Biso   1.000  O
  O39      1.0000 0.56540  0.68230  0.23290  Biso   1.000  O
  O40      1.0000 0.44070  0.79890  0.22982  Biso   1.000  O
  O41      1.0000 0.37800  0.70000  0.00639  Biso   1.000  O
  O42      1.0000 0.36540  0.81510  0.04970  Biso   1.000  O
  O43      1.0000 0.94050  0.66230  0.81300  Biso   1.000  O
  O44      1.0000 0.01360  0.72920  0.85350  Biso   1.000  O
  O45      1.0000 0.78690  0.00860  0.94260  Biso   1.000  O
  O46      1.0000 0.63580  0.01450  0.99410  Biso   1.000  O
  O47      1.0000 0.46640  0.83630  0.93160  Biso   1.000  O
  O48      1.0000 0.56440  0.70410  0.91160  Biso   1.000  O
