data_image0
_cell_length_a       37.6898
_cell_length_b       37.6898
_cell_length_c       14.2576
_cell_angle_alpha    90
_cell_angle_beta     90
_cell_angle_gamma    90

_symmetry_space_group_name_H-M    "P 1"
_symmetry_int_tables_number       1

loop_
  _symmetry_equiv_pos_as_xyz
  'x, y, z'

loop_
  _atom_site_label
  _atom_site_occupancy
  _atom_site_fract_x
  _atom_site_fract_y
  _atom_site_fract_z
  _atom_site_thermal_displace_type
  _atom_site_B_iso_or_equiv
  _atom_site_type_symbol
  Cu1      1.0000 0.74181  0.71656  0.07992  Biso   1.000  Cu
  Cu2      1.0000 0.74108  0.78402  0.04424  Biso   1.000  Cu
  I1       1.0000 0.68093  0.75016  0.09254  Biso   1.000  I
  I2       1.0000 0.79855  0.75338  0.13481  Biso   1.000  I
  Mn1      1.0000 0.75107  0.00104  0.35318  Biso   1.000  Mn
  Mo1      1.0000 0.70374  0.03959  0.18231  Biso   1.000  Mo
  Mo2      1.0000 0.66257  0.00622  0.37134  Biso   1.000  Mo
  Mo3      1.0000 0.70948  0.96718  0.54164  Biso   1.000  Mo
  Mo4      1.0000 0.79225  0.03386  0.16307  Biso   1.000  Mo
  Mo5      1.0000 0.83961  0.99571  0.33460  Biso   1.000  Mo
  Mo6      1.0000 0.79781  0.96294  0.52487  Biso   1.000  Mo
  O1       1.0000 0.71086  0.98806  0.27290  Biso   1.000  O
  O2       1.0000 0.74987  0.95640  0.41920  Biso   1.000  O
  O3       1.0000 0.75137  0.04629  0.28740  Biso   1.000  O
  O4       1.0000 0.71531  0.01839  0.45080  Biso   1.000  O
  O5       1.0000 0.79210  0.01426  0.43310  Biso   1.000  O
  O6       1.0000 0.67716  0.04643  0.29870  Biso   1.000  O
  O7       1.0000 0.74474  0.01941  0.12570  Biso   1.000  O
  O8       1.0000 0.67719  0.96473  0.43750  Biso   1.000  O
  O9       1.0000 0.82378  0.95685  0.40800  Biso   1.000  O
  O10      1.0000 0.75570  0.98173  0.57970  Biso   1.000  O
  O11      1.0000 0.78732  0.98368  0.25550  Biso   1.000  O
  O12      1.0000 0.82499  0.03723  0.26740  Biso   1.000  O
  N1       1.0000 0.73710  0.83090  0.10860  Biso   1.000  N
  N2       1.0000 0.75960  0.17240  0.59020  Biso   1.000  N
  C1       1.0000 0.75590  0.07739  0.34360  Biso   1.000  C
  H1       1.0000 0.73620  0.09400  0.32970  Biso   1.000  H
  H2       1.0000 0.77830  0.08910  0.32520  Biso   1.000  H
  C2       1.0000 0.75670  0.07050  0.45130  Biso   1.000  C
  C3       1.0000 0.71140  0.95330  0.22880  Biso   1.000  C
  H3       1.0000 0.71050  0.95620  0.15980  Biso   1.000  H
  H4       1.0000 0.69010  0.93980  0.24830  Biso   1.000  H
  C4       1.0000 0.77920  0.94880  0.21820  Biso   1.000  C
  H5       1.0000 0.79950  0.93280  0.23180  Biso   1.000  H
  H6       1.0000 0.77710  0.95070  0.14920  Biso   1.000  H
  C5       1.0000 0.78880  0.04840  0.47710  Biso   1.000  C
  H7       1.0000 0.81030  0.06240  0.46200  Biso   1.000  H
  H8       1.0000 0.78850  0.04480  0.54590  Biso   1.000  H
  C6       1.0000 0.72310  0.05340  0.48880  Biso   1.000  C
  H9       1.0000 0.72520  0.05150  0.55780  Biso   1.000  H
  H10      1.0000 0.70290  0.06930  0.47510  Biso   1.000  H
  C7       1.0000 0.74560  0.93190  0.25630  Biso   1.000  C
  C8       1.0000 0.74630  0.92430  0.36180  Biso   1.000  C
  H11      1.0000 0.72410  0.91190  0.37950  Biso   1.000  H
  H12      1.0000 0.76640  0.90820  0.37570  Biso   1.000  H
  C9       1.0000 0.75890  0.10680  0.49740  Biso   1.000  C
  C10      1.0000 0.73590  0.86280  0.06040  Biso   1.000  C
  H13      1.0000 0.73370  0.86270  0.99400  Biso   1.000  H
  C11      1.0000 0.74080  0.89630  0.20630  Biso   1.000  C
  C12      1.0000 0.73760  0.89370  0.10640  Biso   1.000  C
  H14      1.0000 0.73670  0.91510  0.07100  Biso   1.000  H
  C13      1.0000 0.73570  0.16510  0.52320  Biso   1.000  C
  H15      1.0000 0.71830  0.18240  0.50820  Biso   1.000  H
  C14      1.0000 0.78450  0.11510  0.56380  Biso   1.000  C
  H16      1.0000 0.80180  0.09790  0.58070  Biso   1.000  H
  C15      1.0000 0.73560  0.13290  0.47470  Biso   1.000  C
  H17      1.0000 0.71910  0.12920  0.42540  Biso   1.000  H
  C16      1.0000 0.78490  0.14820  0.60560  Biso   1.000  C
  H18      1.0000 0.80390  0.15400  0.64680  Biso   1.000  H
  C17      1.0000 0.73950  0.83280  0.19710  Biso   1.000  C
  H19      1.0000 0.74020  0.81110  0.23080  Biso   1.000  H
  C18      1.0000 0.74130  0.86420  0.24950  Biso   1.000  C
  H20      1.0000 0.74280  0.86300  0.31600  Biso   1.000  H
  Cu3      1.0000 0.25819  0.28344  0.57992  Biso   1.000  Cu
  Cu4      1.0000 0.25892  0.21598  0.54424  Biso   1.000  Cu
  I3       1.0000 0.31907  0.24984  0.59254  Biso   1.000  I
  I4       1.0000 0.20145  0.24662  0.63481  Biso   1.000  I
  Mn2      1.0000 0.24893  0.99896  0.85318  Biso   1.000  Mn
  Mo7      1.0000 0.29626  0.96041  0.68231  Biso   1.000  Mo
  Mo8      1.0000 0.33743  0.99378  0.87134  Biso   1.000  Mo
  Mo9      1.0000 0.29052  0.03282  0.04164  Biso   1.000  Mo
  Mo10     1.0000 0.20775  0.96614  0.66307  Biso   1.000  Mo
  Mo11     1.0000 0.16039  0.00429  0.83460  Biso   1.000  Mo
  Mo12     1.0000 0.20219  0.03706  0.02487  Biso   1.000  Mo
  O13      1.0000 0.28914  0.01194  0.77290  Biso   1.000  O
  O14      1.0000 0.25013  0.04360  0.91920  Biso   1.000  O
  O15      1.0000 0.24863  0.95371  0.78740  Biso   1.000  O
  O16      1.0000 0.28469  0.98161  0.95080  Biso   1.000  O
  O17      1.0000 0.20790  0.98574  0.93310  Biso   1.000  O
  O18      1.0000 0.32284  0.95357  0.79870  Biso   1.000  O
  O19      1.0000 0.25526  0.98059  0.62570  Biso   1.000  O
  O20      1.0000 0.32281  0.03527  0.93750  Biso   1.000  O
  O21      1.0000 0.17622  0.04315  0.90800  Biso   1.000  O
  O22      1.0000 0.24430  0.01827  0.07970  Biso   1.000  O
  O23      1.0000 0.21268  0.01632  0.75550  Biso   1.000  O
  O24      1.0000 0.17501  0.96277  0.76740  Biso   1.000  O
  N3       1.0000 0.26290  0.16910  0.60860  Biso   1.000  N
  N4       1.0000 0.24040  0.82760  0.09020  Biso   1.000  N
  C19      1.0000 0.24410  0.92261  0.84360  Biso   1.000  C
  H21      1.0000 0.26380  0.90600  0.82970  Biso   1.000  H
  H22      1.0000 0.22170  0.91090  0.82520  Biso   1.000  H
  C20      1.0000 0.24330  0.92950  0.95130  Biso   1.000  C
  C21      1.0000 0.28860  0.04670  0.72880  Biso   1.000  C
  H23      1.0000 0.28950  0.04380  0.65980  Biso   1.000  H
  H24      1.0000 0.30990  0.06020  0.74830  Biso   1.000  H
  C22      1.0000 0.22080  0.05120  0.71820  Biso   1.000  C
  H25      1.0000 0.20050  0.06720  0.73180  Biso   1.000  H
  H26      1.0000 0.22290  0.04930  0.64920  Biso   1.000  H
  C23      1.0000 0.21120  0.95160  0.97710  Biso   1.000  C
  H27      1.0000 0.18970  0.93760  0.96200  Biso   1.000  H
  H28      1.0000 0.21150  0.95520  0.04590  Biso   1.000  H
  C24      1.0000 0.27690  0.94660  0.98880  Biso   1.000  C
  H29      1.0000 0.27480  0.94850  0.05780  Biso   1.000  H
  H30      1.0000 0.29710  0.93070  0.97510  Biso   1.000  H
  C25      1.0000 0.25440  0.06810  0.75630  Biso   1.000  C
  C26      1.0000 0.25370  0.07570  0.86180  Biso   1.000  C
  H31      1.0000 0.27590  0.08810  0.87950  Biso   1.000  H
  H32      1.0000 0.23360  0.09180  0.87570  Biso   1.000  H
  C27      1.0000 0.24110  0.89320  0.99740  Biso   1.000  C
  C28      1.0000 0.26410  0.13720  0.56040  Biso   1.000  C
  H33      1.0000 0.26630  0.13730  0.49400  Biso   1.000  H
  C29      1.0000 0.25920  0.10370  0.70630  Biso   1.000  C
  C30      1.0000 0.26240  0.10630  0.60640  Biso   1.000  C
  H34      1.0000 0.26330  0.08490  0.57100  Biso   1.000  H
  C31      1.0000 0.26430  0.83490  0.02320  Biso   1.000  C
  H35      1.0000 0.28170  0.81760  0.00820  Biso   1.000  H
  C32      1.0000 0.21550  0.88490  0.06380  Biso   1.000  C
  H36      1.0000 0.19820  0.90210  0.08070  Biso   1.000  H
  C33      1.0000 0.26440  0.86710  0.97470  Biso   1.000  C
  H37      1.0000 0.28090  0.87080  0.92540  Biso   1.000  H
  C34      1.0000 0.21510  0.85180  0.10560  Biso   1.000  C
  H38      1.0000 0.19610  0.84600  0.14680  Biso   1.000  H
  C35      1.0000 0.26050  0.16720  0.69710  Biso   1.000  C
  H39      1.0000 0.25980  0.18890  0.73080  Biso   1.000  H
  C36      1.0000 0.25870  0.13580  0.74950  Biso   1.000  C
  H40      1.0000 0.25720  0.13700  0.81600  Biso   1.000  H
  Cu5      1.0000 0.78344  0.24181  0.82992  Biso   1.000  Cu
  Cu6      1.0000 0.71598  0.24108  0.79424  Biso   1.000  Cu
  I5       1.0000 0.74984  0.18093  0.84254  Biso   1.000  I
  I6       1.0000 0.74662  0.29855  0.88481  Biso   1.000  I
  Mn3      1.0000 0.49896  0.25107  0.10318  Biso   1.000  Mn
  Mo13     1.0000 0.46041  0.20374  0.93231  Biso   1.000  Mo
  Mo14     1.0000 0.49378  0.16257  0.12134  Biso   1.000  Mo
  Mo15     1.0000 0.53282  0.20948  0.29164  Biso   1.000  Mo
  Mo16     1.0000 0.46614  0.29225  0.91307  Biso   1.000  Mo
  Mo17     1.0000 0.50429  0.33961  0.08460  Biso   1.000  Mo
  Mo18     1.0000 0.53706  0.29781  0.27487  Biso   1.000  Mo
  O25      1.0000 0.51194  0.21086  0.02290  Biso   1.000  O
  O26      1.0000 0.54360  0.24987  0.16920  Biso   1.000  O
  O27      1.0000 0.45371  0.25137  0.03740  Biso   1.000  O
  O28      1.0000 0.48161  0.21531  0.20080  Biso   1.000  O
  O29      1.0000 0.48574  0.29210  0.18310  Biso   1.000  O
  O30      1.0000 0.45357  0.17716  0.04870  Biso   1.000  O
  O31      1.0000 0.48059  0.24474  0.87570  Biso   1.000  O
  O32      1.0000 0.53527  0.17719  0.18750  Biso   1.000  O
  O33      1.0000 0.54315  0.32378  0.15800  Biso   1.000  O
  O34      1.0000 0.51827  0.25570  0.32970  Biso   1.000  O
  O35      1.0000 0.51632  0.28732  0.00550  Biso   1.000  O
  O36      1.0000 0.46277  0.32499  0.01740  Biso   1.000  O
  N5       1.0000 0.66910  0.23710  0.85860  Biso   1.000  N
  N6       1.0000 0.32760  0.25960  0.34020  Biso   1.000  N
  C37      1.0000 0.42261  0.25590  0.09360  Biso   1.000  C
  H41      1.0000 0.40600  0.23620  0.07970  Biso   1.000  H
  H42      1.0000 0.41090  0.27830  0.07520  Biso   1.000  H
  C38      1.0000 0.42950  0.25670  0.20130  Biso   1.000  C
  C39      1.0000 0.54670  0.21140  0.97880  Biso   1.000  C
  H43      1.0000 0.54380  0.21050  0.90980  Biso   1.000  H
  H44      1.0000 0.56020  0.19010  0.99830  Biso   1.000  H
  C40      1.0000 0.55120  0.27920  0.96820  Biso   1.000  C
  H45      1.0000 0.56720  0.29950  0.98180  Biso   1.000  H
  H46      1.0000 0.54930  0.27710  0.89920  Biso   1.000  H
  C41      1.0000 0.45160  0.28880  0.22710  Biso   1.000  C
  H47      1.0000 0.43760  0.31030  0.21200  Biso   1.000  H
  H48      1.0000 0.45520  0.28850  0.29590  Biso   1.000  H
  C42      1.0000 0.44660  0.22310  0.23880  Biso   1.000  C
  H49      1.0000 0.44850  0.22520  0.30780  Biso   1.000  H
  H50      1.0000 0.43070  0.20290  0.22510  Biso   1.000  H
  C43      1.0000 0.56810  0.24560  0.00630  Biso   1.000  C
  C44      1.0000 0.57570  0.24630  0.11180  Biso   1.000  C
  H51      1.0000 0.58810  0.22410  0.12950  Biso   1.000  H
  H52      1.0000 0.59180  0.26640  0.12570  Biso   1.000  H
  C45      1.0000 0.39320  0.25890  0.24740  Biso   1.000  C
  C46      1.0000 0.63720  0.23590  0.81040  Biso   1.000  C
  H53      1.0000 0.63730  0.23370  0.74400  Biso   1.000  H
  C47      1.0000 0.60370  0.24080  0.95630  Biso   1.000  C
  C48      1.0000 0.60630  0.23760  0.85640  Biso   1.000  C
  H54      1.0000 0.58490  0.23670  0.82100  Biso   1.000  H
  C49      1.0000 0.33490  0.23570  0.27320  Biso   1.000  C
  H55      1.0000 0.31760  0.21830  0.25820  Biso   1.000  H
  C50      1.0000 0.38490  0.28450  0.31380  Biso   1.000  C
  H56      1.0000 0.40210  0.30180  0.33070  Biso   1.000  H
  C51      1.0000 0.36710  0.23560  0.22470  Biso   1.000  C
  H57      1.0000 0.37080  0.21910  0.17540  Biso   1.000  H
  C52      1.0000 0.35180  0.28490  0.35560  Biso   1.000  C
  H58      1.0000 0.34600  0.30390  0.39680  Biso   1.000  H
  C53      1.0000 0.66720  0.23950  0.94710  Biso   1.000  C
  H59      1.0000 0.68890  0.24020  0.98080  Biso   1.000  H
  C54      1.0000 0.63580  0.24130  0.99950  Biso   1.000  C
  H60      1.0000 0.63700  0.24280  0.06600  Biso   1.000  H
  Cu7      1.0000 0.21656  0.75819  0.32992  Biso   1.000  Cu
  Cu8      1.0000 0.28402  0.75892  0.29424  Biso   1.000  Cu
  I7       1.0000 0.25016  0.81907  0.34254  Biso   1.000  I
  I8       1.0000 0.25338  0.70145  0.38481  Biso   1.000  I
  Mn4      1.0000 0.50104  0.74893  0.60318  Biso   1.000  Mn
  Mo19     1.0000 0.53959  0.79626  0.43231  Biso   1.000  Mo
  Mo20     1.0000 0.50622  0.83743  0.62134  Biso   1.000  Mo
  Mo21     1.0000 0.46718  0.79052  0.79164  Biso   1.000  Mo
  Mo22     1.0000 0.53386  0.70775  0.41307  Biso   1.000  Mo
  Mo23     1.0000 0.49571  0.66039  0.58460  Biso   1.000  Mo
  Mo24     1.0000 0.46294  0.70219  0.77487  Biso   1.000  Mo
  O37      1.0000 0.48806  0.78914  0.52290  Biso   1.000  O
  O38      1.0000 0.45640  0.75013  0.66920  Biso   1.000  O
  O39      1.0000 0.54629  0.74863  0.53740  Biso   1.000  O
  O40      1.0000 0.51839  0.78469  0.70080  Biso   1.000  O
  O41      1.0000 0.51426  0.70790  0.68310  Biso   1.000  O
  O42      1.0000 0.54643  0.82284  0.54870  Biso   1.000  O
  O43      1.0000 0.51941  0.75526  0.37570  Biso   1.000  O
  O44      1.0000 0.46473  0.82281  0.68750  Biso   1.000  O
  O45      1.0000 0.45685  0.67622  0.65800  Biso   1.000  O
  O46      1.0000 0.48173  0.74430  0.82970  Biso   1.000  O
  O47      1.0000 0.48368  0.71268  0.50550  Biso   1.000  O
  O48      1.0000 0.53723  0.67501  0.51740  Biso   1.000  O
  N7       1.0000 0.33090  0.76290  0.35860  Biso   1.000  N
  N8       1.0000 0.67240  0.74040  0.84020  Biso   1.000  N
  C55      1.0000 0.57739  0.74410  0.59360  Biso   1.000  C
  H61      1.0000 0.59400  0.76380  0.57970  Biso   1.000  H
  H62      1.0000 0.58910  0.72170  0.57520  Biso   1.000  H
  C56      1.0000 0.57050  0.74330  0.70130  Biso   1.000  C
  C57      1.0000 0.45330  0.78860  0.47880  Biso   1.000  C
  H63      1.0000 0.45620  0.78950  0.40980  Biso   1.000  H
  H64      1.0000 0.43980  0.80990  0.49830  Biso   1.000  H
  C58      1.0000 0.44880  0.72080  0.46820  Biso   1.000  C
  H65      1.0000 0.43280  0.70050  0.48180  Biso   1.000  H
  H66      1.0000 0.45070  0.72290  0.39920  Biso   1.000  H
  C59      1.0000 0.54840  0.71120  0.72710  Biso   1.000  C
  H67      1.0000 0.56240  0.68970  0.71200  Biso   1.000  H
  H68      1.0000 0.54480  0.71150  0.79590  Biso   1.000  H
  C60      1.0000 0.55340  0.77690  0.73880  Biso   1.000  C
  H69      1.0000 0.55150  0.77480  0.80780  Biso   1.000  H
  H70      1.0000 0.56930  0.79710  0.72510  Biso   1.000  H
  C61      1.0000 0.43190  0.75440  0.50630  Biso   1.000  C
  C62      1.0000 0.42430  0.75370  0.61180  Biso   1.000  C
  H71      1.0000 0.41190  0.77590  0.62950  Biso   1.000  H
  H72      1.0000 0.40820  0.73360  0.62570  Biso   1.000  H
  C63      1.0000 0.60680  0.74110  0.74740  Biso   1.000  C
  C64      1.0000 0.36280  0.76410  0.31040  Biso   1.000  C
  H73      1.0000 0.36270  0.76630  0.24400  Biso   1.000  H
  C65      1.0000 0.39630  0.75920  0.45630  Biso   1.000  C
  C66      1.0000 0.39370  0.76240  0.35640  Biso   1.000  C
  H74      1.0000 0.41510  0.76330  0.32100  Biso   1.000  H
  C67      1.0000 0.66510  0.76430  0.77320  Biso   1.000  C
  H75      1.0000 0.68240  0.78170  0.75820  Biso   1.000  H
  C68      1.0000 0.61510  0.71550  0.81380  Biso   1.000  C
  H76      1.0000 0.59790  0.69820  0.83070  Biso   1.000  H
  C69      1.0000 0.63290  0.76440  0.72470  Biso   1.000  C
  H77      1.0000 0.62920  0.78090  0.67540  Biso   1.000  H
  C70      1.0000 0.64820  0.71510  0.85560  Biso   1.000  C
  H78      1.0000 0.65400  0.69610  0.89680  Biso   1.000  H
  C71      1.0000 0.33280  0.76050  0.44710  Biso   1.000  C
  H79      1.0000 0.31110  0.75980  0.48080  Biso   1.000  H
  C72      1.0000 0.36420  0.75870  0.49950  Biso   1.000  C
  H80      1.0000 0.36300  0.75720  0.56600  Biso   1.000  H
  Cu9      1.0000 0.75819  0.21656  0.67008  Biso   1.000  Cu
  Cu10     1.0000 0.75892  0.28402  0.70576  Biso   1.000  Cu
  I9       1.0000 0.81907  0.25016  0.65746  Biso   1.000  I
  I10      1.0000 0.70145  0.25338  0.61519  Biso   1.000  I
  Mn5      1.0000 0.74893  0.50104  0.39682  Biso   1.000  Mn
  Mo25     1.0000 0.79626  0.53959  0.56769  Biso   1.000  Mo
  Mo26     1.0000 0.83743  0.50622  0.37866  Biso   1.000  Mo
  Mo27     1.0000 0.79052  0.46718  0.20836  Biso   1.000  Mo
  Mo28     1.0000 0.70775  0.53386  0.58693  Biso   1.000  Mo
  Mo29     1.0000 0.66039  0.49571  0.41540  Biso   1.000  Mo
  Mo30     1.0000 0.70219  0.46294  0.22513  Biso   1.000  Mo
  O49      1.0000 0.78914  0.48806  0.47710  Biso   1.000  O
  O50      1.0000 0.75013  0.45640  0.33080  Biso   1.000  O
  O51      1.0000 0.74863  0.54629  0.46260  Biso   1.000  O
  O52      1.0000 0.78469  0.51839  0.29920  Biso   1.000  O
  O53      1.0000 0.70790  0.51426  0.31690  Biso   1.000  O
  O54      1.0000 0.82284  0.54643  0.45130  Biso   1.000  O
  O55      1.0000 0.75526  0.51941  0.62430  Biso   1.000  O
  O56      1.0000 0.82281  0.46473  0.31250  Biso   1.000  O
  O57      1.0000 0.67622  0.45685  0.34200  Biso   1.000  O
  O58      1.0000 0.74430  0.48173  0.17030  Biso   1.000  O
  O59      1.0000 0.71268  0.48368  0.49450  Biso   1.000  O
  O60      1.0000 0.67501  0.53723  0.48260  Biso   1.000  O
  N9       1.0000 0.76290  0.33090  0.64140  Biso   1.000  N
  N10      1.0000 0.74040  0.67240  0.15980  Biso   1.000  N
  C73      1.0000 0.74410  0.57739  0.40640  Biso   1.000  C
  H81      1.0000 0.76380  0.59400  0.42030  Biso   1.000  H
  H82      1.0000 0.72170  0.58910  0.42480  Biso   1.000  H
  C74      1.0000 0.74330  0.57050  0.29870  Biso   1.000  C
  C75      1.0000 0.78860  0.45330  0.52120  Biso   1.000  C
  H83      1.0000 0.78950  0.45620  0.59020  Biso   1.000  H
  H84      1.0000 0.80990  0.43980  0.50170  Biso   1.000  H
  C76      1.0000 0.72080  0.44880  0.53180  Biso   1.000  C
  H85      1.0000 0.70050  0.43280  0.51820  Biso   1.000  H
  H86      1.0000 0.72290  0.45070  0.60080  Biso   1.000  H
  C77      1.0000 0.71120  0.54840  0.27290  Biso   1.000  C
  H87      1.0000 0.68970  0.56240  0.28800  Biso   1.000  H
  H88      1.0000 0.71150  0.54480  0.20410  Biso   1.000  H
  C78      1.0000 0.77690  0.55340  0.26120  Biso   1.000  C
  H89      1.0000 0.77480  0.55150  0.19220  Biso   1.000  H
  H90      1.0000 0.79710  0.56930  0.27490  Biso   1.000  H
  C79      1.0000 0.75440  0.43190  0.49370  Biso   1.000  C
  C80      1.0000 0.75370  0.42430  0.38820  Biso   1.000  C
  H91      1.0000 0.77590  0.41190  0.37050  Biso   1.000  H
  H92      1.0000 0.73360  0.40820  0.37430  Biso   1.000  H
  C81      1.0000 0.74110  0.60680  0.25260  Biso   1.000  C
  C82      1.0000 0.76410  0.36280  0.68960  Biso   1.000  C
  H93      1.0000 0.76630  0.36270  0.75600  Biso   1.000  H
  C83      1.0000 0.75920  0.39630  0.54370  Biso   1.000  C
  C84      1.0000 0.76240  0.39370  0.64360  Biso   1.000  C
  H94      1.0000 0.76330  0.41510  0.67900  Biso   1.000  H
  C85      1.0000 0.76430  0.66510  0.22680  Biso   1.000  C
  H95      1.0000 0.78170  0.68240  0.24180  Biso   1.000  H
  C86      1.0000 0.71550  0.61510  0.18620  Biso   1.000  C
  H96      1.0000 0.69820  0.59790  0.16930  Biso   1.000  H
  C87      1.0000 0.76440  0.63290  0.27530  Biso   1.000  C
  H97      1.0000 0.78090  0.62920  0.32460  Biso   1.000  H
  C88      1.0000 0.71510  0.64820  0.14440  Biso   1.000  C
  H98      1.0000 0.69610  0.65400  0.10320  Biso   1.000  H
  C89      1.0000 0.76050  0.33280  0.55290  Biso   1.000  C
  H99      1.0000 0.75980  0.31110  0.51920  Biso   1.000  H
  C90      1.0000 0.75870  0.36420  0.50050  Biso   1.000  C
  H100     1.0000 0.75720  0.36300  0.43400  Biso   1.000  H
  Cu11     1.0000 0.24181  0.78344  0.17008  Biso   1.000  Cu
  Cu12     1.0000 0.24108  0.71598  0.20576  Biso   1.000  Cu
  I11      1.0000 0.18093  0.74984  0.15746  Biso   1.000  I
  I12      1.0000 0.29855  0.74662  0.11519  Biso   1.000  I
  Mn6      1.0000 0.25107  0.49896  0.89682  Biso   1.000  Mn
  Mo31     1.0000 0.20374  0.46041  0.06769  Biso   1.000  Mo
  Mo32     1.0000 0.16257  0.49378  0.87866  Biso   1.000  Mo
  Mo33     1.0000 0.20948  0.53282  0.70836  Biso   1.000  Mo
  Mo34     1.0000 0.29225  0.46614  0.08693  Biso   1.000  Mo
  Mo35     1.0000 0.33961  0.50429  0.91540  Biso   1.000  Mo
  Mo36     1.0000 0.29781  0.53706  0.72513  Biso   1.000  Mo
  O61      1.0000 0.21086  0.51194  0.97710  Biso   1.000  O
  O62      1.0000 0.24987  0.54360  0.83080  Biso   1.000  O
  O63      1.0000 0.25137  0.45371  0.96260  Biso   1.000  O
  O64      1.0000 0.21531  0.48161  0.79920  Biso   1.000  O
  O65      1.0000 0.29210  0.48574  0.81690  Biso   1.000  O
  O66      1.0000 0.17716  0.45357  0.95130  Biso   1.000  O
  O67      1.0000 0.24474  0.48059  0.12430  Biso   1.000  O
  O68      1.0000 0.17719  0.53527  0.81250  Biso   1.000  O
  O69      1.0000 0.32378  0.54315  0.84200  Biso   1.000  O
  O70      1.0000 0.25570  0.51827  0.67030  Biso   1.000  O
  O71      1.0000 0.28732  0.51632  0.99450  Biso   1.000  O
  O72      1.0000 0.32499  0.46277  0.98260  Biso   1.000  O
  N11      1.0000 0.23710  0.66910  0.14140  Biso   1.000  N
  N12      1.0000 0.25960  0.32760  0.65980  Biso   1.000  N
  C91      1.0000 0.25590  0.42261  0.90640  Biso   1.000  C
  H101     1.0000 0.23620  0.40600  0.92030  Biso   1.000  H
  H102     1.0000 0.27830  0.41090  0.92480  Biso   1.000  H
  C92      1.0000 0.25670  0.42950  0.79870  Biso   1.000  C
  C93      1.0000 0.21140  0.54670  0.02120  Biso   1.000  C
  H103     1.0000 0.21050  0.54380  0.09020  Biso   1.000  H
  H104     1.0000 0.19010  0.56020  0.00170  Biso   1.000  H
  C94      1.0000 0.27920  0.55120  0.03180  Biso   1.000  C
  H105     1.0000 0.29950  0.56720  0.01820  Biso   1.000  H
  H106     1.0000 0.27710  0.54930  0.10080  Biso   1.000  H
  C95      1.0000 0.28880  0.45160  0.77290  Biso   1.000  C
  H107     1.0000 0.31030  0.43760  0.78800  Biso   1.000  H
  H108     1.0000 0.28850  0.45520  0.70410  Biso   1.000  H
  C96      1.0000 0.22310  0.44660  0.76120  Biso   1.000  C
  H109     1.0000 0.22520  0.44850  0.69220  Biso   1.000  H
  H110     1.0000 0.20290  0.43070  0.77490  Biso   1.000  H
  C97      1.0000 0.24560  0.56810  0.99370  Biso   1.000  C
  C98      1.0000 0.24630  0.57570  0.88820  Biso   1.000  C
  H111     1.0000 0.22410  0.58810  0.87050  Biso   1.000  H
  H112     1.0000 0.26640  0.59180  0.87430  Biso   1.000  H
  C99      1.0000 0.25890  0.39320  0.75260  Biso   1.000  C
  C100     1.0000 0.23590  0.63720  0.18960  Biso   1.000  C
  H113     1.0000 0.23370  0.63730  0.25600  Biso   1.000  H
  C101     1.0000 0.24080  0.60370  0.04370  Biso   1.000  C
  C102     1.0000 0.23760  0.60630  0.14360  Biso   1.000  C
  H114     1.0000 0.23670  0.58490  0.17900  Biso   1.000  H
  C103     1.0000 0.23570  0.33490  0.72680  Biso   1.000  C
  H115     1.0000 0.21830  0.31760  0.74180  Biso   1.000  H
  C104     1.0000 0.28450  0.38490  0.68620  Biso   1.000  C
  H116     1.0000 0.30180  0.40210  0.66930  Biso   1.000  H
  C105     1.0000 0.23560  0.36710  0.77530  Biso   1.000  C
  H117     1.0000 0.21910  0.37080  0.82460  Biso   1.000  H
  C106     1.0000 0.28490  0.35180  0.64440  Biso   1.000  C
  H118     1.0000 0.30390  0.34600  0.60320  Biso   1.000  H
  C107     1.0000 0.23950  0.66720  0.05290  Biso   1.000  C
  H119     1.0000 0.24020  0.68890  0.01920  Biso   1.000  H
  C108     1.0000 0.24130  0.63580  0.00050  Biso   1.000  C
  H120     1.0000 0.24280  0.63700  0.93400  Biso   1.000  H
  Cu13     1.0000 0.71656  0.74181  0.92008  Biso   1.000  Cu
  Cu14     1.0000 0.78402  0.74108  0.95576  Biso   1.000  Cu
  I13      1.0000 0.75016  0.68093  0.90746  Biso   1.000  I
  I14      1.0000 0.75338  0.79855  0.86519  Biso   1.000  I
  Mn7      1.0000 0.00104  0.75107  0.64682  Biso   1.000  Mn
  Mo37     1.0000 0.03959  0.70374  0.81769  Biso   1.000  Mo
  Mo38     1.0000 0.00622  0.66257  0.62866  Biso   1.000  Mo
  Mo39     1.0000 0.96718  0.70948  0.45836  Biso   1.000  Mo
  Mo40     1.0000 0.03386  0.79225  0.83693  Biso   1.000  Mo
  Mo41     1.0000 0.99571  0.83961  0.66540  Biso   1.000  Mo
  Mo42     1.0000 0.96294  0.79781  0.47513  Biso   1.000  Mo
  O73      1.0000 0.98806  0.71086  0.72710  Biso   1.000  O
  O74      1.0000 0.95640  0.74987  0.58080  Biso   1.000  O
  O75      1.0000 0.04629  0.75137  0.71260  Biso   1.000  O
  O76      1.0000 0.01839  0.71531  0.54920  Biso   1.000  O
  O77      1.0000 0.01426  0.79210  0.56690  Biso   1.000  O
  O78      1.0000 0.04643  0.67716  0.70130  Biso   1.000  O
  O79      1.0000 0.01941  0.74474  0.87430  Biso   1.000  O
  O80      1.0000 0.96473  0.67719  0.56250  Biso   1.000  O
  O81      1.0000 0.95685  0.82378  0.59200  Biso   1.000  O
  O82      1.0000 0.98173  0.75570  0.42030  Biso   1.000  O
  O83      1.0000 0.98368  0.78732  0.74450  Biso   1.000  O
  O84      1.0000 0.03723  0.82499  0.73260  Biso   1.000  O
  N13      1.0000 0.83090  0.73710  0.89140  Biso   1.000  N
  N14      1.0000 0.17240  0.75960  0.40980  Biso   1.000  N
  C109     1.0000 0.07739  0.75590  0.65640  Biso   1.000  C
  H121     1.0000 0.09400  0.73620  0.67030  Biso   1.000  H
  H122     1.0000 0.08910  0.77830  0.67480  Biso   1.000  H
  C110     1.0000 0.07050  0.75670  0.54870  Biso   1.000  C
  C111     1.0000 0.95330  0.71140  0.77120  Biso   1.000  C
  H123     1.0000 0.95620  0.71050  0.84020  Biso   1.000  H
  H124     1.0000 0.93980  0.69010  0.75170  Biso   1.000  H
  C112     1.0000 0.94880  0.77920  0.78180  Biso   1.000  C
  H125     1.0000 0.93280  0.79950  0.76820  Biso   1.000  H
  H126     1.0000 0.95070  0.77710  0.85080  Biso   1.000  H
  C113     1.0000 0.04840  0.78880  0.52290  Biso   1.000  C
  H127     1.0000 0.06240  0.81030  0.53800  Biso   1.000  H
  H128     1.0000 0.04480  0.78850  0.45410  Biso   1.000  H
  C114     1.0000 0.05340  0.72310  0.51120  Biso   1.000  C
  H129     1.0000 0.05150  0.72520  0.44220  Biso   1.000  H
  H130     1.0000 0.06930  0.70290  0.52490  Biso   1.000  H
  C115     1.0000 0.93190  0.74560  0.74370  Biso   1.000  C
  C116     1.0000 0.92430  0.74630  0.63820  Biso   1.000  C
  H131     1.0000 0.91190  0.72410  0.62050  Biso   1.000  H
  H132     1.0000 0.90820  0.76640  0.62430  Biso   1.000  H
  C117     1.0000 0.10680  0.75890  0.50260  Biso   1.000  C
  C118     1.0000 0.86280  0.73590  0.93960  Biso   1.000  C
  H133     1.0000 0.86270  0.73370  0.00600  Biso   1.000  H
  C119     1.0000 0.89630  0.74080  0.79370  Biso   1.000  C
  C120     1.0000 0.89370  0.73760  0.89360  Biso   1.000  C
  H134     1.0000 0.91510  0.73670  0.92900  Biso   1.000  H
  C121     1.0000 0.16510  0.73570  0.47680  Biso   1.000  C
  H135     1.0000 0.18240  0.71830  0.49180  Biso   1.000  H
  C122     1.0000 0.11510  0.78450  0.43620  Biso   1.000  C
  H136     1.0000 0.09790  0.80180  0.41930  Biso   1.000  H
  C123     1.0000 0.13290  0.73560  0.52530  Biso   1.000  C
  H137     1.0000 0.12920  0.71910  0.57460  Biso   1.000  H
  C124     1.0000 0.14820  0.78490  0.39440  Biso   1.000  C
  H138     1.0000 0.15400  0.80390  0.35320  Biso   1.000  H
  C125     1.0000 0.83280  0.73950  0.80290  Biso   1.000  C
  H139     1.0000 0.81110  0.74020  0.76920  Biso   1.000  H
  C126     1.0000 0.86420  0.74130  0.75050  Biso   1.000  C
  H140     1.0000 0.86300  0.74280  0.68400  Biso   1.000  H
  Cu15     1.0000 0.28344  0.25819  0.42008  Biso   1.000  Cu
  Cu16     1.0000 0.21598  0.25892  0.45576  Biso   1.000  Cu
  I15      1.0000 0.24984  0.31907  0.40746  Biso   1.000  I
  I16      1.0000 0.24662  0.20145  0.36519  Biso   1.000  I
  Mn8      1.0000 0.99896  0.24893  0.14682  Biso   1.000  Mn
  Mo43     1.0000 0.96041  0.29626  0.31769  Biso   1.000  Mo
  Mo44     1.0000 0.99378  0.33743  0.12866  Biso   1.000  Mo
  Mo45     1.0000 0.03282  0.29052  0.95836  Biso   1.000  Mo
  Mo46     1.0000 0.96614  0.20775  0.33693  Biso   1.000  Mo
  Mo47     1.0000 0.00429  0.16039  0.16540  Biso   1.000  Mo
  Mo48     1.0000 0.03706  0.20219  0.97513  Biso   1.000  Mo
  O85      1.0000 0.01194  0.28914  0.22710  Biso   1.000  O
  O86      1.0000 0.04360  0.25013  0.08080  Biso   1.000  O
  O87      1.0000 0.95371  0.24863  0.21260  Biso   1.000  O
  O88      1.0000 0.98161  0.28469  0.04920  Biso   1.000  O
  O89      1.0000 0.98574  0.20790  0.06690  Biso   1.000  O
  O90      1.0000 0.95357  0.32284  0.20130  Biso   1.000  O
  O91      1.0000 0.98059  0.25526  0.37430  Biso   1.000  O
  O92      1.0000 0.03527  0.32281  0.06250  Biso   1.000  O
  O93      1.0000 0.04315  0.17622  0.09200  Biso   1.000  O
  O94      1.0000 0.01827  0.24430  0.92030  Biso   1.000  O
  O95      1.0000 0.01632  0.21268  0.24450  Biso   1.000  O
  O96      1.0000 0.96277  0.17501  0.23260  Biso   1.000  O
  N15      1.0000 0.16910  0.26290  0.39140  Biso   1.000  N
  N16      1.0000 0.82760  0.24040  0.90980  Biso   1.000  N
  C127     1.0000 0.92261  0.24410  0.15640  Biso   1.000  C
  H141     1.0000 0.90600  0.26380  0.17030  Biso   1.000  H
  H142     1.0000 0.91090  0.22170  0.17480  Biso   1.000  H
  C128     1.0000 0.92950  0.24330  0.04870  Biso   1.000  C
  C129     1.0000 0.04670  0.28860  0.27120  Biso   1.000  C
  H143     1.0000 0.04380  0.28950  0.34020  Biso   1.000  H
  H144     1.0000 0.06020  0.30990  0.25170  Biso   1.000  H
  C130     1.0000 0.05120  0.22080  0.28180  Biso   1.000  C
  H145     1.0000 0.06720  0.20050  0.26820  Biso   1.000  H
  H146     1.0000 0.04930  0.22290  0.35080  Biso   1.000  H
  C131     1.0000 0.95160  0.21120  0.02290  Biso   1.000  C
  H147     1.0000 0.93760  0.18970  0.03800  Biso   1.000  H
  H148     1.0000 0.95520  0.21150  0.95410  Biso   1.000  H
  C132     1.0000 0.94660  0.27690  0.01120  Biso   1.000  C
  H149     1.0000 0.94850  0.27480  0.94220  Biso   1.000  H
  H150     1.0000 0.93070  0.29710  0.02490  Biso   1.000  H
  C133     1.0000 0.06810  0.25440  0.24370  Biso   1.000  C
  C134     1.0000 0.07570  0.25370  0.13820  Biso   1.000  C
  H151     1.0000 0.08810  0.27590  0.12050  Biso   1.000  H
  H152     1.0000 0.09180  0.23360  0.12430  Biso   1.000  H
  C135     1.0000 0.89320  0.24110  0.00260  Biso   1.000  C
  C136     1.0000 0.13720  0.26410  0.43960  Biso   1.000  C
  H153     1.0000 0.13730  0.26630  0.50600  Biso   1.000  H
  C137     1.0000 0.10370  0.25920  0.29370  Biso   1.000  C
  C138     1.0000 0.10630  0.26240  0.39360  Biso   1.000  C
  H154     1.0000 0.08490  0.26330  0.42900  Biso   1.000  H
  C139     1.0000 0.83490  0.26430  0.97680  Biso   1.000  C
  H155     1.0000 0.81760  0.28170  0.99180  Biso   1.000  H
  C140     1.0000 0.88490  0.21550  0.93620  Biso   1.000  C
  H156     1.0000 0.90210  0.19820  0.91930  Biso   1.000  H
  C141     1.0000 0.86710  0.26440  0.02530  Biso   1.000  C
  H157     1.0000 0.87080  0.28090  0.07460  Biso   1.000  H
  C142     1.0000 0.85180  0.21510  0.89440  Biso   1.000  C
  H158     1.0000 0.84600  0.19610  0.85320  Biso   1.000  H
  C143     1.0000 0.16720  0.26050  0.30290  Biso   1.000  C
  H159     1.0000 0.18890  0.25980  0.26920  Biso   1.000  H
  C144     1.0000 0.13580  0.25870  0.25050  Biso   1.000  C
  H160     1.0000 0.13700  0.25720  0.18400  Biso   1.000  H
