data_image0
_cell_length_a       8.642
_cell_length_b       8.719
_cell_length_c       12.049
_cell_angle_alpha    85.144
_cell_angle_beta     80.757
_cell_angle_gamma    80.71

_symmetry_space_group_name_H-M    "P 1"
_symmetry_int_tables_number       1

loop_
  _symmetry_equiv_pos_as_xyz
  'x, y, z'

loop_
  _atom_site_label
  _atom_site_occupancy
  _atom_site_fract_x
  _atom_site_fract_y
  _atom_site_fract_z
  _atom_site_thermal_displace_type
  _atom_site_B_iso_or_equiv
  _atom_site_type_symbol
  P1       1.0000 0.16336  0.64443  0.74140  Biso   1.000  P
  P2       1.0000 0.22471  0.05180  0.93730  Biso   1.000  P
  P3       1.0000 0.04307  0.10871  0.63736  Biso   1.000  P
  P4       1.0000 0.53495  0.15429  0.65681  Biso   1.000  P
  Be1      1.0000 0.97820  0.91980  0.84140  Biso   1.000  Be
  Be2      1.0000 0.81090  0.17390  0.47260  Biso   1.000  Be
  Be3      1.0000 0.22250  0.29790  0.75470  Biso   1.000  Be
  O1       1.0000 0.01490  0.74210  0.79900  Biso   1.000  O
  O2       1.0000 0.15350  0.47700  0.77530  Biso   1.000  O
  O3       1.0000 0.18830  0.67040  0.61470  Biso   1.000  O
  O4       1.0000 0.31000  0.68610  0.78740  Biso   1.000  O
  H1       1.0000 0.31840  0.77770  0.76990  Biso   1.000  H
  O5       1.0000 0.22310  0.20910  0.87650  Biso   1.000  O
  O6       1.0000 0.40200  0.96550  0.92460  Biso   1.000  O
  H2       1.0000 0.40460  0.87910  0.95760  Biso   1.000  H
  O7       1.0000 0.13990  0.94580  0.88390  Biso   1.000  O
  O8       1.0000 0.17130  0.06320  0.06190  Biso   1.000  O
  O9       1.0000 0.11180  0.23940  0.67730  Biso   1.000  O
  O10      1.0000 0.93140  0.03890  0.73440  Biso   1.000  O
  O11      1.0000 0.18010  0.98170  0.59460  Biso   1.000  O
  O12      1.0000 0.95080  0.17790  0.54330  Biso   1.000  O
  O13      1.0000 0.40330  0.28640  0.68560  Biso   1.000  O
  O14      1.0000 0.46920  0.00380  0.64230  Biso   1.000  O
  H3       1.0000 0.41140  0.98100  0.70020  Biso   1.000  H
  O15      1.0000 0.62850  0.11190  0.75760  Biso   1.000  O
  H4       1.0000 0.56830  0.08650  0.81350  Biso   1.000  H
  O16      1.0000 0.64100  0.20090  0.55370  Biso   1.000  O
  P5       1.0000 0.83664  0.35557  0.25860  Biso   1.000  P
  P6       1.0000 0.77529  0.94820  0.06270  Biso   1.000  P
  P7       1.0000 0.95693  0.89129  0.36264  Biso   1.000  P
  P8       1.0000 0.46505  0.84571  0.34319  Biso   1.000  P
  Be4      1.0000 0.02180  0.08020  0.15860  Biso   1.000  Be
  Be5      1.0000 0.18910  0.82610  0.52740  Biso   1.000  Be
  Be6      1.0000 0.77750  0.70210  0.24530  Biso   1.000  Be
  O17      1.0000 0.98510  0.25790  0.20100  Biso   1.000  O
  O18      1.0000 0.84650  0.52300  0.22470  Biso   1.000  O
  O19      1.0000 0.81170  0.32960  0.38530  Biso   1.000  O
  O20      1.0000 0.69000  0.31390  0.21260  Biso   1.000  O
  H5       1.0000 0.68160  0.22230  0.23010  Biso   1.000  H
  O21      1.0000 0.77690  0.79090  0.12350  Biso   1.000  O
  O22      1.0000 0.59800  0.03450  0.07540  Biso   1.000  O
  H6       1.0000 0.59540  0.12090  0.04240  Biso   1.000  H
  O23      1.0000 0.86010  0.05420  0.11610  Biso   1.000  O
  O24      1.0000 0.82870  0.93680  0.93810  Biso   1.000  O
  O25      1.0000 0.88820  0.76060  0.32270  Biso   1.000  O
  O26      1.0000 0.06860  0.96110  0.26560  Biso   1.000  O
  O27      1.0000 0.81990  0.01830  0.40540  Biso   1.000  O
  O28      1.0000 0.04920  0.82210  0.45670  Biso   1.000  O
  O29      1.0000 0.59670  0.71360  0.31440  Biso   1.000  O
  O30      1.0000 0.53080  0.99620  0.35770  Biso   1.000  O
  H7       1.0000 0.58860  0.01900  0.29980  Biso   1.000  H
  O31      1.0000 0.37150  0.88810  0.24240  Biso   1.000  O
  H8       1.0000 0.43170  0.91350  0.18650  Biso   1.000  H
  O32      1.0000 0.35900  0.79910  0.44630  Biso   1.000  O
