data_image0
_cell_length_a       6.765
_cell_length_b       11.482
_cell_length_c       17.858
_cell_angle_alpha    90
_cell_angle_beta     104.06
_cell_angle_gamma    90

_symmetry_space_group_name_H-M    "P 1"
_symmetry_int_tables_number       1

loop_
  _symmetry_equiv_pos_as_xyz
  'x, y, z'

loop_
  _atom_site_label
  _atom_site_occupancy
  _atom_site_fract_x
  _atom_site_fract_y
  _atom_site_fract_z
  _atom_site_thermal_displace_type
  _atom_site_B_iso_or_equiv
  _atom_site_type_symbol
  C1       1.0000 0.19350  0.93640  0.11200  Biso   1.000  C
  C2       1.0000 0.21910  0.84040  0.17160  Biso   1.000  C
  C3       1.0000 0.21760  0.72470  0.14630  Biso   1.000  C
  H1       1.0000 0.19850  0.70770  0.09410  Biso   1.000  H
  C4       1.0000 0.24540  0.63520  0.20120  Biso   1.000  C
  C5       1.0000 0.27050  0.65890  0.27910  Biso   1.000  C
  H2       1.0000 0.29000  0.59870  0.31500  Biso   1.000  H
  C6       1.0000 0.26620  0.77510  0.30290  Biso   1.000  C
  C7       1.0000 0.24200  0.86440  0.25010  Biso   1.000  C
  H3       1.0000 0.24070  0.94110  0.26670  Biso   1.000  H
  C8       1.0000 0.28340  0.79800  0.38780  Biso   1.000  C
  C9       1.0000 0.11530  0.48390  0.11280  Biso   1.000  C
  H4       1.0000 0.13200  0.53080  0.06960  Biso   1.000  H
  H5       1.0000 0.97880  0.49660  0.11940  Biso   1.000  H
  C10      1.0000 0.14220  0.35720  0.09590  Biso   1.000  C
  Cd1      1.0000 0.79595  0.85558  0.97215  Biso   1.000  Cd
  O1       1.0000 0.21250  0.04160  0.13740  Biso   1.000  O
  O2       1.0000 0.16220  0.91250  0.04130  Biso   1.000  O
  O3       1.0000 0.25210  0.90280  0.40730  Biso   1.000  O
  O4       1.0000 0.31640  0.71730  0.43530  Biso   1.000  O
  O5       1.0000 0.26070  0.51870  0.18090  Biso   1.000  O
  O6       1.0000 0.01770  0.31180  0.03910  Biso   1.000  O
  O7       1.0000 0.29210  0.30270  0.13360  Biso   1.000  O
  C11      1.0000 0.80650  0.93640  0.38800  Biso   1.000  C
  C12      1.0000 0.78090  0.84040  0.32840  Biso   1.000  C
  C13      1.0000 0.78240  0.72470  0.35370  Biso   1.000  C
  H6       1.0000 0.80150  0.70770  0.40590  Biso   1.000  H
  C14      1.0000 0.75460  0.63520  0.29880  Biso   1.000  C
  C15      1.0000 0.72950  0.65890  0.22090  Biso   1.000  C
  H7       1.0000 0.71000  0.59870  0.18500  Biso   1.000  H
  C16      1.0000 0.73380  0.77510  0.19710  Biso   1.000  C
  C17      1.0000 0.75800  0.86440  0.24990  Biso   1.000  C
  H8       1.0000 0.75930  0.94110  0.23330  Biso   1.000  H
  C18      1.0000 0.71660  0.79800  0.11220  Biso   1.000  C
  C19      1.0000 0.88470  0.48390  0.38720  Biso   1.000  C
  H9       1.0000 0.86800  0.53080  0.43040  Biso   1.000  H
  H10      1.0000 0.02120  0.49660  0.38060  Biso   1.000  H
  C20      1.0000 0.85780  0.35720  0.40410  Biso   1.000  C
  Cd2      1.0000 0.20405  0.85558  0.52785  Biso   1.000  Cd
  O8       1.0000 0.78750  0.04160  0.36260  Biso   1.000  O
  O9       1.0000 0.83780  0.91250  0.45870  Biso   1.000  O
  O10      1.0000 0.74790  0.90280  0.09270  Biso   1.000  O
  O11      1.0000 0.68360  0.71730  0.06470  Biso   1.000  O
  O12      1.0000 0.73930  0.51870  0.31910  Biso   1.000  O
  O13      1.0000 0.98230  0.31180  0.46090  Biso   1.000  O
  O14      1.0000 0.70790  0.30270  0.36640  Biso   1.000  O
  C21      1.0000 0.80650  0.06360  0.88800  Biso   1.000  C
  C22      1.0000 0.78090  0.15960  0.82840  Biso   1.000  C
  C23      1.0000 0.78240  0.27530  0.85370  Biso   1.000  C
  H11      1.0000 0.80150  0.29230  0.90590  Biso   1.000  H
  C24      1.0000 0.75460  0.36480  0.79880  Biso   1.000  C
  C25      1.0000 0.72950  0.34110  0.72090  Biso   1.000  C
  H12      1.0000 0.71000  0.40130  0.68500  Biso   1.000  H
  C26      1.0000 0.73380  0.22490  0.69710  Biso   1.000  C
  C27      1.0000 0.75800  0.13560  0.74990  Biso   1.000  C
  H13      1.0000 0.75930  0.05890  0.73330  Biso   1.000  H
  C28      1.0000 0.71660  0.20200  0.61220  Biso   1.000  C
  C29      1.0000 0.88470  0.51610  0.88720  Biso   1.000  C
  H14      1.0000 0.86800  0.46920  0.93040  Biso   1.000  H
  H15      1.0000 0.02120  0.50340  0.88060  Biso   1.000  H
  C30      1.0000 0.85780  0.64280  0.90410  Biso   1.000  C
  Cd3      1.0000 0.20405  0.14442  0.02785  Biso   1.000  Cd
  O15      1.0000 0.78750  0.95840  0.86260  Biso   1.000  O
  O16      1.0000 0.83780  0.08750  0.95870  Biso   1.000  O
  O17      1.0000 0.74790  0.09720  0.59270  Biso   1.000  O
  O18      1.0000 0.68360  0.28270  0.56470  Biso   1.000  O
  O19      1.0000 0.73930  0.48130  0.81910  Biso   1.000  O
  O20      1.0000 0.98230  0.68820  0.96090  Biso   1.000  O
  O21      1.0000 0.70790  0.69730  0.86640  Biso   1.000  O
  C31      1.0000 0.19350  0.06360  0.61200  Biso   1.000  C
  C32      1.0000 0.21910  0.15960  0.67160  Biso   1.000  C
  C33      1.0000 0.21760  0.27530  0.64630  Biso   1.000  C
  H16      1.0000 0.19850  0.29230  0.59410  Biso   1.000  H
  C34      1.0000 0.24540  0.36480  0.70120  Biso   1.000  C
  C35      1.0000 0.27050  0.34110  0.77910  Biso   1.000  C
  H17      1.0000 0.29000  0.40130  0.81500  Biso   1.000  H
  C36      1.0000 0.26620  0.22490  0.80290  Biso   1.000  C
  C37      1.0000 0.24200  0.13560  0.75010  Biso   1.000  C
  H18      1.0000 0.24070  0.05890  0.76670  Biso   1.000  H
  C38      1.0000 0.28340  0.20200  0.88780  Biso   1.000  C
  C39      1.0000 0.11530  0.51610  0.61280  Biso   1.000  C
  H19      1.0000 0.13200  0.46920  0.56960  Biso   1.000  H
  H20      1.0000 0.97880  0.50340  0.61940  Biso   1.000  H
  C40      1.0000 0.14220  0.64280  0.59590  Biso   1.000  C
  Cd4      1.0000 0.79595  0.14442  0.47215  Biso   1.000  Cd
  O22      1.0000 0.21250  0.95840  0.63740  Biso   1.000  O
  O23      1.0000 0.16220  0.08750  0.54130  Biso   1.000  O
  O24      1.0000 0.25210  0.09720  0.90730  Biso   1.000  O
  O25      1.0000 0.31640  0.28270  0.93530  Biso   1.000  O
  O26      1.0000 0.26070  0.48130  0.68090  Biso   1.000  O
  O27      1.0000 0.01770  0.68820  0.53910  Biso   1.000  O
  O28      1.0000 0.29210  0.69730  0.63360  Biso   1.000  O
  Cd5      1.0000 0.50000  0.35121  0.25000  Biso   1.000  Cd
  Cd6      1.0000 0.50000  0.64879  0.75000  Biso   1.000  Cd
