data_image0
_cell_length_a       9.6547
_cell_length_b       11.3195
_cell_length_c       11.9856
_cell_angle_alpha    114.773
_cell_angle_beta     91.448
_cell_angle_gamma    106.416

_symmetry_space_group_name_H-M    "P 1"
_symmetry_int_tables_number       1

loop_
  _symmetry_equiv_pos_as_xyz
  'x, y, z'

loop_
  _atom_site_label
  _atom_site_occupancy
  _atom_site_fract_x
  _atom_site_fract_y
  _atom_site_fract_z
  _atom_site_thermal_displace_type
  _atom_site_B_iso_or_equiv
  _atom_site_type_symbol
  O1       1.0000 0.10260  0.90870  0.06210  Biso   1.000  O
  C1       1.0000 0.98570  0.89730  0.10780  Biso   1.000  C
  C2       1.0000 0.32590  0.65340  0.02620  Biso   1.000  C
  C3       1.0000 0.98370  0.86280  0.21690  Biso   1.000  C
  C4       1.0000 0.17580  0.62400  0.99810  Biso   1.000  C
  H1       1.0000 0.13960  0.67500  0.96820  Biso   1.000  H
  C5       1.0000 0.10890  0.85990  0.27160  Biso   1.000  C
  H2       1.0000 0.19600  0.87840  0.24110  Biso   1.000  H
  C6       1.0000 0.43300  0.76350  0.00610  Biso   1.000  C
  C7       1.0000 0.08070  0.51810  0.01520  Biso   1.000  C
  C8       1.0000 0.38740  0.85820  0.61340  Biso   1.000  C
  C9       1.0000 0.25670  0.85470  0.55880  Biso   1.000  C
  H3       1.0000 0.18200  0.86940  0.60500  Biso   1.000  H
  C10      1.0000 0.27170  0.47370  0.08850  Biso   1.000  C
  H4       1.0000 0.30520  0.42280  0.12030  Biso   1.000  H
  C11      1.0000 0.37430  0.57590  0.07220  Biso   1.000  C
  H5       1.0000 0.47390  0.59230  0.09170  Biso   1.000  H
  C12      1.0000 0.10470  0.82940  0.37230  Biso   1.000  C
  C13      1.0000 0.23910  0.82880  0.43440  Biso   1.000  C
  C14      1.0000 0.41500  0.89470  0.74970  Biso   1.000  C
  C15      1.0000 0.49350  0.83270  0.54060  Biso   1.000  C
  H6       1.0000 0.58100  0.83130  0.57340  Biso   1.000  H
  C16      1.0000 0.85630  0.83310  0.26360  Biso   1.000  C
  H7       1.0000 0.76950  0.83390  0.22900  Biso   1.000  H
  C17      1.0000 0.46790  0.80940  0.41860  Biso   1.000  C
  H8       1.0000 0.54090  0.79330  0.37070  Biso   1.000  H
  C18      1.0000 0.86110  0.80190  0.36330  Biso   1.000  C
  H9       1.0000 0.77440  0.78050  0.39350  Biso   1.000  H
  Eu1      1.0000 0.69158  0.95540  0.97139  Biso   1.000  Eu
  N1       1.0000 0.98180  0.80050  0.41920  Biso   1.000  N
  N2       1.0000 0.34430  0.80840  0.36450  Biso   1.000  N
  N3       1.0000 0.12790  0.44370  0.06140  Biso   1.000  N
  O2       1.0000 0.39680  0.85950  0.00070  Biso   1.000  O
  O3       1.0000 0.32010  0.93130  0.81370  Biso   1.000  O
  O4       1.0000 0.55990  0.75710  0.99440  Biso   1.000  O
  O5       1.0000 0.87400  0.91270  0.07100  Biso   1.000  O
  O6       1.0000 0.53270  0.88650  0.78910  Biso   1.000  O
  O7       1.0000 0.89740  0.09130  0.93790  Biso   1.000  O
  C19      1.0000 0.01430  0.10270  0.89220  Biso   1.000  C
  C20      1.0000 0.67410  0.34660  0.97380  Biso   1.000  C
  C21      1.0000 0.01630  0.13720  0.78310  Biso   1.000  C
  C22      1.0000 0.82420  0.37600  0.00190  Biso   1.000  C
  H10      1.0000 0.86040  0.32500  0.03180  Biso   1.000  H
  C23      1.0000 0.89110  0.14010  0.72840  Biso   1.000  C
  H11      1.0000 0.80400  0.12160  0.75890  Biso   1.000  H
  C24      1.0000 0.56700  0.23650  0.99390  Biso   1.000  C
  C25      1.0000 0.91930  0.48190  0.98480  Biso   1.000  C
  C26      1.0000 0.61260  0.14180  0.38660  Biso   1.000  C
  C27      1.0000 0.74330  0.14530  0.44120  Biso   1.000  C
  H12      1.0000 0.81800  0.13060  0.39500  Biso   1.000  H
  C28      1.0000 0.72830  0.52630  0.91150  Biso   1.000  C
  H13      1.0000 0.69480  0.57720  0.87970  Biso   1.000  H
  C29      1.0000 0.62570  0.42410  0.92780  Biso   1.000  C
  H14      1.0000 0.52610  0.40770  0.90830  Biso   1.000  H
  C30      1.0000 0.89530  0.17060  0.62770  Biso   1.000  C
  C31      1.0000 0.76090  0.17120  0.56560  Biso   1.000  C
  C32      1.0000 0.58500  0.10530  0.25030  Biso   1.000  C
  C33      1.0000 0.50650  0.16730  0.45940  Biso   1.000  C
  H15      1.0000 0.41900  0.16870  0.42660  Biso   1.000  H
  C34      1.0000 0.14370  0.16690  0.73640  Biso   1.000  C
  H16      1.0000 0.23050  0.16610  0.77100  Biso   1.000  H
  C35      1.0000 0.53210  0.19060  0.58140  Biso   1.000  C
  H17      1.0000 0.45910  0.20670  0.62930  Biso   1.000  H
  C36      1.0000 0.13890  0.19810  0.63670  Biso   1.000  C
  H18      1.0000 0.22560  0.21950  0.60650  Biso   1.000  H
  Eu2      1.0000 0.30842  0.04460  0.02861  Biso   1.000  Eu
  N4       1.0000 0.01820  0.19950  0.58080  Biso   1.000  N
  N5       1.0000 0.65570  0.19160  0.63550  Biso   1.000  N
  N6       1.0000 0.87210  0.55630  0.93860  Biso   1.000  N
  O8       1.0000 0.60320  0.14050  0.99930  Biso   1.000  O
  O9       1.0000 0.67990  0.06870  0.18630  Biso   1.000  O
  O10      1.0000 0.44010  0.24290  0.00560  Biso   1.000  O
  O11      1.0000 0.12600  0.08730  0.92900  Biso   1.000  O
  O12      1.0000 0.46730  0.11350  0.21090  Biso   1.000  O
