data_image0
_cell_length_a       14.7883
_cell_length_b       19.4401
_cell_length_c       19.3386
_cell_angle_alpha    90
_cell_angle_beta     99.722
_cell_angle_gamma    90

_symmetry_space_group_name_H-M    "P 1"
_symmetry_int_tables_number       1

loop_
  _symmetry_equiv_pos_as_xyz
  'x, y, z'

loop_
  _atom_site_label
  _atom_site_occupancy
  _atom_site_fract_x
  _atom_site_fract_y
  _atom_site_fract_z
  _atom_site_thermal_displace_type
  _atom_site_B_iso_or_equiv
  _atom_site_type_symbol
  C1       1.0000 0.01310  0.43090  0.30150  Biso   1.000  C
  C2       1.0000 0.12050  0.53260  0.48880  Biso   1.000  C
  C3       1.0000 0.31880  0.52060  0.42420  Biso   1.000  C
  C4       1.0000 0.96970  0.15090  0.19910  Biso   1.000  C
  C5       1.0000 0.06920  0.32530  0.24890  Biso   1.000  C
  H1       1.0000 0.12370  0.34860  0.24720  Biso   1.000  H
  C6       1.0000 0.99820  0.35860  0.27450  Biso   1.000  C
  C7       1.0000 0.41120  0.51130  0.46270  Biso   1.000  C
  C8       1.0000 0.43700  0.44910  0.49640  Biso   1.000  C
  H2       1.0000 0.39300  0.41460  0.49390  Biso   1.000  H
  C9       1.0000 0.97890  0.22290  0.22660  Biso   1.000  C
  C10      1.0000 0.39920  0.22250  0.36230  Biso   1.000  C
  H3       1.0000 0.37430  0.18030  0.37190  Biso   1.000  H
  C11      1.0000 0.05900  0.25810  0.22620  Biso   1.000  C
  H4       1.0000 0.10760  0.23620  0.21030  Biso   1.000  H
  C12      1.0000 0.47730  0.56460  0.46710  Biso   1.000  C
  C13      1.0000 0.90670  0.25510  0.25270  Biso   1.000  C
  C14      1.0000 0.64650  0.49280  0.33350  Biso   1.000  C
  C15      1.0000 0.52310  0.28730  0.33320  Biso   1.000  C
  H5       1.0000 0.58170  0.28940  0.32180  Biso   1.000  H
  C16      1.0000 0.50660  0.41810  0.32240  Biso   1.000  C
  C17      1.0000 0.13910  0.37250  0.49890  Biso   1.000  C
  H6       1.0000 0.18630  0.40450  0.50810  Biso   1.000  H
  C18      1.0000 0.91780  0.32360  0.27640  Biso   1.000  C
  C19      1.0000 0.38350  0.34520  0.35120  Biso   1.000  C
  H7       1.0000 0.34880  0.38500  0.35220  Biso   1.000  H
  C20      1.0000 0.00350  0.32880  0.52050  Biso   1.000  C
  H8       1.0000 0.95580  0.32900  0.54620  Biso   1.000  H
  C21      1.0000 0.74130  0.49260  0.35410  Biso   1.000  C
  H9       1.0000 0.76890  0.45170  0.37120  Biso   1.000  H
  C22      1.0000 0.53680  0.15780  0.34790  Biso   1.000  C
  C23      1.0000 0.47400  0.34780  0.33650  Biso   1.000  C
  C24      1.0000 0.34840  0.28120  0.36420  Biso   1.000  C
  C25      1.0000 0.73290  0.99150  0.35000  Biso   1.000  C
  H10      1.0000 0.74420  0.95720  0.38390  Biso   1.000  H
  C26      1.0000 0.65670  0.09190  0.30670  Biso   1.000  C
  C27      1.0000 0.77410  0.98910  0.29300  Biso   1.000  C
  H11      1.0000 0.81470  0.95340  0.28910  Biso   1.000  H
  C28      1.0000 0.48730  0.22470  0.34620  Biso   1.000  C
  C29      1.0000 0.70160  0.08630  0.25040  Biso   1.000  C
  H12      1.0000 0.69140  0.11980  0.21570  Biso   1.000  H
  C30      1.0000 0.67390  0.04470  0.35820  Biso   1.000  C
  H13      1.0000 0.64680  0.04790  0.39810  Biso   1.000  H
  C31      1.0000 0.75370  0.60550  0.32610  Biso   1.000  C
  H14      1.0000 0.78950  0.64430  0.32280  Biso   1.000  H
  C32      1.0000 0.60550  0.55320  0.30980  Biso   1.000  C
  H15      1.0000 0.54210  0.55580  0.29680  Biso   1.000  H
  C33      1.0000 0.65920  0.61020  0.30520  Biso   1.000  C
  H16      1.0000 0.63250  0.65150  0.28840  Biso   1.000  H
  C34      1.0000 0.14220  0.32450  0.44570  Biso   1.000  C
  C35      1.0000 0.06950  0.27950  0.42820  Biso   1.000  C
  H17      1.0000 0.06740  0.24890  0.39100  Biso   1.000  H
  C36      1.0000 0.00000  0.28170  0.46760  Biso   1.000  C
  H18      1.0000 0.95100  0.25120  0.45830  Biso   1.000  H
  C37      1.0000 0.25760  0.27170  0.38580  Biso   1.000  C
  Co1      1.0000 0.94135  0.54424  0.38753  Biso   1.000  Co
  Co2      1.0000 0.16560  0.53489  0.34340  Biso   1.000  Co
  H19      1.0000 0.19600  0.53700  0.49900  Biso   1.000  H
  N1       1.0000 0.07180  0.37510  0.53760  Biso   1.000  N
  N2       1.0000 0.21850  0.32730  0.41060  Biso   1.000  N
  H20      1.0000 0.24160  0.36700  0.40450  Biso   1.000  H
  N3       1.0000 0.79500  0.54690  0.35090  Biso   1.000  N
  N4       1.0000 0.59980  0.43090  0.34030  Biso   1.000  N
  H21      1.0000 0.63320  0.39680  0.35770  Biso   1.000  H
  N5       1.0000 0.75930  0.03490  0.24300  Biso   1.000  N
  N6       1.0000 0.60070  0.15040  0.30860  Biso   1.000  N
  H22      1.0000 0.60890  0.18410  0.28170  Biso   1.000  H
  N7       1.0000 0.45830  0.62920  0.44010  Biso   1.000  N
  H23      1.0000 0.49990  0.66060  0.44620  Biso   1.000  H
  H24      1.0000 0.40470  0.63850  0.41710  Biso   1.000  H
  N8       1.0000 0.84480  0.35070  0.29810  Biso   1.000  N
  H25      1.0000 0.84620  0.39280  0.31210  Biso   1.000  H
  H26      1.0000 0.79640  0.32630  0.29810  Biso   1.000  H
  N9       1.0000 0.82560  0.22880  0.26460  Biso   1.000  N
  H27      1.0000 0.81280  0.18620  0.25580  Biso   1.000  H
  H28      1.0000 0.78710  0.25480  0.28100  Biso   1.000  H
  O1       1.0000 0.51780  0.11070  0.38580  Biso   1.000  O
  O2       1.0000 0.22320  0.21380  0.38770  Biso   1.000  O
  O3       1.0000 0.45340  0.46330  0.29720  Biso   1.000  O
  O4       1.0000 0.03850  0.12184  0.18018  Biso   1.000  O
  O5       1.0000 0.89020  0.12408  0.19470  Biso   1.000  O
  O6       1.0000 0.94800  0.46199  0.32108  Biso   1.000  O
  O7       1.0000 0.09140  0.45649  0.29940  Biso   1.000  O
  O8       1.0000 0.26570  0.46852  0.40791  Biso   1.000  O
  O9       1.0000 0.28800  0.58022  0.40466  Biso   1.000  O
  O10      1.0000 0.08540  0.54014  0.42600  Biso   1.000  O
  O11      1.0000 0.08060  0.53181  0.54047  Biso   1.000  O
  C38      1.0000 0.98690  0.93090  0.19850  Biso   1.000  C
  C39      1.0000 0.87950  0.03260  0.01120  Biso   1.000  C
  C40      1.0000 0.68120  0.02060  0.07580  Biso   1.000  C
  C41      1.0000 0.03030  0.65090  0.30090  Biso   1.000  C
  C42      1.0000 0.93080  0.82530  0.25110  Biso   1.000  C
  H29      1.0000 0.87630  0.84860  0.25280  Biso   1.000  H
  C43      1.0000 0.00180  0.85860  0.22550  Biso   1.000  C
  C44      1.0000 0.58880  0.01130  0.03730  Biso   1.000  C
  C45      1.0000 0.56300  0.94910  0.00360  Biso   1.000  C
  H30      1.0000 0.60700  0.91460  0.00610  Biso   1.000  H
  C46      1.0000 0.02110  0.72290  0.27340  Biso   1.000  C
  C47      1.0000 0.60080  0.72250  0.13770  Biso   1.000  C
  H31      1.0000 0.62570  0.68030  0.12810  Biso   1.000  H
  C48      1.0000 0.94100  0.75810  0.27380  Biso   1.000  C
  H32      1.0000 0.89240  0.73620  0.28970  Biso   1.000  H
  C49      1.0000 0.52270  0.06460  0.03290  Biso   1.000  C
  C50      1.0000 0.09330  0.75510  0.24730  Biso   1.000  C
  C51      1.0000 0.35350  0.99280  0.16650  Biso   1.000  C
  C52      1.0000 0.47690  0.78730  0.16680  Biso   1.000  C
  H33      1.0000 0.41830  0.78940  0.17820  Biso   1.000  H
  C53      1.0000 0.49340  0.91810  0.17760  Biso   1.000  C
  C54      1.0000 0.86090  0.87250  0.00110  Biso   1.000  C
  H34      1.0000 0.81370  0.90450  0.99190  Biso   1.000  H
  C55      1.0000 0.08220  0.82360  0.22360  Biso   1.000  C
  C56      1.0000 0.61650  0.84520  0.14880  Biso   1.000  C
  H35      1.0000 0.65120  0.88500  0.14780  Biso   1.000  H
  C57      1.0000 0.99650  0.82880  0.97950  Biso   1.000  C
  H36      1.0000 0.04420  0.82900  0.95380  Biso   1.000  H
  C58      1.0000 0.25870  0.99260  0.14590  Biso   1.000  C
  H37      1.0000 0.23110  0.95170  0.12880  Biso   1.000  H
  C59      1.0000 0.46320  0.65780  0.15210  Biso   1.000  C
  C60      1.0000 0.52600  0.84780  0.16350  Biso   1.000  C
  C61      1.0000 0.65160  0.78120  0.13580  Biso   1.000  C
  C62      1.0000 0.26710  0.49150  0.15000  Biso   1.000  C
  H38      1.0000 0.25580  0.45720  0.11610  Biso   1.000  H
  C63      1.0000 0.34330  0.59190  0.19330  Biso   1.000  C
  C64      1.0000 0.22590  0.48910  0.20700  Biso   1.000  C
  H39      1.0000 0.18530  0.45340  0.21090  Biso   1.000  H
  C65      1.0000 0.51270  0.72470  0.15380  Biso   1.000  C
  C66      1.0000 0.29840  0.58630  0.24960  Biso   1.000  C
  H40      1.0000 0.30860  0.61980  0.28430  Biso   1.000  H
  C67      1.0000 0.32610  0.54470  0.14180  Biso   1.000  C
  H41      1.0000 0.35320  0.54790  0.10190  Biso   1.000  H
  C68      1.0000 0.24630  0.10550  0.17390  Biso   1.000  C
  H42      1.0000 0.21050  0.14430  0.17720  Biso   1.000  H
  C69      1.0000 0.39450  0.05320  0.19020  Biso   1.000  C
  H43      1.0000 0.45790  0.05580  0.20320  Biso   1.000  H
  C70      1.0000 0.34080  0.11020  0.19480  Biso   1.000  C
  H44      1.0000 0.36750  0.15150  0.21160  Biso   1.000  H
  C71      1.0000 0.85780  0.82450  0.05430  Biso   1.000  C
  C72      1.0000 0.93050  0.77950  0.07180  Biso   1.000  C
  H45      1.0000 0.93260  0.74890  0.10900  Biso   1.000  H
  C73      1.0000 0.00000  0.78170  0.03240  Biso   1.000  C
  H46      1.0000 0.04900  0.75120  0.04170  Biso   1.000  H
  C74      1.0000 0.74240  0.77170  0.11420  Biso   1.000  C
  Co3      1.0000 0.05865  0.04424  0.11247  Biso   1.000  Co
  Co4      1.0000 0.83440  0.03489  0.15660  Biso   1.000  Co
  H47      1.0000 0.80400  0.03700  0.00100  Biso   1.000  H
  N10      1.0000 0.92820  0.87510  0.96240  Biso   1.000  N
  N11      1.0000 0.78150  0.82730  0.08940  Biso   1.000  N
  H48      1.0000 0.75840  0.86700  0.09550  Biso   1.000  H
  N12      1.0000 0.20500  0.04690  0.14910  Biso   1.000  N
  N13      1.0000 0.40020  0.93090  0.15970  Biso   1.000  N
  H49      1.0000 0.36680  0.89680  0.14230  Biso   1.000  H
  N14      1.0000 0.24070  0.53490  0.25700  Biso   1.000  N
  N15      1.0000 0.39930  0.65040  0.19140  Biso   1.000  N
  H50      1.0000 0.39110  0.68410  0.21830  Biso   1.000  H
  N16      1.0000 0.54170  0.12920  0.05990  Biso   1.000  N
  H51      1.0000 0.50010  0.16060  0.05380  Biso   1.000  H
  H52      1.0000 0.59530  0.13850  0.08290  Biso   1.000  H
  N17      1.0000 0.15520  0.85070  0.20190  Biso   1.000  N
  H53      1.0000 0.15380  0.89280  0.18790  Biso   1.000  H
  H54      1.0000 0.20360  0.82630  0.20190  Biso   1.000  H
  N18      1.0000 0.17440  0.72880  0.23540  Biso   1.000  N
  H55      1.0000 0.18720  0.68620  0.24420  Biso   1.000  H
  H56      1.0000 0.21290  0.75480  0.21900  Biso   1.000  H
  O12      1.0000 0.48220  0.61070  0.11420  Biso   1.000  O
  O13      1.0000 0.77680  0.71380  0.11230  Biso   1.000  O
  O14      1.0000 0.54660  0.96330  0.20280  Biso   1.000  O
  O15      1.0000 0.96150  0.62184  0.31982  Biso   1.000  O
  O16      1.0000 0.10980  0.62408  0.30530  Biso   1.000  O
  O17      1.0000 0.05200  0.96199  0.17892  Biso   1.000  O
  O18      1.0000 0.90860  0.95649  0.20060  Biso   1.000  O
  O19      1.0000 0.73430  0.96852  0.09209  Biso   1.000  O
  O20      1.0000 0.71200  0.08022  0.09534  Biso   1.000  O
  O21      1.0000 0.91460  0.04014  0.07400  Biso   1.000  O
  O22      1.0000 0.91940  0.03181  0.95953  Biso   1.000  O
  C75      1.0000 0.98690  0.56910  0.69850  Biso   1.000  C
  C76      1.0000 0.87950  0.46740  0.51120  Biso   1.000  C
  C77      1.0000 0.68120  0.47940  0.57580  Biso   1.000  C
  C78      1.0000 0.03030  0.84910  0.80090  Biso   1.000  C
  C79      1.0000 0.93080  0.67470  0.75110  Biso   1.000  C
  H57      1.0000 0.87630  0.65140  0.75280  Biso   1.000  H
  C80      1.0000 0.00180  0.64140  0.72550  Biso   1.000  C
  C81      1.0000 0.58880  0.48870  0.53730  Biso   1.000  C
  C82      1.0000 0.56300  0.55090  0.50360  Biso   1.000  C
  H58      1.0000 0.60700  0.58540  0.50610  Biso   1.000  H
  C83      1.0000 0.02110  0.77710  0.77340  Biso   1.000  C
  C84      1.0000 0.60080  0.77750  0.63770  Biso   1.000  C
  H59      1.0000 0.62570  0.81970  0.62810  Biso   1.000  H
  C85      1.0000 0.94100  0.74190  0.77380  Biso   1.000  C
  H60      1.0000 0.89240  0.76380  0.78970  Biso   1.000  H
  C86      1.0000 0.52270  0.43540  0.53290  Biso   1.000  C
  C87      1.0000 0.09330  0.74490  0.74730  Biso   1.000  C
  C88      1.0000 0.35350  0.50720  0.66650  Biso   1.000  C
  C89      1.0000 0.47690  0.71270  0.66680  Biso   1.000  C
  H61      1.0000 0.41830  0.71060  0.67820  Biso   1.000  H
  C90      1.0000 0.49340  0.58190  0.67760  Biso   1.000  C
  C91      1.0000 0.86090  0.62750  0.50110  Biso   1.000  C
  H62      1.0000 0.81370  0.59550  0.49190  Biso   1.000  H
  C92      1.0000 0.08220  0.67640  0.72360  Biso   1.000  C
  C93      1.0000 0.61650  0.65480  0.64880  Biso   1.000  C
  H63      1.0000 0.65120  0.61500  0.64780  Biso   1.000  H
  C94      1.0000 0.99650  0.67120  0.47950  Biso   1.000  C
  H64      1.0000 0.04420  0.67100  0.45380  Biso   1.000  H
  C95      1.0000 0.25870  0.50740  0.64590  Biso   1.000  C
  H65      1.0000 0.23110  0.54830  0.62880  Biso   1.000  H
  C96      1.0000 0.46320  0.84220  0.65210  Biso   1.000  C
  C97      1.0000 0.52600  0.65220  0.66350  Biso   1.000  C
  C98      1.0000 0.65160  0.71880  0.63580  Biso   1.000  C
  C99      1.0000 0.26710  0.00850  0.65000  Biso   1.000  C
  H66      1.0000 0.25580  0.04280  0.61610  Biso   1.000  H
  C100     1.0000 0.34330  0.90810  0.69330  Biso   1.000  C
  C101     1.0000 0.22590  0.01090  0.70700  Biso   1.000  C
  H67      1.0000 0.18530  0.04660  0.71090  Biso   1.000  H
  C102     1.0000 0.51270  0.77530  0.65380  Biso   1.000  C
  C103     1.0000 0.29840  0.91370  0.74960  Biso   1.000  C
  H68      1.0000 0.30860  0.88020  0.78430  Biso   1.000  H
  C104     1.0000 0.32610  0.95530  0.64180  Biso   1.000  C
  H69      1.0000 0.35320  0.95210  0.60190  Biso   1.000  H
  C105     1.0000 0.24630  0.39450  0.67390  Biso   1.000  C
  H70      1.0000 0.21050  0.35570  0.67720  Biso   1.000  H
  C106     1.0000 0.39450  0.44680  0.69020  Biso   1.000  C
  H71      1.0000 0.45790  0.44420  0.70320  Biso   1.000  H
  C107     1.0000 0.34080  0.38980  0.69480  Biso   1.000  C
  H72      1.0000 0.36750  0.34850  0.71160  Biso   1.000  H
  C108     1.0000 0.85780  0.67550  0.55430  Biso   1.000  C
  C109     1.0000 0.93050  0.72050  0.57180  Biso   1.000  C
  H73      1.0000 0.93260  0.75110  0.60900  Biso   1.000  H
  C110     1.0000 0.00000  0.71830  0.53240  Biso   1.000  C
  H74      1.0000 0.04900  0.74880  0.54170  Biso   1.000  H
  C111     1.0000 0.74240  0.72830  0.61420  Biso   1.000  C
  Co5      1.0000 0.05865  0.45576  0.61247  Biso   1.000  Co
  Co6      1.0000 0.83440  0.46511  0.65660  Biso   1.000  Co
  H75      1.0000 0.80400  0.46300  0.50100  Biso   1.000  H
  N19      1.0000 0.92820  0.62490  0.46240  Biso   1.000  N
  N20      1.0000 0.78150  0.67270  0.58940  Biso   1.000  N
  H76      1.0000 0.75840  0.63300  0.59550  Biso   1.000  H
  N21      1.0000 0.20500  0.45310  0.64910  Biso   1.000  N
  N22      1.0000 0.40020  0.56910  0.65970  Biso   1.000  N
  H77      1.0000 0.36680  0.60320  0.64230  Biso   1.000  H
  N23      1.0000 0.24070  0.96510  0.75700  Biso   1.000  N
  N24      1.0000 0.39930  0.84960  0.69140  Biso   1.000  N
  H78      1.0000 0.39110  0.81590  0.71830  Biso   1.000  H
  N25      1.0000 0.54170  0.37080  0.55990  Biso   1.000  N
  H79      1.0000 0.50010  0.33940  0.55380  Biso   1.000  H
  H80      1.0000 0.59530  0.36150  0.58290  Biso   1.000  H
  N26      1.0000 0.15520  0.64930  0.70190  Biso   1.000  N
  H81      1.0000 0.15380  0.60720  0.68790  Biso   1.000  H
  H82      1.0000 0.20360  0.67370  0.70190  Biso   1.000  H
  N27      1.0000 0.17440  0.77120  0.73540  Biso   1.000  N
  H83      1.0000 0.18720  0.81380  0.74420  Biso   1.000  H
  H84      1.0000 0.21290  0.74520  0.71900  Biso   1.000  H
  O23      1.0000 0.48220  0.88930  0.61420  Biso   1.000  O
  O24      1.0000 0.77680  0.78620  0.61230  Biso   1.000  O
  O25      1.0000 0.54660  0.53670  0.70280  Biso   1.000  O
  O26      1.0000 0.96150  0.87816  0.81982  Biso   1.000  O
  O27      1.0000 0.10980  0.87592  0.80530  Biso   1.000  O
  O28      1.0000 0.05200  0.53801  0.67892  Biso   1.000  O
  O29      1.0000 0.90860  0.54351  0.70060  Biso   1.000  O
  O30      1.0000 0.73430  0.53148  0.59209  Biso   1.000  O
  O31      1.0000 0.71200  0.41978  0.59534  Biso   1.000  O
  O32      1.0000 0.91460  0.45986  0.57400  Biso   1.000  O
  O33      1.0000 0.91940  0.46819  0.45953  Biso   1.000  O
  C112     1.0000 0.01310  0.06910  0.80150  Biso   1.000  C
  C113     1.0000 0.12050  0.96740  0.98880  Biso   1.000  C
  C114     1.0000 0.31880  0.97940  0.92420  Biso   1.000  C
  C115     1.0000 0.96970  0.34910  0.69910  Biso   1.000  C
  C116     1.0000 0.06920  0.17470  0.74890  Biso   1.000  C
  H85      1.0000 0.12370  0.15140  0.74720  Biso   1.000  H
  C117     1.0000 0.99820  0.14140  0.77450  Biso   1.000  C
  C118     1.0000 0.41120  0.98870  0.96270  Biso   1.000  C
  C119     1.0000 0.43700  0.05090  0.99640  Biso   1.000  C
  H86      1.0000 0.39300  0.08540  0.99390  Biso   1.000  H
  C120     1.0000 0.97890  0.27710  0.72660  Biso   1.000  C
  C121     1.0000 0.39920  0.27750  0.86230  Biso   1.000  C
  H87      1.0000 0.37430  0.31970  0.87190  Biso   1.000  H
  C122     1.0000 0.05900  0.24190  0.72620  Biso   1.000  C
  H88      1.0000 0.10760  0.26380  0.71030  Biso   1.000  H
  C123     1.0000 0.47730  0.93540  0.96710  Biso   1.000  C
  C124     1.0000 0.90670  0.24490  0.75270  Biso   1.000  C
  C125     1.0000 0.64650  0.00720  0.83350  Biso   1.000  C
  C126     1.0000 0.52310  0.21270  0.83320  Biso   1.000  C
  H89      1.0000 0.58170  0.21060  0.82180  Biso   1.000  H
  C127     1.0000 0.50660  0.08190  0.82240  Biso   1.000  C
  C128     1.0000 0.13910  0.12750  0.99890  Biso   1.000  C
  H90      1.0000 0.18630  0.09550  0.00810  Biso   1.000  H
  C129     1.0000 0.91780  0.17640  0.77640  Biso   1.000  C
  C130     1.0000 0.38350  0.15480  0.85120  Biso   1.000  C
  H91      1.0000 0.34880  0.11500  0.85220  Biso   1.000  H
  C131     1.0000 0.00350  0.17120  0.02050  Biso   1.000  C
  H92      1.0000 0.95580  0.17100  0.04620  Biso   1.000  H
  C132     1.0000 0.74130  0.00740  0.85410  Biso   1.000  C
  H93      1.0000 0.76890  0.04830  0.87120  Biso   1.000  H
  C133     1.0000 0.53680  0.34220  0.84790  Biso   1.000  C
  C134     1.0000 0.47400  0.15220  0.83650  Biso   1.000  C
  C135     1.0000 0.34840  0.21880  0.86420  Biso   1.000  C
  C136     1.0000 0.73290  0.50850  0.85000  Biso   1.000  C
  H94      1.0000 0.74420  0.54280  0.88390  Biso   1.000  H
  C137     1.0000 0.65670  0.40810  0.80670  Biso   1.000  C
  C138     1.0000 0.77410  0.51090  0.79300  Biso   1.000  C
  H95      1.0000 0.81470  0.54660  0.78910  Biso   1.000  H
  C139     1.0000 0.48730  0.27530  0.84620  Biso   1.000  C
  C140     1.0000 0.70160  0.41370  0.75040  Biso   1.000  C
  H96      1.0000 0.69140  0.38020  0.71570  Biso   1.000  H
  C141     1.0000 0.67390  0.45530  0.85820  Biso   1.000  C
  H97      1.0000 0.64680  0.45210  0.89810  Biso   1.000  H
  C142     1.0000 0.75370  0.89450  0.82610  Biso   1.000  C
  H98      1.0000 0.78950  0.85570  0.82280  Biso   1.000  H
  C143     1.0000 0.60550  0.94680  0.80980  Biso   1.000  C
  H99      1.0000 0.54210  0.94420  0.79680  Biso   1.000  H
  C144     1.0000 0.65920  0.88980  0.80520  Biso   1.000  C
  H100     1.0000 0.63250  0.84850  0.78840  Biso   1.000  H
  C145     1.0000 0.14220  0.17550  0.94570  Biso   1.000  C
  C146     1.0000 0.06950  0.22050  0.92820  Biso   1.000  C
  H101     1.0000 0.06740  0.25110  0.89100  Biso   1.000  H
  C147     1.0000 0.00000  0.21830  0.96760  Biso   1.000  C
  H102     1.0000 0.95100  0.24880  0.95830  Biso   1.000  H
  C148     1.0000 0.25760  0.22830  0.88580  Biso   1.000  C
  Co7      1.0000 0.94135  0.95576  0.88753  Biso   1.000  Co
  Co8      1.0000 0.16560  0.96511  0.84340  Biso   1.000  Co
  H103     1.0000 0.19600  0.96300  0.99900  Biso   1.000  H
  N28      1.0000 0.07180  0.12490  0.03760  Biso   1.000  N
  N29      1.0000 0.21850  0.17270  0.91060  Biso   1.000  N
  H104     1.0000 0.24160  0.13300  0.90450  Biso   1.000  H
  N30      1.0000 0.79500  0.95310  0.85090  Biso   1.000  N
  N31      1.0000 0.59980  0.06910  0.84030  Biso   1.000  N
  H105     1.0000 0.63320  0.10320  0.85770  Biso   1.000  H
  N32      1.0000 0.75930  0.46510  0.74300  Biso   1.000  N
  N33      1.0000 0.60070  0.34960  0.80860  Biso   1.000  N
  H106     1.0000 0.60890  0.31590  0.78170  Biso   1.000  H
  N34      1.0000 0.45830  0.87080  0.94010  Biso   1.000  N
  H107     1.0000 0.49990  0.83940  0.94620  Biso   1.000  H
  H108     1.0000 0.40470  0.86150  0.91710  Biso   1.000  H
  N35      1.0000 0.84480  0.14930  0.79810  Biso   1.000  N
  H109     1.0000 0.84620  0.10720  0.81210  Biso   1.000  H
  H110     1.0000 0.79640  0.17370  0.79810  Biso   1.000  H
  N36      1.0000 0.82560  0.27120  0.76460  Biso   1.000  N
  H111     1.0000 0.81280  0.31380  0.75580  Biso   1.000  H
  H112     1.0000 0.78710  0.24520  0.78100  Biso   1.000  H
  O34      1.0000 0.51780  0.38930  0.88580  Biso   1.000  O
  O35      1.0000 0.22320  0.28620  0.88770  Biso   1.000  O
  O36      1.0000 0.45340  0.03670  0.79720  Biso   1.000  O
  O37      1.0000 0.03850  0.37816  0.68018  Biso   1.000  O
  O38      1.0000 0.89020  0.37592  0.69470  Biso   1.000  O
  O39      1.0000 0.94800  0.03801  0.82108  Biso   1.000  O
  O40      1.0000 0.09140  0.04351  0.79940  Biso   1.000  O
  O41      1.0000 0.26570  0.03148  0.90791  Biso   1.000  O
  O42      1.0000 0.28800  0.91978  0.90466  Biso   1.000  O
  O43      1.0000 0.08540  0.95986  0.92600  Biso   1.000  O
  O44      1.0000 0.08060  0.96819  0.04047  Biso   1.000  O
