data_image0
_cell_length_a       10.1318
_cell_length_b       16.1752
_cell_length_c       23.1015
_cell_angle_alpha    90
_cell_angle_beta     93.411
_cell_angle_gamma    90

_symmetry_space_group_name_H-M    "P 1"
_symmetry_int_tables_number       1

loop_
  _symmetry_equiv_pos_as_xyz
  'x, y, z'

loop_
  _atom_site_label
  _atom_site_occupancy
  _atom_site_fract_x
  _atom_site_fract_y
  _atom_site_fract_z
  _atom_site_thermal_displace_type
  _atom_site_B_iso_or_equiv
  _atom_site_type_symbol
  Cd1      1.0000 0.68919  0.07902  0.73986  Biso   1.000  Cd
  Cd2      1.0000 0.33278  0.99523  0.77087  Biso   1.000  Cd
  N1       1.0000 0.37030  0.85800  0.78506  Biso   1.000  N
  N2       1.0000 0.11530  0.01930  0.77397  Biso   1.000  N
  C1       1.0000 0.99380  0.97220  0.68300  Biso   1.000  C
  O1       1.0000 0.69940  0.85700  0.73471  Biso   1.000  O
  N3       1.0000 0.35010  0.72070  0.77365  Biso   1.000  N
  N4       1.0000 0.67350  0.05690  0.63949  Biso   1.000  N
  C2       1.0000 0.07950  0.05720  0.82390  Biso   1.000  C
  N5       1.0000 0.67000  0.01210  0.33260  Biso   1.000  N
  O2       1.0000 0.29750  0.04940  0.86470  Biso   1.000  O
  C3       1.0000 0.00260  0.01130  0.74060  Biso   1.000  C
  O3       1.0000 0.53440  0.60770  0.73982  Biso   1.000  O
  N6       1.0000 0.89680  0.04320  0.76611  Biso   1.000  N
  C4       1.0000 0.29150  0.79100  0.78960  Biso   1.000  C
  C5       1.0000 0.48500  0.82820  0.76530  Biso   1.000  C
  C6       1.0000 0.98010  0.88790  0.67690  Biso   1.000  C
  H1       1.0000 0.97640  0.85520  0.70990  Biso   1.000  H
  O4       1.0000 0.73700  0.11830  0.84217  Biso   1.000  O
  C7       1.0000 0.59350  0.88550  0.75340  Biso   1.000  C
  C8       1.0000 0.18170  0.07210  0.87080  Biso   1.000  C
  C9       1.0000 0.67270  0.02780  0.45410  Biso   1.000  C
  C10      1.0000 0.67240  0.03720  0.51780  Biso   1.000  C
  C11      1.0000 0.66670  0.98200  0.61450  Biso   1.000  C
  H2       1.0000 0.66300  0.93580  0.63830  Biso   1.000  H
  C12      1.0000 0.99980  0.02010  0.63350  Biso   1.000  C
  H3       1.0000 0.00860  0.07710  0.63700  Biso   1.000  H
  C13      1.0000 0.97850  0.89950  0.57390  Biso   1.000  C
  C14      1.0000 0.66740  0.94660  0.36730  Biso   1.000  C
  H4       1.0000 0.66530  0.89450  0.35030  Biso   1.000  H
  C15      1.0000 0.66480  0.96980  0.55550  Biso   1.000  C
  H5       1.0000 0.65850  0.91650  0.54050  Biso   1.000  H
  C16      1.0000 0.15980  0.79430  0.81320  Biso   1.000  C
  C17      1.0000 0.05960  0.73910  0.79350  Biso   1.000  C
  H6       1.0000 0.07730  0.69950  0.76580  Biso   1.000  H
  C18      1.0000 0.93580  0.74330  0.81460  Biso   1.000  C
  H7       1.0000 0.87060  0.70610  0.80160  Biso   1.000  H
  C19      1.0000 0.99300  0.98450  0.57920  Biso   1.000  C
  H8       1.0000 0.99800  0.01720  0.54630  Biso   1.000  H
  C20      1.0000 0.97150  0.85050  0.62270  Biso   1.000  C
  H9       1.0000 0.96130  0.79360  0.61930  Biso   1.000  H
  C21      1.0000 0.66750  0.95130  0.42680  Biso   1.000  C
  H10      1.0000 0.66410  0.90320  0.44870  Biso   1.000  H
  C22      1.0000 0.12910  0.85200  0.85390  Biso   1.000  C
  H11      1.0000 0.19400  0.88890  0.86760  Biso   1.000  H
  C23      1.0000 0.67740  0.08650  0.35860  Biso   1.000  C
  H12      1.0000 0.68240  0.13340  0.33550  Biso   1.000  H
  C24      1.0000 0.90840  0.80170  0.85460  Biso   1.000  C
  C25      1.0000 0.67780  0.09650  0.41750  Biso   1.000  C
  H13      1.0000 0.68160  0.14940  0.43330  Biso   1.000  H
  C26      1.0000 0.68000  0.12180  0.60370  Biso   1.000  C
  H14      1.0000 0.68550  0.17430  0.62000  Biso   1.000  H
  C27      1.0000 0.00440  0.85670  0.87510  Biso   1.000  C
  H15      1.0000 0.98560  0.89620  0.90270  Biso   1.000  H
  O5       1.0000 0.78030  0.80050  0.87190  Biso   1.000  O
  C28      1.0000 0.67920  0.11510  0.54470  Biso   1.000  C
  H16      1.0000 0.68310  0.16250  0.52220  Biso   1.000  H
  O6       1.0000 0.68170  0.70580  0.72554  Biso   1.000  O
  C29      1.0000 0.47290  0.74360  0.75800  Biso   1.000  C
  C30      1.0000 0.56920  0.68270  0.73930  Biso   1.000  C
  C31      1.0000 0.94600  0.07200  0.81850  Biso   1.000  C
  O7       1.0000 0.14520  0.10840  0.91644  Biso   1.000  O
  C32      1.0000 0.96390  0.78620  0.50770  Biso   1.000  C
  H17      1.0000 0.04670  0.76100  0.51990  Biso   1.000  H
  H18      1.0000 0.94570  0.77660  0.46700  Biso   1.000  H
  H19      1.0000 0.89460  0.76250  0.52890  Biso   1.000  H
  O8       1.0000 0.90380  0.13400  0.90818  Biso   1.000  O
  O9       1.0000 0.97060  0.87130  0.51819  Biso   1.000  O
  C33      1.0000 0.85450  0.11070  0.85810  Biso   1.000  C
  C34      1.0000 0.73760  0.86630  0.90530  Biso   1.000  C
  H20      1.0000 0.78970  0.86830  0.94140  Biso   1.000  H
  H21      1.0000 0.64630  0.85860  0.91280  Biso   1.000  H
  H22      1.0000 0.74770  0.91720  0.88470  Biso   1.000  H
  O10      1.0000 0.57480  0.96040  0.76162  Biso   1.000  O
  H23      1.0000 0.98700  0.13200  0.90500  Biso   1.000  H
  Cd3      1.0000 0.31081  0.57902  0.76014  Biso   1.000  Cd
  Cd4      1.0000 0.66722  0.49523  0.72913  Biso   1.000  Cd
  N7       1.0000 0.62970  0.35800  0.71494  Biso   1.000  N
  N8       1.0000 0.88470  0.51930  0.72603  Biso   1.000  N
  C35      1.0000 0.00620  0.47220  0.81700  Biso   1.000  C
  O11      1.0000 0.30060  0.35700  0.76529  Biso   1.000  O
  N9       1.0000 0.64990  0.22070  0.72635  Biso   1.000  N
  N10      1.0000 0.32650  0.55690  0.86051  Biso   1.000  N
  C36      1.0000 0.92050  0.55720  0.67610  Biso   1.000  C
  N11      1.0000 0.33000  0.51210  0.16740  Biso   1.000  N
  O12      1.0000 0.70250  0.54940  0.63530  Biso   1.000  O
  C37      1.0000 0.99740  0.51130  0.75940  Biso   1.000  C
  O13      1.0000 0.46560  0.10770  0.76018  Biso   1.000  O
  N12      1.0000 0.10320  0.54320  0.73389  Biso   1.000  N
  C38      1.0000 0.70850  0.29100  0.71040  Biso   1.000  C
  C39      1.0000 0.51500  0.32820  0.73470  Biso   1.000  C
  C40      1.0000 0.01990  0.38790  0.82310  Biso   1.000  C
  H24      1.0000 0.02360  0.35520  0.79010  Biso   1.000  H
  O14      1.0000 0.26300  0.61830  0.65783  Biso   1.000  O
  C41      1.0000 0.40650  0.38550  0.74660  Biso   1.000  C
  C42      1.0000 0.81830  0.57210  0.62920  Biso   1.000  C
  C43      1.0000 0.32730  0.52780  0.04590  Biso   1.000  C
  C44      1.0000 0.32760  0.53720  0.98220  Biso   1.000  C
  C45      1.0000 0.33330  0.48200  0.88550  Biso   1.000  C
  H25      1.0000 0.33700  0.43580  0.86170  Biso   1.000  H
  C46      1.0000 0.00020  0.52010  0.86650  Biso   1.000  C
  H26      1.0000 0.99140  0.57710  0.86300  Biso   1.000  H
  C47      1.0000 0.02150  0.39950  0.92610  Biso   1.000  C
  C48      1.0000 0.33260  0.44660  0.13270  Biso   1.000  C
  H27      1.0000 0.33470  0.39450  0.14970  Biso   1.000  H
  C49      1.0000 0.33520  0.46980  0.94450  Biso   1.000  C
  H28      1.0000 0.34150  0.41650  0.95950  Biso   1.000  H
  C50      1.0000 0.84020  0.29430  0.68680  Biso   1.000  C
  C51      1.0000 0.94040  0.23910  0.70650  Biso   1.000  C
  H29      1.0000 0.92270  0.19950  0.73420  Biso   1.000  H
  C52      1.0000 0.06420  0.24330  0.68540  Biso   1.000  C
  H30      1.0000 0.12940  0.20610  0.69840  Biso   1.000  H
  C53      1.0000 0.00700  0.48450  0.92080  Biso   1.000  C
  H31      1.0000 0.00200  0.51720  0.95370  Biso   1.000  H
  C54      1.0000 0.02850  0.35050  0.87730  Biso   1.000  C
  H32      1.0000 0.03870  0.29360  0.88070  Biso   1.000  H
  C55      1.0000 0.33250  0.45130  0.07320  Biso   1.000  C
  H33      1.0000 0.33590  0.40320  0.05130  Biso   1.000  H
  C56      1.0000 0.87090  0.35200  0.64610  Biso   1.000  C
  H34      1.0000 0.80600  0.38890  0.63240  Biso   1.000  H
  C57      1.0000 0.32260  0.58650  0.14140  Biso   1.000  C
  H35      1.0000 0.31760  0.63340  0.16450  Biso   1.000  H
  C58      1.0000 0.09160  0.30170  0.64540  Biso   1.000  C
  C59      1.0000 0.32220  0.59650  0.08250  Biso   1.000  C
  H36      1.0000 0.31840  0.64940  0.06670  Biso   1.000  H
  C60      1.0000 0.32000  0.62180  0.89630  Biso   1.000  C
  H37      1.0000 0.31450  0.67430  0.88000  Biso   1.000  H
  C61      1.0000 0.99560  0.35670  0.62490  Biso   1.000  C
  H38      1.0000 0.01440  0.39620  0.59730  Biso   1.000  H
  O15      1.0000 0.21970  0.30050  0.62810  Biso   1.000  O
  C62      1.0000 0.32080  0.61510  0.95530  Biso   1.000  C
  H39      1.0000 0.31690  0.66250  0.97780  Biso   1.000  H
  O16      1.0000 0.31830  0.20580  0.77446  Biso   1.000  O
  C63      1.0000 0.52710  0.24360  0.74200  Biso   1.000  C
  C64      1.0000 0.43080  0.18270  0.76070  Biso   1.000  C
  C65      1.0000 0.05400  0.57200  0.68150  Biso   1.000  C
  O17      1.0000 0.85480  0.60840  0.58356  Biso   1.000  O
  C66      1.0000 0.03610  0.28620  0.99230  Biso   1.000  C
  H40      1.0000 0.95330  0.26100  0.98010  Biso   1.000  H
  H41      1.0000 0.05430  0.27660  0.03300  Biso   1.000  H
  H42      1.0000 0.10540  0.26250  0.97110  Biso   1.000  H
  O18      1.0000 0.09620  0.63400  0.59182  Biso   1.000  O
  O19      1.0000 0.02940  0.37130  0.98181  Biso   1.000  O
  C67      1.0000 0.14550  0.61070  0.64190  Biso   1.000  C
  C68      1.0000 0.26240  0.36630  0.59470  Biso   1.000  C
  H43      1.0000 0.21030  0.36830  0.55860  Biso   1.000  H
  H44      1.0000 0.35370  0.35860  0.58720  Biso   1.000  H
  H45      1.0000 0.25230  0.41720  0.61530  Biso   1.000  H
  O20      1.0000 0.42520  0.46040  0.73838  Biso   1.000  O
  H46      1.0000 0.01300  0.63200  0.59500  Biso   1.000  H
  Cd5      1.0000 0.31081  0.92098  0.26014  Biso   1.000  Cd
  Cd6      1.0000 0.66722  0.00477  0.22913  Biso   1.000  Cd
  N13      1.0000 0.62970  0.14200  0.21494  Biso   1.000  N
  N14      1.0000 0.88470  0.98070  0.22603  Biso   1.000  N
  C69      1.0000 0.00620  0.02780  0.31700  Biso   1.000  C
  O21      1.0000 0.30060  0.14300  0.26529  Biso   1.000  O
  N15      1.0000 0.64990  0.27930  0.22635  Biso   1.000  N
  N16      1.0000 0.32650  0.94310  0.36051  Biso   1.000  N
  C70      1.0000 0.92050  0.94280  0.17610  Biso   1.000  C
  N17      1.0000 0.33000  0.98790  0.66740  Biso   1.000  N
  O22      1.0000 0.70250  0.95060  0.13530  Biso   1.000  O
  C71      1.0000 0.99740  0.98870  0.25940  Biso   1.000  C
  O23      1.0000 0.46560  0.39230  0.26018  Biso   1.000  O
  N18      1.0000 0.10320  0.95680  0.23389  Biso   1.000  N
  C72      1.0000 0.70850  0.20900  0.21040  Biso   1.000  C
  C73      1.0000 0.51500  0.17180  0.23470  Biso   1.000  C
  C74      1.0000 0.01990  0.11210  0.32310  Biso   1.000  C
  H47      1.0000 0.02360  0.14480  0.29010  Biso   1.000  H
  O24      1.0000 0.26300  0.88170  0.15783  Biso   1.000  O
  C75      1.0000 0.40650  0.11450  0.24660  Biso   1.000  C
  C76      1.0000 0.81830  0.92790  0.12920  Biso   1.000  C
  C77      1.0000 0.32730  0.97220  0.54590  Biso   1.000  C
  C78      1.0000 0.32760  0.96280  0.48220  Biso   1.000  C
  C79      1.0000 0.33330  0.01800  0.38550  Biso   1.000  C
  H48      1.0000 0.33700  0.06420  0.36170  Biso   1.000  H
  C80      1.0000 0.00020  0.97990  0.36650  Biso   1.000  C
  H49      1.0000 0.99140  0.92290  0.36300  Biso   1.000  H
  C81      1.0000 0.02150  0.10050  0.42610  Biso   1.000  C
  C82      1.0000 0.33260  0.05340  0.63270  Biso   1.000  C
  H50      1.0000 0.33470  0.10550  0.64970  Biso   1.000  H
  C83      1.0000 0.33520  0.03020  0.44450  Biso   1.000  C
  H51      1.0000 0.34150  0.08350  0.45950  Biso   1.000  H
  C84      1.0000 0.84020  0.20570  0.18680  Biso   1.000  C
  C85      1.0000 0.94040  0.26090  0.20650  Biso   1.000  C
  H52      1.0000 0.92270  0.30050  0.23420  Biso   1.000  H
  C86      1.0000 0.06420  0.25670  0.18540  Biso   1.000  C
  H53      1.0000 0.12940  0.29390  0.19840  Biso   1.000  H
  C87      1.0000 0.00700  0.01550  0.42080  Biso   1.000  C
  H54      1.0000 0.00200  0.98280  0.45370  Biso   1.000  H
  C88      1.0000 0.02850  0.14950  0.37730  Biso   1.000  C
  H55      1.0000 0.03870  0.20640  0.38070  Biso   1.000  H
  C89      1.0000 0.33250  0.04870  0.57320  Biso   1.000  C
  H56      1.0000 0.33590  0.09680  0.55130  Biso   1.000  H
  C90      1.0000 0.87090  0.14800  0.14610  Biso   1.000  C
  H57      1.0000 0.80600  0.11110  0.13240  Biso   1.000  H
  C91      1.0000 0.32260  0.91350  0.64140  Biso   1.000  C
  H58      1.0000 0.31760  0.86660  0.66450  Biso   1.000  H
  C92      1.0000 0.09160  0.19830  0.14540  Biso   1.000  C
  C93      1.0000 0.32220  0.90350  0.58250  Biso   1.000  C
  H59      1.0000 0.31840  0.85060  0.56670  Biso   1.000  H
  C94      1.0000 0.32000  0.87820  0.39630  Biso   1.000  C
  H60      1.0000 0.31450  0.82570  0.38000  Biso   1.000  H
  C95      1.0000 0.99560  0.14330  0.12490  Biso   1.000  C
  H61      1.0000 0.01440  0.10380  0.09730  Biso   1.000  H
  O25      1.0000 0.21970  0.19950  0.12810  Biso   1.000  O
  C96      1.0000 0.32080  0.88490  0.45530  Biso   1.000  C
  H62      1.0000 0.31690  0.83750  0.47780  Biso   1.000  H
  O26      1.0000 0.31830  0.29420  0.27446  Biso   1.000  O
  C97      1.0000 0.52710  0.25640  0.24200  Biso   1.000  C
  C98      1.0000 0.43080  0.31730  0.26070  Biso   1.000  C
  C99      1.0000 0.05400  0.92800  0.18150  Biso   1.000  C
  O27      1.0000 0.85480  0.89160  0.08356  Biso   1.000  O
  C100     1.0000 0.03610  0.21380  0.49230  Biso   1.000  C
  H63      1.0000 0.95330  0.23900  0.48010  Biso   1.000  H
  H64      1.0000 0.05430  0.22340  0.53300  Biso   1.000  H
  H65      1.0000 0.10540  0.23750  0.47110  Biso   1.000  H
  O28      1.0000 0.09620  0.86600  0.09182  Biso   1.000  O
  O29      1.0000 0.02940  0.12870  0.48181  Biso   1.000  O
  C101     1.0000 0.14550  0.88930  0.14190  Biso   1.000  C
  C102     1.0000 0.26240  0.13370  0.09470  Biso   1.000  C
  H66      1.0000 0.21030  0.13170  0.05860  Biso   1.000  H
  H67      1.0000 0.35370  0.14140  0.08720  Biso   1.000  H
  H68      1.0000 0.25230  0.08280  0.11530  Biso   1.000  H
  O30      1.0000 0.42520  0.03960  0.23838  Biso   1.000  O
  H69      1.0000 0.01300  0.86800  0.09500  Biso   1.000  H
  Cd7      1.0000 0.68919  0.42098  0.23986  Biso   1.000  Cd
  Cd8      1.0000 0.33278  0.50477  0.27087  Biso   1.000  Cd
  N19      1.0000 0.37030  0.64200  0.28506  Biso   1.000  N
  N20      1.0000 0.11530  0.48070  0.27397  Biso   1.000  N
  C103     1.0000 0.99380  0.52780  0.18300  Biso   1.000  C
  O31      1.0000 0.69940  0.64300  0.23471  Biso   1.000  O
  N21      1.0000 0.35010  0.77930  0.27365  Biso   1.000  N
  N22      1.0000 0.67350  0.44310  0.13949  Biso   1.000  N
  C104     1.0000 0.07950  0.44280  0.32390  Biso   1.000  C
  N23      1.0000 0.67000  0.48790  0.83260  Biso   1.000  N
  O32      1.0000 0.29750  0.45060  0.36470  Biso   1.000  O
  C105     1.0000 0.00260  0.48870  0.24060  Biso   1.000  C
  O33      1.0000 0.53440  0.89230  0.23982  Biso   1.000  O
  N24      1.0000 0.89680  0.45680  0.26611  Biso   1.000  N
  C106     1.0000 0.29150  0.70900  0.28960  Biso   1.000  C
  C107     1.0000 0.48500  0.67180  0.26530  Biso   1.000  C
  C108     1.0000 0.98010  0.61210  0.17690  Biso   1.000  C
  H70      1.0000 0.97640  0.64480  0.20990  Biso   1.000  H
  O34      1.0000 0.73700  0.38170  0.34217  Biso   1.000  O
  C109     1.0000 0.59350  0.61450  0.25340  Biso   1.000  C
  C110     1.0000 0.18170  0.42790  0.37080  Biso   1.000  C
  C111     1.0000 0.67270  0.47220  0.95410  Biso   1.000  C
  C112     1.0000 0.67240  0.46280  0.01780  Biso   1.000  C
  C113     1.0000 0.66670  0.51800  0.11450  Biso   1.000  C
  H71      1.0000 0.66300  0.56420  0.13830  Biso   1.000  H
  C114     1.0000 0.99980  0.47990  0.13350  Biso   1.000  C
  H72      1.0000 0.00860  0.42290  0.13700  Biso   1.000  H
  C115     1.0000 0.97850  0.60050  0.07390  Biso   1.000  C
  C116     1.0000 0.66740  0.55340  0.86730  Biso   1.000  C
  H73      1.0000 0.66530  0.60550  0.85030  Biso   1.000  H
  C117     1.0000 0.66480  0.53020  0.05550  Biso   1.000  C
  H74      1.0000 0.65850  0.58350  0.04050  Biso   1.000  H
  C118     1.0000 0.15980  0.70570  0.31320  Biso   1.000  C
  C119     1.0000 0.05960  0.76090  0.29350  Biso   1.000  C
  H75      1.0000 0.07730  0.80050  0.26580  Biso   1.000  H
  C120     1.0000 0.93580  0.75670  0.31460  Biso   1.000  C
  H76      1.0000 0.87060  0.79390  0.30160  Biso   1.000  H
  C121     1.0000 0.99300  0.51550  0.07920  Biso   1.000  C
  H77      1.0000 0.99800  0.48280  0.04630  Biso   1.000  H
  C122     1.0000 0.97150  0.64950  0.12270  Biso   1.000  C
  H78      1.0000 0.96130  0.70640  0.11930  Biso   1.000  H
  C123     1.0000 0.66750  0.54870  0.92680  Biso   1.000  C
  H79      1.0000 0.66410  0.59680  0.94870  Biso   1.000  H
  C124     1.0000 0.12910  0.64800  0.35390  Biso   1.000  C
  H80      1.0000 0.19400  0.61110  0.36760  Biso   1.000  H
  C125     1.0000 0.67740  0.41350  0.85860  Biso   1.000  C
  H81      1.0000 0.68240  0.36660  0.83550  Biso   1.000  H
  C126     1.0000 0.90840  0.69830  0.35460  Biso   1.000  C
  C127     1.0000 0.67780  0.40350  0.91750  Biso   1.000  C
  H82      1.0000 0.68160  0.35060  0.93330  Biso   1.000  H
  C128     1.0000 0.68000  0.37820  0.10370  Biso   1.000  C
  H83      1.0000 0.68550  0.32570  0.12000  Biso   1.000  H
  C129     1.0000 0.00440  0.64330  0.37510  Biso   1.000  C
  H84      1.0000 0.98560  0.60380  0.40270  Biso   1.000  H
  O35      1.0000 0.78030  0.69950  0.37190  Biso   1.000  O
  C130     1.0000 0.67920  0.38490  0.04470  Biso   1.000  C
  H85      1.0000 0.68310  0.33750  0.02220  Biso   1.000  H
  O36      1.0000 0.68170  0.79420  0.22554  Biso   1.000  O
  C131     1.0000 0.47290  0.75640  0.25800  Biso   1.000  C
  C132     1.0000 0.56920  0.81730  0.23930  Biso   1.000  C
  C133     1.0000 0.94600  0.42800  0.31850  Biso   1.000  C
  O37      1.0000 0.14520  0.39160  0.41644  Biso   1.000  O
  C134     1.0000 0.96390  0.71380  0.00770  Biso   1.000  C
  H86      1.0000 0.04670  0.73900  0.01990  Biso   1.000  H
  H87      1.0000 0.94570  0.72340  0.96700  Biso   1.000  H
  H88      1.0000 0.89460  0.73750  0.02890  Biso   1.000  H
  O38      1.0000 0.90380  0.36600  0.40818  Biso   1.000  O
  O39      1.0000 0.97060  0.62870  0.01819  Biso   1.000  O
  C135     1.0000 0.85450  0.38930  0.35810  Biso   1.000  C
  C136     1.0000 0.73760  0.63370  0.40530  Biso   1.000  C
  H89      1.0000 0.78970  0.63170  0.44140  Biso   1.000  H
  H90      1.0000 0.64630  0.64140  0.41280  Biso   1.000  H
  H91      1.0000 0.74770  0.58280  0.38470  Biso   1.000  H
  O40      1.0000 0.57480  0.53960  0.26162  Biso   1.000  O
  H92      1.0000 0.98700  0.36800  0.40500  Biso   1.000  H
