data_ZURROT_clean
_audit_creation_date              2014-07-02
_audit_creation_method            'Materials Studio'
_symmetry_space_group_name_H-M    'P1'
_symmetry_Int_Tables_number       1
_symmetry_cell_setting            triclinic
loop_
_symmetry_equiv_pos_as_xyz
  x,y,z
_cell_length_a                    9.2540
_cell_length_b                    12.0442
_cell_length_c                    13.1700
_cell_angle_alpha                 80.0637
_cell_angle_beta                  69.4314
_cell_angle_gamma                 67.4079
loop_
_atom_site_label
_atom_site_type_symbol
_atom_site_fract_x
_atom_site_fract_y
_atom_site_fract_z
_atom_site_U_iso_or_equiv
_atom_site_adp_type
_atom_site_occupancy
Cd1    Cd    0.00000   0.00000   0.00000   0.01267  Uiso   1.00
Cd2    Cd    0.00000   0.50000   0.50000   0.01267  Uiso   1.00
Ni1    Ni    0.36207   0.25000   0.75000   0.01267  Uiso   1.00
Ni2    Ni    0.63793   0.75000   0.25000   0.01267  Uiso   1.00
H1     H     0.00597   0.30882   0.39864   0.01267  Uiso   1.00
H2     H     0.84239   0.33799   0.50575   0.01267  Uiso   1.00
H3     H     0.18040   0.19786   0.50614   0.01267  Uiso   1.00
H4     H     0.99870   0.22802   0.62276   0.01267  Uiso   1.00
H5     H     0.82295   0.11568   0.66296   0.01267  Uiso   1.00
H6     H     0.78431   0.93292   0.63714   0.01267  Uiso   1.00
H7     H     0.71343   0.19118   0.10136   0.01267  Uiso   1.00
H8     H     0.68613   0.16201   0.99425   0.01267  Uiso   1.00
H9     H     0.88440   0.30214   0.99386   0.01267  Uiso   1.00
H10    H     0.84948   0.27198   0.87724   0.01267  Uiso   1.00
H11    H     0.60159   0.38432   0.83704   0.01267  Uiso   1.00
H12    H     0.35437   0.56708   0.86286   0.01267  Uiso   1.00
H13    H     0.99403   0.69118   0.60136   0.01267  Uiso   1.00
H14    H     0.15761   0.66201   0.49425   0.01267  Uiso   1.00
H15    H     0.81960   0.80214   0.49386   0.01267  Uiso   1.00
H16    H     0.00130   0.77198   0.37724   0.01267  Uiso   1.00
H17    H     0.17705   0.88432   0.33704   0.01267  Uiso   1.00
H18    H     0.21569   0.06708   0.36286   0.01267  Uiso   1.00
H19    H     0.28657   0.80882   0.89864   0.01267  Uiso   1.00
H20    H     0.31387   0.83799   0.00575   0.01267  Uiso   1.00
H21    H     0.11560   0.69786   0.00614   0.01267  Uiso   1.00
H22    H     0.15052   0.72802   0.12276   0.01267  Uiso   1.00
H23    H     0.39841   0.61568   0.16296   0.01267  Uiso   1.00
H24    H     0.64563   0.43292   0.13714   0.01267  Uiso   1.00
C1     C     0.23160   0.15830   0.82290   0.01267  Uiso   1.00
C2     C     0.51110   0.16560   0.82540   0.01267  Uiso   1.00
C3     C     0.95250   0.78650   0.46490   0.01267  Uiso   1.00
C4     C     0.97740   0.89670   0.48410   0.01267  Uiso   1.00
C5     C     0.09880   0.93520   0.40860   0.01267  Uiso   1.00
C6     C     0.12160   0.03780   0.42320   0.01267  Uiso   1.00
C7     C     0.21280   0.34170   0.67710   0.01267  Uiso   1.00
C8     C     0.50210   0.33440   0.67460   0.01267  Uiso   1.00
C9     C     0.20390   0.71350   0.03510   0.01267  Uiso   1.00
C10    C     0.35820   0.60330   0.01590   0.01267  Uiso   1.00
C11    C     0.44260   0.56480   0.09140   0.01267  Uiso   1.00
C12    C     0.58260   0.46220   0.07680   0.01267  Uiso   1.00
C13    C     0.76840   0.84170   0.17710   0.01267  Uiso   1.00
C14    C     0.48890   0.83440   0.17460   0.01267  Uiso   1.00
C15    C     0.04750   0.21350   0.53510   0.01267  Uiso   1.00
C16    C     0.02260   0.10330   0.51590   0.01267  Uiso   1.00
C17    C     0.90120   0.06480   0.59140   0.01267  Uiso   1.00
C18    C     0.87840   0.96220   0.57680   0.01267  Uiso   1.00
C19    C     0.78720   0.65830   0.32290   0.01267  Uiso   1.00
C20    C     0.49790   0.66560   0.32540   0.01267  Uiso   1.00
C21    C     0.79610   0.28650   0.96490   0.01267  Uiso   1.00
C22    C     0.64180   0.39670   0.98410   0.01267  Uiso   1.00
C23    C     0.55740   0.43520   0.90860   0.01267  Uiso   1.00
C24    C     0.41740   0.53780   0.92320   0.01267  Uiso   1.00
N1     N     0.15500   0.09910   0.86790   0.01267  Uiso   1.00
N2     N     0.60120   0.11780   0.87340   0.01267  Uiso   1.00
N3     N     0.03680   0.67620   0.52200   0.01267  Uiso   1.00
N4     N     0.12200   0.40090   0.63210   0.01267  Uiso   1.00
N5     N     0.59240   0.38220   0.62660   0.01267  Uiso   1.00
N6     N     0.23500   0.82380   0.97800   0.01267  Uiso   1.00
N7     N     0.84500   0.90090   0.13210   0.01267  Uiso   1.00
N8     N     0.39880   0.88220   0.12660   0.01267  Uiso   1.00
N9     N     0.96320   0.32380   0.47800   0.01267  Uiso   1.00
N10    N     0.87800   0.59910   0.36790   0.01267  Uiso   1.00
N11    N     0.40760   0.61780   0.37340   0.01267  Uiso   1.00
N12    N     0.76500   0.17620   0.02200   0.01267  Uiso   1.00
