data_image0
_cell_length_a       10.0893
_cell_length_b       26.5212
_cell_length_c       9.7898
_cell_angle_alpha    90
_cell_angle_beta     90
_cell_angle_gamma    90

_symmetry_space_group_name_H-M    "P 1"
_symmetry_int_tables_number       1

loop_
  _symmetry_equiv_pos_as_xyz
  'x, y, z'

loop_
  _atom_site_label
  _atom_site_occupancy
  _atom_site_fract_x
  _atom_site_fract_y
  _atom_site_fract_z
  _atom_site_thermal_displace_type
  _atom_site_B_iso_or_equiv
  _atom_site_type_symbol
  Zn1      1.0000 0.88448  0.54415  0.08667  Biso   1.000  Zn
  C1       1.0000 0.86810  0.64041  0.12150  Biso   1.000  C
  C2       1.0000 0.85270  0.69693  0.11840  Biso   1.000  C
  C3       1.0000 0.74740  0.72293  0.04990  Biso   1.000  C
  C4       1.0000 0.64120  0.69748  0.98760  Biso   1.000  C
  H1       1.0000 0.63930  0.66240  0.98760  Biso   1.000  H
  C5       1.0000 0.54100  0.72371  0.92700  Biso   1.000  C
  H2       1.0000 0.47190  0.70640  0.88520  Biso   1.000  H
  C6       1.0000 0.94780  0.72365  0.18570  Biso   1.000  C
  H3       1.0000 0.01410  0.70650  0.23250  Biso   1.000  H
  C7       1.0000 0.76030  0.49228  0.33500  Biso   1.000  C
  H4       1.0000 0.83570  0.47370  0.35590  Biso   1.000  H
  C8       1.0000 0.62580  0.54080  0.23670  Biso   1.000  C
  H5       1.0000 0.58820  0.56300  0.17410  Biso   1.000  H
  N1       1.0000 0.74850  0.52187  0.22430  Biso   1.000  N
  N2       1.0000 0.56490  0.52480  0.34590  Biso   1.000  N
  N3       1.0000 0.65210  0.49282  0.41040  Biso   1.000  N
  O1       1.0000 0.83070  0.61376  0.02190  Biso   1.000  O
  O2       1.0000 0.92210  0.62073  0.22060  Biso   1.000  O
  Zn2      1.0000 0.61552  0.45585  0.58667  Biso   1.000  Zn
  C9       1.0000 0.63190  0.35959  0.62150  Biso   1.000  C
  C10      1.0000 0.64730  0.30307  0.61840  Biso   1.000  C
  C11      1.0000 0.75260  0.27707  0.54990  Biso   1.000  C
  C12      1.0000 0.85880  0.30252  0.48760  Biso   1.000  C
  H6       1.0000 0.86070  0.33760  0.48760  Biso   1.000  H
  C13      1.0000 0.95900  0.27629  0.42700  Biso   1.000  C
  H7       1.0000 0.02810  0.29360  0.38520  Biso   1.000  H
  C14      1.0000 0.55220  0.27635  0.68570  Biso   1.000  C
  H8       1.0000 0.48590  0.29350  0.73250  Biso   1.000  H
  C15      1.0000 0.73970  0.50772  0.83500  Biso   1.000  C
  H9       1.0000 0.66430  0.52630  0.85590  Biso   1.000  H
  C16      1.0000 0.87420  0.45920  0.73670  Biso   1.000  C
  H10      1.0000 0.91180  0.43700  0.67410  Biso   1.000  H
  N4       1.0000 0.75150  0.47813  0.72430  Biso   1.000  N
  N5       1.0000 0.93510  0.47520  0.84590  Biso   1.000  N
  N6       1.0000 0.84790  0.50718  0.91040  Biso   1.000  N
  O3       1.0000 0.66930  0.38624  0.52190  Biso   1.000  O
  O4       1.0000 0.57790  0.37927  0.72060  Biso   1.000  O
  Zn3      1.0000 0.11552  0.04415  0.91333  Biso   1.000  Zn
  C17      1.0000 0.13190  0.14041  0.87850  Biso   1.000  C
  C18      1.0000 0.14730  0.19693  0.88160  Biso   1.000  C
  C19      1.0000 0.25260  0.22293  0.95010  Biso   1.000  C
  C20      1.0000 0.35880  0.19748  0.01240  Biso   1.000  C
  H11      1.0000 0.36070  0.16240  0.01240  Biso   1.000  H
  C21      1.0000 0.45900  0.22371  0.07300  Biso   1.000  C
  H12      1.0000 0.52810  0.20640  0.11480  Biso   1.000  H
  C22      1.0000 0.05220  0.22365  0.81430  Biso   1.000  C
  H13      1.0000 0.98590  0.20650  0.76750  Biso   1.000  H
  C23      1.0000 0.23970  0.99228  0.66500  Biso   1.000  C
  H14      1.0000 0.16430  0.97370  0.64410  Biso   1.000  H
  C24      1.0000 0.37420  0.04080  0.76330  Biso   1.000  C
  H15      1.0000 0.41180  0.06300  0.82590  Biso   1.000  H
  N7       1.0000 0.25150  0.02187  0.77570  Biso   1.000  N
  N8       1.0000 0.43510  0.02480  0.65410  Biso   1.000  N
  N9       1.0000 0.34790  0.99282  0.58960  Biso   1.000  N
  O5       1.0000 0.16930  0.11376  0.97810  Biso   1.000  O
  O6       1.0000 0.07790  0.12073  0.77940  Biso   1.000  O
  Zn4      1.0000 0.38448  0.95585  0.41333  Biso   1.000  Zn
  C25      1.0000 0.36810  0.85959  0.37850  Biso   1.000  C
  C26      1.0000 0.35270  0.80307  0.38160  Biso   1.000  C
  C27      1.0000 0.24740  0.77707  0.45010  Biso   1.000  C
  C28      1.0000 0.14120  0.80252  0.51240  Biso   1.000  C
  H16      1.0000 0.13930  0.83760  0.51240  Biso   1.000  H
  C29      1.0000 0.04100  0.77629  0.57300  Biso   1.000  C
  H17      1.0000 0.97190  0.79360  0.61480  Biso   1.000  H
  C30      1.0000 0.44780  0.77635  0.31430  Biso   1.000  C
  H18      1.0000 0.51410  0.79350  0.26750  Biso   1.000  H
  C31      1.0000 0.26030  0.00772  0.16500  Biso   1.000  C
  H19      1.0000 0.33570  0.02630  0.14410  Biso   1.000  H
  C32      1.0000 0.12580  0.95920  0.26330  Biso   1.000  C
  H20      1.0000 0.08820  0.93700  0.32590  Biso   1.000  H
  N10      1.0000 0.24850  0.97813  0.27570  Biso   1.000  N
  N11      1.0000 0.06490  0.97520  0.15410  Biso   1.000  N
  N12      1.0000 0.15210  0.00718  0.08960  Biso   1.000  N
  O7       1.0000 0.33070  0.88624  0.47810  Biso   1.000  O
  O8       1.0000 0.42210  0.87927  0.27940  Biso   1.000  O
  Zn5      1.0000 0.11552  0.45585  0.91333  Biso   1.000  Zn
  C33      1.0000 0.13190  0.35959  0.87850  Biso   1.000  C
  C34      1.0000 0.14730  0.30307  0.88160  Biso   1.000  C
  C35      1.0000 0.25260  0.27707  0.95010  Biso   1.000  C
  C36      1.0000 0.35880  0.30252  0.01240  Biso   1.000  C
  H21      1.0000 0.36070  0.33760  0.01240  Biso   1.000  H
  C37      1.0000 0.45900  0.27629  0.07300  Biso   1.000  C
  H22      1.0000 0.52810  0.29360  0.11480  Biso   1.000  H
  C38      1.0000 0.05220  0.27635  0.81430  Biso   1.000  C
  H23      1.0000 0.98590  0.29350  0.76750  Biso   1.000  H
  C39      1.0000 0.23970  0.50772  0.66500  Biso   1.000  C
  H24      1.0000 0.16430  0.52630  0.64410  Biso   1.000  H
  C40      1.0000 0.37420  0.45920  0.76330  Biso   1.000  C
  H25      1.0000 0.41180  0.43700  0.82590  Biso   1.000  H
  N13      1.0000 0.25150  0.47813  0.77570  Biso   1.000  N
  N14      1.0000 0.43510  0.47520  0.65410  Biso   1.000  N
  N15      1.0000 0.34790  0.50718  0.58960  Biso   1.000  N
  O9       1.0000 0.16930  0.38624  0.97810  Biso   1.000  O
  O10      1.0000 0.07790  0.37927  0.77940  Biso   1.000  O
  Zn6      1.0000 0.38448  0.54415  0.41333  Biso   1.000  Zn
  C41      1.0000 0.36810  0.64041  0.37850  Biso   1.000  C
  C42      1.0000 0.35270  0.69693  0.38160  Biso   1.000  C
  C43      1.0000 0.24740  0.72293  0.45010  Biso   1.000  C
  C44      1.0000 0.14120  0.69748  0.51240  Biso   1.000  C
  H26      1.0000 0.13930  0.66240  0.51240  Biso   1.000  H
  C45      1.0000 0.04100  0.72371  0.57300  Biso   1.000  C
  H27      1.0000 0.97190  0.70640  0.61480  Biso   1.000  H
  C46      1.0000 0.44780  0.72365  0.31430  Biso   1.000  C
  H28      1.0000 0.51410  0.70650  0.26750  Biso   1.000  H
  C47      1.0000 0.26030  0.49228  0.16500  Biso   1.000  C
  H29      1.0000 0.33570  0.47370  0.14410  Biso   1.000  H
  C48      1.0000 0.12580  0.54080  0.26330  Biso   1.000  C
  H30      1.0000 0.08820  0.56300  0.32590  Biso   1.000  H
  N16      1.0000 0.24850  0.52187  0.27570  Biso   1.000  N
  N17      1.0000 0.06490  0.52480  0.15410  Biso   1.000  N
  N18      1.0000 0.15210  0.49282  0.08960  Biso   1.000  N
  O11      1.0000 0.33070  0.61376  0.47810  Biso   1.000  O
  O12      1.0000 0.42210  0.62073  0.27940  Biso   1.000  O
  Zn7      1.0000 0.88448  0.95585  0.08667  Biso   1.000  Zn
  C49      1.0000 0.86810  0.85959  0.12150  Biso   1.000  C
  C50      1.0000 0.85270  0.80307  0.11840  Biso   1.000  C
  C51      1.0000 0.74740  0.77707  0.04990  Biso   1.000  C
  C52      1.0000 0.64120  0.80252  0.98760  Biso   1.000  C
  H31      1.0000 0.63930  0.83760  0.98760  Biso   1.000  H
  C53      1.0000 0.54100  0.77629  0.92700  Biso   1.000  C
  H32      1.0000 0.47190  0.79360  0.88520  Biso   1.000  H
  C54      1.0000 0.94780  0.77635  0.18570  Biso   1.000  C
  H33      1.0000 0.01410  0.79350  0.23250  Biso   1.000  H
  C55      1.0000 0.76030  0.00772  0.33500  Biso   1.000  C
  H34      1.0000 0.83570  0.02630  0.35590  Biso   1.000  H
  C56      1.0000 0.62580  0.95920  0.23670  Biso   1.000  C
  H35      1.0000 0.58820  0.93700  0.17410  Biso   1.000  H
  N19      1.0000 0.74850  0.97813  0.22430  Biso   1.000  N
  N20      1.0000 0.56490  0.97520  0.34590  Biso   1.000  N
  N21      1.0000 0.65210  0.00718  0.41040  Biso   1.000  N
  O13      1.0000 0.83070  0.88624  0.02190  Biso   1.000  O
  O14      1.0000 0.92210  0.87927  0.22060  Biso   1.000  O
  Zn8      1.0000 0.61552  0.04415  0.58667  Biso   1.000  Zn
  C57      1.0000 0.63190  0.14041  0.62150  Biso   1.000  C
  C58      1.0000 0.64730  0.19693  0.61840  Biso   1.000  C
  C59      1.0000 0.75260  0.22293  0.54990  Biso   1.000  C
  C60      1.0000 0.85880  0.19748  0.48760  Biso   1.000  C
  H36      1.0000 0.86070  0.16240  0.48760  Biso   1.000  H
  C61      1.0000 0.95900  0.22371  0.42700  Biso   1.000  C
  H37      1.0000 0.02810  0.20640  0.38520  Biso   1.000  H
  C62      1.0000 0.55220  0.22365  0.68570  Biso   1.000  C
  H38      1.0000 0.48590  0.20650  0.73250  Biso   1.000  H
  C63      1.0000 0.73970  0.99228  0.83500  Biso   1.000  C
  H39      1.0000 0.66430  0.97370  0.85590  Biso   1.000  H
  C64      1.0000 0.87420  0.04080  0.73670  Biso   1.000  C
  H40      1.0000 0.91180  0.06300  0.67410  Biso   1.000  H
  N22      1.0000 0.75150  0.02187  0.72430  Biso   1.000  N
  N23      1.0000 0.93510  0.02480  0.84590  Biso   1.000  N
  N24      1.0000 0.84790  0.99282  0.91040  Biso   1.000  N
  O15      1.0000 0.66930  0.11376  0.52190  Biso   1.000  O
  O16      1.0000 0.57790  0.12073  0.72060  Biso   1.000  O
