data_image0
_cell_length_a       14.7367
_cell_length_b       9.5763
_cell_length_c       9.892
_cell_angle_alpha    90
_cell_angle_beta     101.474
_cell_angle_gamma    90

_symmetry_space_group_name_H-M    "P 1"
_symmetry_int_tables_number       1

loop_
  _symmetry_equiv_pos_as_xyz
  'x, y, z'

loop_
  _atom_site_label
  _atom_site_occupancy
  _atom_site_fract_x
  _atom_site_fract_y
  _atom_site_fract_z
  _atom_site_thermal_displace_type
  _atom_site_B_iso_or_equiv
  _atom_site_type_symbol
  Zn1      1.0000 0.08728  0.07361  0.63678  Biso   1.000  Zn
  C1       1.0000 0.26780  0.09640  0.72740  Biso   1.000  C
  C2       1.0000 0.36330  0.07310  0.81900  Biso   1.000  C
  C3       1.0000 0.37260  0.99140  0.93160  Biso   1.000  C
  H1       1.0000 0.32040  0.95000  0.95380  Biso   1.000  H
  C4       1.0000 0.46120  0.96730  0.01750  Biso   1.000  C
  C5       1.0000 0.44070  0.14040  0.78490  Biso   1.000  C
  H2       1.0000 0.43350  0.19910  0.70850  Biso   1.000  H
  C6       1.0000 0.00550  0.83260  0.76760  Biso   1.000  C
  H3       1.0000 0.04260  0.84940  0.85370  Biso   1.000  H
  C7       1.0000 0.90770  0.74350  0.60860  Biso   1.000  C
  H4       1.0000 0.86240  0.68500  0.55950  Biso   1.000  H
  N1       1.0000 0.00620  0.90980  0.65960  Biso   1.000  N
  N2       1.0000 0.94130  0.85230  0.55450  Biso   1.000  N
  N3       1.0000 0.94550  0.72620  0.74170  Biso   1.000  N
  O1       1.0000 0.20610  0.00940  0.74440  Biso   1.000  O
  O2       1.0000 0.25500  0.19420  0.64800  Biso   1.000  O
  C8       1.0000 0.52620  0.11890  0.86450  Biso   1.000  C
  H5       1.0000 0.57740  0.16190  0.84070  Biso   1.000  H
  Zn2      1.0000 0.91272  0.57361  0.86322  Biso   1.000  Zn
  C9       1.0000 0.73220  0.59640  0.77260  Biso   1.000  C
  C10      1.0000 0.63670  0.57310  0.68100  Biso   1.000  C
  C11      1.0000 0.62740  0.49140  0.56840  Biso   1.000  C
  H6       1.0000 0.67960  0.45000  0.54620  Biso   1.000  H
  C12      1.0000 0.53880  0.46730  0.48250  Biso   1.000  C
  C13      1.0000 0.55930  0.64040  0.71510  Biso   1.000  C
  H7       1.0000 0.56650  0.69910  0.79150  Biso   1.000  H
  C14      1.0000 0.99450  0.33260  0.73240  Biso   1.000  C
  H8       1.0000 0.95740  0.34940  0.64630  Biso   1.000  H
  C15      1.0000 0.09230  0.24350  0.89140  Biso   1.000  C
  H9       1.0000 0.13760  0.18500  0.94050  Biso   1.000  H
  N4       1.0000 0.99380  0.40980  0.84040  Biso   1.000  N
  N5       1.0000 0.05870  0.35230  0.94550  Biso   1.000  N
  N6       1.0000 0.05450  0.22620  0.75830  Biso   1.000  N
  O3       1.0000 0.79390  0.50940  0.75560  Biso   1.000  O
  O4       1.0000 0.74500  0.69420  0.85200  Biso   1.000  O
  C16      1.0000 0.47380  0.61890  0.63550  Biso   1.000  C
  H10      1.0000 0.42260  0.66190  0.65930  Biso   1.000  H
  Zn3      1.0000 0.91272  0.92639  0.36322  Biso   1.000  Zn
  C17      1.0000 0.73220  0.90360  0.27260  Biso   1.000  C
  C18      1.0000 0.63670  0.92690  0.18100  Biso   1.000  C
  C19      1.0000 0.62740  0.00860  0.06840  Biso   1.000  C
  H11      1.0000 0.67960  0.05000  0.04620  Biso   1.000  H
  C20      1.0000 0.53880  0.03270  0.98250  Biso   1.000  C
  C21      1.0000 0.55930  0.85960  0.21510  Biso   1.000  C
  H12      1.0000 0.56650  0.80090  0.29150  Biso   1.000  H
  C22      1.0000 0.99450  0.16740  0.23240  Biso   1.000  C
  H13      1.0000 0.95740  0.15060  0.14630  Biso   1.000  H
  C23      1.0000 0.09230  0.25650  0.39140  Biso   1.000  C
  H14      1.0000 0.13760  0.31500  0.44050  Biso   1.000  H
  N7       1.0000 0.99380  0.09020  0.34040  Biso   1.000  N
  N8       1.0000 0.05870  0.14770  0.44550  Biso   1.000  N
  N9       1.0000 0.05450  0.27380  0.25830  Biso   1.000  N
  O5       1.0000 0.79390  0.99060  0.25560  Biso   1.000  O
  O6       1.0000 0.74500  0.80580  0.35200  Biso   1.000  O
  C24      1.0000 0.47380  0.88110  0.13550  Biso   1.000  C
  H15      1.0000 0.42260  0.83810  0.15930  Biso   1.000  H
  Zn4      1.0000 0.08728  0.42639  0.13678  Biso   1.000  Zn
  C25      1.0000 0.26780  0.40360  0.22740  Biso   1.000  C
  C26      1.0000 0.36330  0.42690  0.31900  Biso   1.000  C
  C27      1.0000 0.37260  0.50860  0.43160  Biso   1.000  C
  H16      1.0000 0.32040  0.55000  0.45380  Biso   1.000  H
  C28      1.0000 0.46120  0.53270  0.51750  Biso   1.000  C
  C29      1.0000 0.44070  0.35960  0.28490  Biso   1.000  C
  H17      1.0000 0.43350  0.30090  0.20850  Biso   1.000  H
  C30      1.0000 0.00550  0.66740  0.26760  Biso   1.000  C
  H18      1.0000 0.04260  0.65060  0.35370  Biso   1.000  H
  C31      1.0000 0.90770  0.75650  0.10860  Biso   1.000  C
  H19      1.0000 0.86240  0.81500  0.05950  Biso   1.000  H
  N10      1.0000 0.00620  0.59020  0.15960  Biso   1.000  N
  N11      1.0000 0.94130  0.64770  0.05450  Biso   1.000  N
  N12      1.0000 0.94550  0.77380  0.24170  Biso   1.000  N
  O7       1.0000 0.20610  0.49060  0.24440  Biso   1.000  O
  O8       1.0000 0.25500  0.30580  0.14800  Biso   1.000  O
  C32      1.0000 0.52620  0.38110  0.36450  Biso   1.000  C
  H20      1.0000 0.57740  0.33810  0.34070  Biso   1.000  H
