data_image0
_cell_length_a       9.3128
_cell_length_b       9.3227
_cell_length_c       9.3497
_cell_angle_alpha    103.17
_cell_angle_beta     93.6
_cell_angle_gamma    90.14

_symmetry_space_group_name_H-M    "P 1"
_symmetry_int_tables_number       1

loop_
  _symmetry_equiv_pos_as_xyz
  'x, y, z'

loop_
  _atom_site_label
  _atom_site_occupancy
  _atom_site_fract_x
  _atom_site_fract_y
  _atom_site_fract_z
  _atom_site_thermal_displace_type
  _atom_site_B_iso_or_equiv
  _atom_site_type_symbol
  Ga1      1.0000 0.43464  0.13698  0.58999  Biso   1.000  Ga
  Ga2      1.0000 0.84181  0.37514  0.57661  Biso   1.000  Ga
  Ga3      1.0000 0.61302  0.39625  0.16493  Biso   1.000  Ga
  P1       1.0000 0.35546  0.83302  0.64834  Biso   1.000  P
  P2       1.0000 0.18078  0.37569  0.59385  Biso   1.000  P
  P3       1.0000 0.62255  0.37697  0.82798  Biso   1.000  P
  O1       1.0000 0.38770  0.78460  0.79470  Biso   1.000  O
  O2       1.0000 0.46330  0.76470  0.53690  Biso   1.000  O
  O3       1.0000 0.20370  0.76980  0.58620  Biso   1.000  O
  O4       1.0000 0.34960  0.99960  0.68840  Biso   1.000  O
  O5       1.0000 0.25950  0.23310  0.56380  Biso   1.000  O
  O6       1.0000 0.17520  0.44090  0.45640  Biso   1.000  O
  O7       1.0000 0.02730  0.34340  0.62890  Biso   1.000  O
  O8       1.0000 0.24590  0.48820  0.72700  Biso   1.000  O
  O9       1.0000 0.50340  0.26550  0.77070  Biso   1.000  O
  O10      1.0000 0.75450  0.35360  0.73740  Biso   1.000  O
  O11      1.0000 0.56700  0.53260  0.83550  Biso   1.000  O
  O12      1.0000 0.67870  0.36410  0.98140  Biso   1.000  O
  F1       1.0000 0.39000  0.98300  0.40930  Biso   1.000  F
  Ga4      1.0000 0.56536  0.86302  0.41001  Biso   1.000  Ga
  Ga5      1.0000 0.15819  0.62486  0.42339  Biso   1.000  Ga
  Ga6      1.0000 0.38698  0.60375  0.83507  Biso   1.000  Ga
  P4       1.0000 0.64454  0.16698  0.35166  Biso   1.000  P
  P5       1.0000 0.81922  0.62431  0.40615  Biso   1.000  P
  P6       1.0000 0.37745  0.62303  0.17202  Biso   1.000  P
  O13      1.0000 0.61230  0.21540  0.20530  Biso   1.000  O
  O14      1.0000 0.53670  0.23530  0.46310  Biso   1.000  O
  O15      1.0000 0.79630  0.23020  0.41380  Biso   1.000  O
  O16      1.0000 0.65040  0.00040  0.31160  Biso   1.000  O
  O17      1.0000 0.74050  0.76690  0.43620  Biso   1.000  O
  O18      1.0000 0.82480  0.55910  0.54360  Biso   1.000  O
  O19      1.0000 0.97270  0.65660  0.37110  Biso   1.000  O
  O20      1.0000 0.75410  0.51180  0.27300  Biso   1.000  O
  O21      1.0000 0.49660  0.73450  0.22930  Biso   1.000  O
  O22      1.0000 0.24550  0.64640  0.26260  Biso   1.000  O
  O23      1.0000 0.43300  0.46740  0.16450  Biso   1.000  O
  O24      1.0000 0.32130  0.63590  0.01860  Biso   1.000  O
  F2       1.0000 0.61000  0.01700  0.59070  Biso   1.000  F
