data_image0
_cell_length_a       13.9877
_cell_length_b       11.9198
_cell_length_c       23.0454
_cell_angle_alpha    90
_cell_angle_beta     104.269
_cell_angle_gamma    90

_symmetry_space_group_name_H-M    "P 1"
_symmetry_int_tables_number       1

loop_
  _symmetry_equiv_pos_as_xyz
  'x, y, z'

loop_
  _atom_site_label
  _atom_site_occupancy
  _atom_site_fract_x
  _atom_site_fract_y
  _atom_site_fract_z
  _atom_site_thermal_displace_type
  _atom_site_B_iso_or_equiv
  _atom_site_type_symbol
  Ga1      1.0000 0.87215  0.54176  0.55326  Biso   1.000  Ga
  Ga2      1.0000 0.84060  0.67520  0.41129  Biso   1.000  Ga
  Ga3      1.0000 0.99755  0.13163  0.43825  Biso   1.000  Ga
  P1       1.0000 0.04793  0.65693  0.50613  Biso   1.000  P
  P2       1.0000 0.96089  0.55784  0.33069  Biso   1.000  P
  P3       1.0000 0.85088  0.92969  0.43814  Biso   1.000  P
  P4       1.0000 0.11594  0.22948  0.35888  Biso   1.000  P
  O1       1.0000 0.75900  0.00060  0.43280  Biso   1.000  O
  O2       1.0000 0.06240  0.54120  0.37229  Biso   1.000  O
  O3       1.0000 0.13770  0.60150  0.49149  Biso   1.000  O
  O4       1.0000 0.13360  0.31940  0.40501  Biso   1.000  O
  O5       1.0000 0.00140  0.58290  0.54509  Biso   1.000  O
  O6       1.0000 0.80650  0.61790  0.47829  Biso   1.000  O
  O7       1.0000 0.97640  0.69780  0.44918  Biso   1.000  O
  O8       1.0000 0.20380  0.15130  0.36525  Biso   1.000  O
  O9       1.0000 0.87290  0.56850  0.35954  Biso   1.000  O
  O10      1.0000 0.93150  0.45380  0.28953  Biso   1.000  O
  O11      1.0000 0.96440  0.66350  0.29274  Biso   1.000  O
  O12      1.0000 0.83120  0.83010  0.39573  Biso   1.000  O
  O13      1.0000 0.93300  0.99850  0.42189  Biso   1.000  O
  O14      1.0000 0.88630  0.89110  0.50455  Biso   1.000  O
  O15      1.0000 0.08810  0.76620  0.54319  Biso   1.000  O
  O16      1.0000 0.02550  0.15840  0.36547  Biso   1.000  O
  O17      1.0000 0.09260  0.27470  0.29491  Biso   1.000  O
  Ga4      1.0000 0.37215  0.04176  0.55326  Biso   1.000  Ga
  Ga5      1.0000 0.34060  0.17520  0.41129  Biso   1.000  Ga
  Ga6      1.0000 0.49755  0.63163  0.43825  Biso   1.000  Ga
  P5       1.0000 0.54793  0.15693  0.50613  Biso   1.000  P
  P6       1.0000 0.46089  0.05784  0.33069  Biso   1.000  P
  P7       1.0000 0.35088  0.42969  0.43814  Biso   1.000  P
  P8       1.0000 0.61594  0.72948  0.35888  Biso   1.000  P
  O18      1.0000 0.25900  0.50060  0.43280  Biso   1.000  O
  O19      1.0000 0.56240  0.04120  0.37229  Biso   1.000  O
  O20      1.0000 0.63770  0.10150  0.49149  Biso   1.000  O
  O21      1.0000 0.63360  0.81940  0.40501  Biso   1.000  O
  O22      1.0000 0.50140  0.08290  0.54509  Biso   1.000  O
  O23      1.0000 0.30650  0.11790  0.47829  Biso   1.000  O
  O24      1.0000 0.47640  0.19780  0.44918  Biso   1.000  O
  O25      1.0000 0.70380  0.65130  0.36525  Biso   1.000  O
  O26      1.0000 0.37290  0.06850  0.35954  Biso   1.000  O
  O27      1.0000 0.43150  0.95380  0.28953  Biso   1.000  O
  O28      1.0000 0.46440  0.16350  0.29274  Biso   1.000  O
  O29      1.0000 0.33120  0.33010  0.39573  Biso   1.000  O
  O30      1.0000 0.43300  0.49850  0.42189  Biso   1.000  O
  O31      1.0000 0.38630  0.39110  0.50455  Biso   1.000  O
  O32      1.0000 0.58810  0.26620  0.54319  Biso   1.000  O
  O33      1.0000 0.52550  0.65840  0.36547  Biso   1.000  O
  O34      1.0000 0.59260  0.77470  0.29491  Biso   1.000  O
  Ga7      1.0000 0.12785  0.54176  0.94674  Biso   1.000  Ga
  Ga8      1.0000 0.15940  0.67520  0.08871  Biso   1.000  Ga
  Ga9      1.0000 0.00245  0.13163  0.06175  Biso   1.000  Ga
  P9       1.0000 0.95207  0.65693  0.99387  Biso   1.000  P
  P10      1.0000 0.03911  0.55784  0.16931  Biso   1.000  P
  P11      1.0000 0.14912  0.92969  0.06186  Biso   1.000  P
  P12      1.0000 0.88406  0.22948  0.14112  Biso   1.000  P
  O35      1.0000 0.24100  0.00060  0.06720  Biso   1.000  O
  O36      1.0000 0.93760  0.54120  0.12771  Biso   1.000  O
  O37      1.0000 0.86230  0.60150  0.00851  Biso   1.000  O
  O38      1.0000 0.86640  0.31940  0.09499  Biso   1.000  O
  O39      1.0000 0.99860  0.58290  0.95491  Biso   1.000  O
  O40      1.0000 0.19350  0.61790  0.02171  Biso   1.000  O
  O41      1.0000 0.02360  0.69780  0.05082  Biso   1.000  O
  O42      1.0000 0.79620  0.15130  0.13475  Biso   1.000  O
  O43      1.0000 0.12710  0.56850  0.14046  Biso   1.000  O
  O44      1.0000 0.06850  0.45380  0.21047  Biso   1.000  O
  O45      1.0000 0.03560  0.66350  0.20726  Biso   1.000  O
  O46      1.0000 0.16880  0.83010  0.10427  Biso   1.000  O
  O47      1.0000 0.06700  0.99850  0.07811  Biso   1.000  O
  O48      1.0000 0.11370  0.89110  0.99545  Biso   1.000  O
  O49      1.0000 0.91190  0.76620  0.95681  Biso   1.000  O
  O50      1.0000 0.97450  0.15840  0.13453  Biso   1.000  O
  O51      1.0000 0.90740  0.27470  0.20509  Biso   1.000  O
  Ga10     1.0000 0.62785  0.04176  0.94674  Biso   1.000  Ga
  Ga11     1.0000 0.65940  0.17520  0.08871  Biso   1.000  Ga
  Ga12     1.0000 0.50245  0.63163  0.06175  Biso   1.000  Ga
  P13      1.0000 0.45207  0.15693  0.99387  Biso   1.000  P
  P14      1.0000 0.53911  0.05784  0.16931  Biso   1.000  P
  P15      1.0000 0.64912  0.42969  0.06186  Biso   1.000  P
  P16      1.0000 0.38406  0.72948  0.14112  Biso   1.000  P
  O52      1.0000 0.74100  0.50060  0.06720  Biso   1.000  O
  O53      1.0000 0.43760  0.04120  0.12771  Biso   1.000  O
  O54      1.0000 0.36230  0.10150  0.00851  Biso   1.000  O
  O55      1.0000 0.36640  0.81940  0.09499  Biso   1.000  O
  O56      1.0000 0.49860  0.08290  0.95491  Biso   1.000  O
  O57      1.0000 0.69350  0.11790  0.02171  Biso   1.000  O
  O58      1.0000 0.52360  0.19780  0.05082  Biso   1.000  O
  O59      1.0000 0.29620  0.65130  0.13475  Biso   1.000  O
  O60      1.0000 0.62710  0.06850  0.14046  Biso   1.000  O
  O61      1.0000 0.56850  0.95380  0.21047  Biso   1.000  O
  O62      1.0000 0.53560  0.16350  0.20726  Biso   1.000  O
  O63      1.0000 0.66880  0.33010  0.10427  Biso   1.000  O
  O64      1.0000 0.56700  0.49850  0.07811  Biso   1.000  O
  O65      1.0000 0.61370  0.39110  0.99545  Biso   1.000  O
  O66      1.0000 0.41190  0.26620  0.95681  Biso   1.000  O
  O67      1.0000 0.47450  0.65840  0.13453  Biso   1.000  O
  O68      1.0000 0.40740  0.77470  0.20509  Biso   1.000  O
  Ga13     1.0000 0.12785  0.45824  0.44674  Biso   1.000  Ga
  Ga14     1.0000 0.15940  0.32480  0.58871  Biso   1.000  Ga
  Ga15     1.0000 0.00245  0.86837  0.56175  Biso   1.000  Ga
  P17      1.0000 0.95207  0.34307  0.49387  Biso   1.000  P
  P18      1.0000 0.03911  0.44216  0.66931  Biso   1.000  P
  P19      1.0000 0.14912  0.07031  0.56186  Biso   1.000  P
  P20      1.0000 0.88406  0.77052  0.64112  Biso   1.000  P
  O69      1.0000 0.24100  0.99940  0.56720  Biso   1.000  O
  O70      1.0000 0.93760  0.45880  0.62771  Biso   1.000  O
  O71      1.0000 0.86230  0.39850  0.50851  Biso   1.000  O
  O72      1.0000 0.86640  0.68060  0.59499  Biso   1.000  O
  O73      1.0000 0.99860  0.41710  0.45491  Biso   1.000  O
  O74      1.0000 0.19350  0.38210  0.52171  Biso   1.000  O
  O75      1.0000 0.02360  0.30220  0.55082  Biso   1.000  O
  O76      1.0000 0.79620  0.84870  0.63475  Biso   1.000  O
  O77      1.0000 0.12710  0.43150  0.64046  Biso   1.000  O
  O78      1.0000 0.06850  0.54620  0.71047  Biso   1.000  O
  O79      1.0000 0.03560  0.33650  0.70726  Biso   1.000  O
  O80      1.0000 0.16880  0.16990  0.60427  Biso   1.000  O
  O81      1.0000 0.06700  0.00150  0.57811  Biso   1.000  O
  O82      1.0000 0.11370  0.10890  0.49545  Biso   1.000  O
  O83      1.0000 0.91190  0.23380  0.45681  Biso   1.000  O
  O84      1.0000 0.97450  0.84160  0.63453  Biso   1.000  O
  O85      1.0000 0.90740  0.72530  0.70509  Biso   1.000  O
  Ga16     1.0000 0.62785  0.95824  0.44674  Biso   1.000  Ga
  Ga17     1.0000 0.65940  0.82480  0.58871  Biso   1.000  Ga
  Ga18     1.0000 0.50245  0.36837  0.56175  Biso   1.000  Ga
  P21      1.0000 0.45207  0.84307  0.49387  Biso   1.000  P
  P22      1.0000 0.53911  0.94216  0.66931  Biso   1.000  P
  P23      1.0000 0.64912  0.57031  0.56186  Biso   1.000  P
  P24      1.0000 0.38406  0.27052  0.64112  Biso   1.000  P
  O86      1.0000 0.74100  0.49940  0.56720  Biso   1.000  O
  O87      1.0000 0.43760  0.95880  0.62771  Biso   1.000  O
  O88      1.0000 0.36230  0.89850  0.50851  Biso   1.000  O
  O89      1.0000 0.36640  0.18060  0.59499  Biso   1.000  O
  O90      1.0000 0.49860  0.91710  0.45491  Biso   1.000  O
  O91      1.0000 0.69350  0.88210  0.52171  Biso   1.000  O
  O92      1.0000 0.52360  0.80220  0.55082  Biso   1.000  O
  O93      1.0000 0.29620  0.34870  0.63475  Biso   1.000  O
  O94      1.0000 0.62710  0.93150  0.64046  Biso   1.000  O
  O95      1.0000 0.56850  0.04620  0.71047  Biso   1.000  O
  O96      1.0000 0.53560  0.83650  0.70726  Biso   1.000  O
  O97      1.0000 0.66880  0.66990  0.60427  Biso   1.000  O
  O98      1.0000 0.56700  0.50150  0.57811  Biso   1.000  O
  O99      1.0000 0.61370  0.60890  0.49545  Biso   1.000  O
  O100     1.0000 0.41190  0.73380  0.45681  Biso   1.000  O
  O101     1.0000 0.47450  0.34160  0.63453  Biso   1.000  O
  O102     1.0000 0.40740  0.22530  0.70509  Biso   1.000  O
  Ga19     1.0000 0.87215  0.45824  0.05326  Biso   1.000  Ga
  Ga20     1.0000 0.84060  0.32480  0.91129  Biso   1.000  Ga
  Ga21     1.0000 0.99755  0.86837  0.93825  Biso   1.000  Ga
  P25      1.0000 0.04793  0.34307  0.00613  Biso   1.000  P
  P26      1.0000 0.96089  0.44216  0.83069  Biso   1.000  P
  P27      1.0000 0.85088  0.07031  0.93814  Biso   1.000  P
  P28      1.0000 0.11594  0.77052  0.85888  Biso   1.000  P
  O103     1.0000 0.75900  0.99940  0.93280  Biso   1.000  O
  O104     1.0000 0.06240  0.45880  0.87229  Biso   1.000  O
  O105     1.0000 0.13770  0.39850  0.99149  Biso   1.000  O
  O106     1.0000 0.13360  0.68060  0.90501  Biso   1.000  O
  O107     1.0000 0.00140  0.41710  0.04509  Biso   1.000  O
  O108     1.0000 0.80650  0.38210  0.97829  Biso   1.000  O
  O109     1.0000 0.97640  0.30220  0.94918  Biso   1.000  O
  O110     1.0000 0.20380  0.84870  0.86525  Biso   1.000  O
  O111     1.0000 0.87290  0.43150  0.85954  Biso   1.000  O
  O112     1.0000 0.93150  0.54620  0.78953  Biso   1.000  O
  O113     1.0000 0.96440  0.33650  0.79274  Biso   1.000  O
  O114     1.0000 0.83120  0.16990  0.89573  Biso   1.000  O
  O115     1.0000 0.93300  0.00150  0.92189  Biso   1.000  O
  O116     1.0000 0.88630  0.10890  0.00455  Biso   1.000  O
  O117     1.0000 0.08810  0.23380  0.04319  Biso   1.000  O
  O118     1.0000 0.02550  0.84160  0.86547  Biso   1.000  O
  O119     1.0000 0.09260  0.72530  0.79491  Biso   1.000  O
  Ga22     1.0000 0.37215  0.95824  0.05326  Biso   1.000  Ga
  Ga23     1.0000 0.34060  0.82480  0.91129  Biso   1.000  Ga
  Ga24     1.0000 0.49755  0.36837  0.93825  Biso   1.000  Ga
  P29      1.0000 0.54793  0.84307  0.00613  Biso   1.000  P
  P30      1.0000 0.46089  0.94216  0.83069  Biso   1.000  P
  P31      1.0000 0.35088  0.57031  0.93814  Biso   1.000  P
  P32      1.0000 0.61594  0.27052  0.85888  Biso   1.000  P
  O120     1.0000 0.25900  0.49940  0.93280  Biso   1.000  O
  O121     1.0000 0.56240  0.95880  0.87229  Biso   1.000  O
  O122     1.0000 0.63770  0.89850  0.99149  Biso   1.000  O
  O123     1.0000 0.63360  0.18060  0.90501  Biso   1.000  O
  O124     1.0000 0.50140  0.91710  0.04509  Biso   1.000  O
  O125     1.0000 0.30650  0.88210  0.97829  Biso   1.000  O
  O126     1.0000 0.47640  0.80220  0.94918  Biso   1.000  O
  O127     1.0000 0.70380  0.34870  0.86525  Biso   1.000  O
  O128     1.0000 0.37290  0.93150  0.85954  Biso   1.000  O
  O129     1.0000 0.43150  0.04620  0.78953  Biso   1.000  O
  O130     1.0000 0.46440  0.83650  0.79274  Biso   1.000  O
  O131     1.0000 0.33120  0.66990  0.89573  Biso   1.000  O
  O132     1.0000 0.43300  0.50150  0.92189  Biso   1.000  O
  O133     1.0000 0.38630  0.60890  0.00455  Biso   1.000  O
  O134     1.0000 0.58810  0.73380  0.04319  Biso   1.000  O
  O135     1.0000 0.52550  0.34160  0.86547  Biso   1.000  O
  O136     1.0000 0.59260  0.22530  0.79491  Biso   1.000  O
  Ga25     1.0000 0.00000  0.36604  0.25000  Biso   1.000  Ga
  Ga26     1.0000 0.50000  0.86604  0.25000  Biso   1.000  Ga
  Ga27     1.0000 0.00000  0.63396  0.75000  Biso   1.000  Ga
  Ga28     1.0000 0.50000  0.13396  0.75000  Biso   1.000  Ga
