data_image0
_cell_length_a       9.507
_cell_length_b       9.507
_cell_length_c       17.443
_cell_angle_alpha    90
_cell_angle_beta     90
_cell_angle_gamma    120

_symmetry_space_group_name_H-M    "P 1"
_symmetry_int_tables_number       1

loop_
  _symmetry_equiv_pos_as_xyz
  'x, y, z'

loop_
  _atom_site_label
  _atom_site_occupancy
  _atom_site_fract_x
  _atom_site_fract_y
  _atom_site_fract_z
  _atom_site_thermal_displace_type
  _atom_site_B_iso_or_equiv
  _atom_site_type_symbol
  C1       1.0000 0.35010  0.18500  0.10460  Biso   1.000  C
  C2       1.0000 0.40090  0.09410  0.05140  Biso   1.000  C
  O1       1.0000 0.45000  0.27050  0.15490  Biso   1.000  O
  O2       1.0000 0.21460  0.17280  0.09530  Biso   1.000  O
  H1       1.0000 0.43070  0.02790  0.08100  Biso   1.000  H
  H2       1.0000 0.49470  0.16970  0.02270  Biso   1.000  H
  C3       1.0000 0.81500  0.16510  0.10460  Biso   1.000  C
  C4       1.0000 0.90590  0.30680  0.05140  Biso   1.000  C
  O3       1.0000 0.72950  0.17950  0.15490  Biso   1.000  O
  O4       1.0000 0.82720  0.04180  0.09530  Biso   1.000  O
  H3       1.0000 0.97210  0.40280  0.08100  Biso   1.000  H
  H4       1.0000 0.83030  0.32500  0.02270  Biso   1.000  H
  C5       1.0000 0.83490  0.64990  0.10460  Biso   1.000  C
  C6       1.0000 0.69320  0.59910  0.05140  Biso   1.000  C
  O5       1.0000 0.82050  0.55000  0.15490  Biso   1.000  O
  O6       1.0000 0.95820  0.78540  0.09530  Biso   1.000  O
  H5       1.0000 0.59720  0.56930  0.08100  Biso   1.000  H
  H6       1.0000 0.67500  0.50530  0.02270  Biso   1.000  H
  C7       1.0000 0.35010  0.18500  0.39540  Biso   1.000  C
  C8       1.0000 0.40090  0.09410  0.44860  Biso   1.000  C
  O7       1.0000 0.45000  0.27050  0.34510  Biso   1.000  O
  O8       1.0000 0.21460  0.17280  0.40470  Biso   1.000  O
  H7       1.0000 0.43070  0.02790  0.41900  Biso   1.000  H
  H8       1.0000 0.49470  0.16970  0.47730  Biso   1.000  H
  C9       1.0000 0.81500  0.16510  0.39540  Biso   1.000  C
  C10      1.0000 0.90590  0.30680  0.44860  Biso   1.000  C
  O9       1.0000 0.72950  0.17950  0.34510  Biso   1.000  O
  O10      1.0000 0.82720  0.04180  0.40470  Biso   1.000  O
  H9       1.0000 0.97210  0.40280  0.41900  Biso   1.000  H
  H10      1.0000 0.83030  0.32500  0.47730  Biso   1.000  H
  C11      1.0000 0.83490  0.64990  0.39540  Biso   1.000  C
  C12      1.0000 0.69320  0.59910  0.44860  Biso   1.000  C
  O11      1.0000 0.82050  0.55000  0.34510  Biso   1.000  O
  O12      1.0000 0.95820  0.78540  0.40470  Biso   1.000  O
  H11      1.0000 0.59720  0.56930  0.41900  Biso   1.000  H
  H12      1.0000 0.67500  0.50530  0.47730  Biso   1.000  H
  C13      1.0000 0.18500  0.35010  0.89540  Biso   1.000  C
  C14      1.0000 0.09410  0.40090  0.94860  Biso   1.000  C
  O13      1.0000 0.27050  0.45000  0.84510  Biso   1.000  O
  O14      1.0000 0.17280  0.21460  0.90470  Biso   1.000  O
  H13      1.0000 0.02790  0.43070  0.91900  Biso   1.000  H
  H14      1.0000 0.16970  0.49470  0.97730  Biso   1.000  H
  C15      1.0000 0.16510  0.81500  0.89540  Biso   1.000  C
  C16      1.0000 0.30680  0.90590  0.94860  Biso   1.000  C
  O15      1.0000 0.17950  0.72950  0.84510  Biso   1.000  O
  O16      1.0000 0.04180  0.82720  0.90470  Biso   1.000  O
  H15      1.0000 0.40280  0.97210  0.91900  Biso   1.000  H
  H16      1.0000 0.32500  0.83030  0.97730  Biso   1.000  H
  C17      1.0000 0.64990  0.83490  0.89540  Biso   1.000  C
  C18      1.0000 0.59910  0.69320  0.94860  Biso   1.000  C
  O17      1.0000 0.55000  0.82050  0.84510  Biso   1.000  O
  O18      1.0000 0.78540  0.95820  0.90470  Biso   1.000  O
  H17      1.0000 0.56930  0.59720  0.91900  Biso   1.000  H
  H18      1.0000 0.50530  0.67500  0.97730  Biso   1.000  H
  C19      1.0000 0.18500  0.35010  0.60460  Biso   1.000  C
  C20      1.0000 0.09410  0.40090  0.55140  Biso   1.000  C
  O19      1.0000 0.27050  0.45000  0.65490  Biso   1.000  O
  O20      1.0000 0.17280  0.21460  0.59530  Biso   1.000  O
  H19      1.0000 0.02790  0.43070  0.58100  Biso   1.000  H
  H20      1.0000 0.16970  0.49470  0.52270  Biso   1.000  H
  C21      1.0000 0.16510  0.81500  0.60460  Biso   1.000  C
  C22      1.0000 0.30680  0.90590  0.55140  Biso   1.000  C
  O21      1.0000 0.17950  0.72950  0.65490  Biso   1.000  O
  O22      1.0000 0.04180  0.82720  0.59530  Biso   1.000  O
  H21      1.0000 0.40280  0.97210  0.58100  Biso   1.000  H
  H22      1.0000 0.32500  0.83030  0.52270  Biso   1.000  H
  C23      1.0000 0.64990  0.83490  0.60460  Biso   1.000  C
  C24      1.0000 0.59910  0.69320  0.55140  Biso   1.000  C
  O23      1.0000 0.55000  0.82050  0.65490  Biso   1.000  O
  O24      1.0000 0.78540  0.95820  0.59530  Biso   1.000  O
  H23      1.0000 0.56930  0.59720  0.58100  Biso   1.000  H
  H24      1.0000 0.50530  0.67500  0.52270  Biso   1.000  H
  La1      1.0000 0.66667  0.33333  0.25000  Biso   1.000  La
  La2      1.0000 0.33333  0.66667  0.75000  Biso   1.000  La
  La3      1.0000 0.00000  0.00000  0.00000  Biso   1.000  La
  La4      1.0000 0.00000  0.00000  0.50000  Biso   1.000  La
  O25      1.0000 0.27160  0.00000  0.00000  Biso   1.000  O
  O26      1.0000 0.00000  0.27160  0.00000  Biso   1.000  O
  O27      1.0000 0.72840  0.72840  0.00000  Biso   1.000  O
  O28      1.0000 0.27160  0.00000  0.50000  Biso   1.000  O
  O29      1.0000 0.00000  0.27160  0.50000  Biso   1.000  O
  O30      1.0000 0.72840  0.72840  0.50000  Biso   1.000  O
