data_image0
_cell_length_a       20.4031
_cell_length_b       20.4031
_cell_length_c       20.4031
_cell_angle_alpha    90
_cell_angle_beta     90
_cell_angle_gamma    90

_symmetry_space_group_name_H-M    "P 1"
_symmetry_int_tables_number       1

loop_
  _symmetry_equiv_pos_as_xyz
  'x, y, z'

loop_
  _atom_site_label
  _atom_site_occupancy
  _atom_site_fract_x
  _atom_site_fract_y
  _atom_site_fract_z
  _atom_site_thermal_displace_type
  _atom_site_B_iso_or_equiv
  _atom_site_type_symbol
  O1       1.0000 0.58590  0.94600  0.66780  Biso   1.000  O
  O2       1.0000 0.53190  0.03640  0.68650  Biso   1.000  O
  C1       1.0000 0.53930  0.98520  0.65480  Biso   1.000  C
  C2       1.0000 0.49550  0.96910  0.59830  Biso   1.000  C
  C3       1.0000 0.44310  0.00970  0.58360  Biso   1.000  C
  H1       1.0000 0.43540  0.04670  0.60910  Biso   1.000  H
  O3       1.0000 0.08590  0.44600  0.16780  Biso   1.000  O
  O4       1.0000 0.03190  0.53640  0.18650  Biso   1.000  O
  C4       1.0000 0.03930  0.48520  0.15480  Biso   1.000  C
  C5       1.0000 0.99550  0.46910  0.09830  Biso   1.000  C
  C6       1.0000 0.94310  0.50970  0.08360  Biso   1.000  C
  H2       1.0000 0.93540  0.54670  0.10910  Biso   1.000  H
  O5       1.0000 0.91410  0.05400  0.16780  Biso   1.000  O
  O6       1.0000 0.96810  0.96360  0.18650  Biso   1.000  O
  C7       1.0000 0.96070  0.01480  0.15480  Biso   1.000  C
  C8       1.0000 0.00450  0.03090  0.09830  Biso   1.000  C
  C9       1.0000 0.05690  0.99030  0.08360  Biso   1.000  C
  H3       1.0000 0.06460  0.95330  0.10910  Biso   1.000  H
  O7       1.0000 0.41410  0.55400  0.66780  Biso   1.000  O
  O8       1.0000 0.46810  0.46360  0.68650  Biso   1.000  O
  C10      1.0000 0.46070  0.51480  0.65480  Biso   1.000  C
  C11      1.0000 0.50450  0.53090  0.59830  Biso   1.000  C
  C12      1.0000 0.55690  0.49030  0.58360  Biso   1.000  C
  H4       1.0000 0.56460  0.45330  0.60910  Biso   1.000  H
  O9       1.0000 0.41410  0.44600  0.83220  Biso   1.000  O
  O10      1.0000 0.46810  0.53640  0.81350  Biso   1.000  O
  C13      1.0000 0.46070  0.48520  0.84520  Biso   1.000  C
  C14      1.0000 0.50450  0.46910  0.90170  Biso   1.000  C
  C15      1.0000 0.55690  0.50970  0.91640  Biso   1.000  C
  H5       1.0000 0.56460  0.54670  0.89090  Biso   1.000  H
  O11      1.0000 0.91410  0.94600  0.33220  Biso   1.000  O
  O12      1.0000 0.96810  0.03640  0.31350  Biso   1.000  O
  C16      1.0000 0.96070  0.98520  0.34520  Biso   1.000  C
  C17      1.0000 0.00450  0.96910  0.40170  Biso   1.000  C
  C18      1.0000 0.05690  0.00970  0.41640  Biso   1.000  C
  H6       1.0000 0.06460  0.04670  0.39090  Biso   1.000  H
  O13      1.0000 0.08590  0.55400  0.33220  Biso   1.000  O
  O14      1.0000 0.03190  0.46360  0.31350  Biso   1.000  O
  C19      1.0000 0.03930  0.51480  0.34520  Biso   1.000  C
  C20      1.0000 0.99550  0.53090  0.40170  Biso   1.000  C
  C21      1.0000 0.94310  0.49030  0.41640  Biso   1.000  C
  H7       1.0000 0.93540  0.45330  0.39090  Biso   1.000  H
  O15      1.0000 0.58590  0.05400  0.83220  Biso   1.000  O
  O16      1.0000 0.53190  0.96360  0.81350  Biso   1.000  O
  C22      1.0000 0.53930  0.01480  0.84520  Biso   1.000  C
  C23      1.0000 0.49550  0.03090  0.90170  Biso   1.000  C
  C24      1.0000 0.44310  0.99030  0.91640  Biso   1.000  C
  H8       1.0000 0.43540  0.95330  0.89090  Biso   1.000  H
  O17      1.0000 0.66780  0.58590  0.94600  Biso   1.000  O
  O18      1.0000 0.68650  0.53190  0.03640  Biso   1.000  O
  C25      1.0000 0.65480  0.53930  0.98520  Biso   1.000  C
  C26      1.0000 0.59830  0.49550  0.96910  Biso   1.000  C
  C27      1.0000 0.58360  0.44310  0.00970  Biso   1.000  C
  H9       1.0000 0.60910  0.43540  0.04670  Biso   1.000  H
  O19      1.0000 0.16780  0.08590  0.44600  Biso   1.000  O
  O20      1.0000 0.18650  0.03190  0.53640  Biso   1.000  O
  C28      1.0000 0.15480  0.03930  0.48520  Biso   1.000  C
  C29      1.0000 0.09830  0.99550  0.46910  Biso   1.000  C
  C30      1.0000 0.08360  0.94310  0.50970  Biso   1.000  C
  H10      1.0000 0.10910  0.93540  0.54670  Biso   1.000  H
  O21      1.0000 0.16780  0.91410  0.05400  Biso   1.000  O
  O22      1.0000 0.18650  0.96810  0.96360  Biso   1.000  O
  C31      1.0000 0.15480  0.96070  0.01480  Biso   1.000  C
  C32      1.0000 0.09830  0.00450  0.03090  Biso   1.000  C
  C33      1.0000 0.08360  0.05690  0.99030  Biso   1.000  C
  H11      1.0000 0.10910  0.06460  0.95330  Biso   1.000  H
  O23      1.0000 0.66780  0.41410  0.55400  Biso   1.000  O
  O24      1.0000 0.68650  0.46810  0.46360  Biso   1.000  O
  C34      1.0000 0.65480  0.46070  0.51480  Biso   1.000  C
  C35      1.0000 0.59830  0.50450  0.53090  Biso   1.000  C
  C36      1.0000 0.58360  0.55690  0.49030  Biso   1.000  C
  H12      1.0000 0.60910  0.56460  0.45330  Biso   1.000  H
  O25      1.0000 0.83220  0.41410  0.44600  Biso   1.000  O
  O26      1.0000 0.81350  0.46810  0.53640  Biso   1.000  O
  C37      1.0000 0.84520  0.46070  0.48520  Biso   1.000  C
  C38      1.0000 0.90170  0.50450  0.46910  Biso   1.000  C
  C39      1.0000 0.91640  0.55690  0.50970  Biso   1.000  C
  H13      1.0000 0.89090  0.56460  0.54670  Biso   1.000  H
  O27      1.0000 0.33220  0.91410  0.94600  Biso   1.000  O
  O28      1.0000 0.31350  0.96810  0.03640  Biso   1.000  O
  C40      1.0000 0.34520  0.96070  0.98520  Biso   1.000  C
  C41      1.0000 0.40170  0.00450  0.96910  Biso   1.000  C
  C42      1.0000 0.41640  0.05690  0.00970  Biso   1.000  C
  H14      1.0000 0.39090  0.06460  0.04670  Biso   1.000  H
  O29      1.0000 0.33220  0.08590  0.55400  Biso   1.000  O
  O30      1.0000 0.31350  0.03190  0.46360  Biso   1.000  O
  C43      1.0000 0.34520  0.03930  0.51480  Biso   1.000  C
  C44      1.0000 0.40170  0.99550  0.53090  Biso   1.000  C
  C45      1.0000 0.41640  0.94310  0.49030  Biso   1.000  C
  H15      1.0000 0.39090  0.93540  0.45330  Biso   1.000  H
  O31      1.0000 0.83220  0.58590  0.05400  Biso   1.000  O
  O32      1.0000 0.81350  0.53190  0.96360  Biso   1.000  O
  C46      1.0000 0.84520  0.53930  0.01480  Biso   1.000  C
  C47      1.0000 0.90170  0.49550  0.03090  Biso   1.000  C
  C48      1.0000 0.91640  0.44310  0.99030  Biso   1.000  C
  H16      1.0000 0.89090  0.43540  0.95330  Biso   1.000  H
  O33      1.0000 0.94600  0.66780  0.58590  Biso   1.000  O
  O34      1.0000 0.03640  0.68650  0.53190  Biso   1.000  O
  C49      1.0000 0.98520  0.65480  0.53930  Biso   1.000  C
  C50      1.0000 0.96910  0.59830  0.49550  Biso   1.000  C
  C51      1.0000 0.00970  0.58360  0.44310  Biso   1.000  C
  H17      1.0000 0.04670  0.60910  0.43540  Biso   1.000  H
  O35      1.0000 0.44600  0.16780  0.08590  Biso   1.000  O
  O36      1.0000 0.53640  0.18650  0.03190  Biso   1.000  O
  C52      1.0000 0.48520  0.15480  0.03930  Biso   1.000  C
  C53      1.0000 0.46910  0.09830  0.99550  Biso   1.000  C
  C54      1.0000 0.50970  0.08360  0.94310  Biso   1.000  C
  H18      1.0000 0.54670  0.10910  0.93540  Biso   1.000  H
  O37      1.0000 0.05400  0.16780  0.91410  Biso   1.000  O
  O38      1.0000 0.96360  0.18650  0.96810  Biso   1.000  O
  C55      1.0000 0.01480  0.15480  0.96070  Biso   1.000  C
  C56      1.0000 0.03090  0.09830  0.00450  Biso   1.000  C
  C57      1.0000 0.99030  0.08360  0.05690  Biso   1.000  C
  H19      1.0000 0.95330  0.10910  0.06460  Biso   1.000  H
  O39      1.0000 0.55400  0.66780  0.41410  Biso   1.000  O
  O40      1.0000 0.46360  0.68650  0.46810  Biso   1.000  O
  C58      1.0000 0.51480  0.65480  0.46070  Biso   1.000  C
  C59      1.0000 0.53090  0.59830  0.50450  Biso   1.000  C
  C60      1.0000 0.49030  0.58360  0.55690  Biso   1.000  C
  H20      1.0000 0.45330  0.60910  0.56460  Biso   1.000  H
  O41      1.0000 0.44600  0.83220  0.41410  Biso   1.000  O
  O42      1.0000 0.53640  0.81350  0.46810  Biso   1.000  O
  C61      1.0000 0.48520  0.84520  0.46070  Biso   1.000  C
  C62      1.0000 0.46910  0.90170  0.50450  Biso   1.000  C
  C63      1.0000 0.50970  0.91640  0.55690  Biso   1.000  C
  H21      1.0000 0.54670  0.89090  0.56460  Biso   1.000  H
  O43      1.0000 0.94600  0.33220  0.91410  Biso   1.000  O
  O44      1.0000 0.03640  0.31350  0.96810  Biso   1.000  O
  C64      1.0000 0.98520  0.34520  0.96070  Biso   1.000  C
  C65      1.0000 0.96910  0.40170  0.00450  Biso   1.000  C
  C66      1.0000 0.00970  0.41640  0.05690  Biso   1.000  C
  H22      1.0000 0.04670  0.39090  0.06460  Biso   1.000  H
  O45      1.0000 0.55400  0.33220  0.08590  Biso   1.000  O
  O46      1.0000 0.46360  0.31350  0.03190  Biso   1.000  O
  C67      1.0000 0.51480  0.34520  0.03930  Biso   1.000  C
  C68      1.0000 0.53090  0.40170  0.99550  Biso   1.000  C
  C69      1.0000 0.49030  0.41640  0.94310  Biso   1.000  C
  H23      1.0000 0.45330  0.39090  0.93540  Biso   1.000  H
  O47      1.0000 0.05400  0.83220  0.58590  Biso   1.000  O
  O48      1.0000 0.96360  0.81350  0.53190  Biso   1.000  O
  C70      1.0000 0.01480  0.84520  0.53930  Biso   1.000  C
  C71      1.0000 0.03090  0.90170  0.49550  Biso   1.000  C
  C72      1.0000 0.99030  0.91640  0.44310  Biso   1.000  C
  H24      1.0000 0.95330  0.89090  0.43540  Biso   1.000  H
  O49      1.0000 0.19600  0.83590  0.91780  Biso   1.000  O
  O50      1.0000 0.28640  0.78190  0.93650  Biso   1.000  O
  C73      1.0000 0.23520  0.78930  0.90480  Biso   1.000  C
  C74      1.0000 0.21910  0.74550  0.84830  Biso   1.000  C
  C75      1.0000 0.25970  0.69310  0.83360  Biso   1.000  C
  H25      1.0000 0.29670  0.68540  0.85910  Biso   1.000  H
  O51      1.0000 0.69600  0.33590  0.41780  Biso   1.000  O
  O52      1.0000 0.78640  0.28190  0.43650  Biso   1.000  O
  C76      1.0000 0.73520  0.28930  0.40480  Biso   1.000  C
  C77      1.0000 0.71910  0.24550  0.34830  Biso   1.000  C
  C78      1.0000 0.75970  0.19310  0.33360  Biso   1.000  C
  H26      1.0000 0.79670  0.18540  0.35910  Biso   1.000  H
  O53      1.0000 0.30400  0.16410  0.41780  Biso   1.000  O
  O54      1.0000 0.21360  0.21810  0.43650  Biso   1.000  O
  C79      1.0000 0.26480  0.21070  0.40480  Biso   1.000  C
  C80      1.0000 0.28090  0.25450  0.34830  Biso   1.000  C
  C81      1.0000 0.24030  0.30690  0.33360  Biso   1.000  C
  H27      1.0000 0.20330  0.31460  0.35910  Biso   1.000  H
  O55      1.0000 0.80400  0.66410  0.91780  Biso   1.000  O
  O56      1.0000 0.71360  0.71810  0.93650  Biso   1.000  O
  C82      1.0000 0.76480  0.71070  0.90480  Biso   1.000  C
  C83      1.0000 0.78090  0.75450  0.84830  Biso   1.000  C
  C84      1.0000 0.74030  0.80690  0.83360  Biso   1.000  C
  H28      1.0000 0.70330  0.81460  0.85910  Biso   1.000  H
  O57      1.0000 0.69600  0.66410  0.08220  Biso   1.000  O
  O58      1.0000 0.78640  0.71810  0.06350  Biso   1.000  O
  C85      1.0000 0.73520  0.71070  0.09520  Biso   1.000  C
  C86      1.0000 0.71910  0.75450  0.15170  Biso   1.000  C
  C87      1.0000 0.75970  0.80690  0.16640  Biso   1.000  C
  H29      1.0000 0.79670  0.81460  0.14090  Biso   1.000  H
  O59      1.0000 0.19600  0.16410  0.58220  Biso   1.000  O
  O60      1.0000 0.28640  0.21810  0.56350  Biso   1.000  O
  C88      1.0000 0.23520  0.21070  0.59520  Biso   1.000  C
  C89      1.0000 0.21910  0.25450  0.65170  Biso   1.000  C
  C90      1.0000 0.25970  0.30690  0.66640  Biso   1.000  C
  H30      1.0000 0.29670  0.31460  0.64090  Biso   1.000  H
  O61      1.0000 0.80400  0.33590  0.58220  Biso   1.000  O
  O62      1.0000 0.71360  0.28190  0.56350  Biso   1.000  O
  C91      1.0000 0.76480  0.28930  0.59520  Biso   1.000  C
  C92      1.0000 0.78090  0.24550  0.65170  Biso   1.000  C
  C93      1.0000 0.74030  0.19310  0.66640  Biso   1.000  C
  H31      1.0000 0.70330  0.18540  0.64090  Biso   1.000  H
  O63      1.0000 0.30400  0.83590  0.08220  Biso   1.000  O
  O64      1.0000 0.21360  0.78190  0.06350  Biso   1.000  O
  C94      1.0000 0.26480  0.78930  0.09520  Biso   1.000  C
  C95      1.0000 0.28090  0.74550  0.15170  Biso   1.000  C
  C96      1.0000 0.24030  0.69310  0.16640  Biso   1.000  C
  H32      1.0000 0.20330  0.68540  0.14090  Biso   1.000  H
  O65      1.0000 0.83590  0.91780  0.19600  Biso   1.000  O
  O66      1.0000 0.78190  0.93650  0.28640  Biso   1.000  O
  C97      1.0000 0.78930  0.90480  0.23520  Biso   1.000  C
  C98      1.0000 0.74550  0.84830  0.21910  Biso   1.000  C
  C99      1.0000 0.69310  0.83360  0.25970  Biso   1.000  C
  H33      1.0000 0.68540  0.85910  0.29670  Biso   1.000  H
  O67      1.0000 0.33590  0.41780  0.69600  Biso   1.000  O
  O68      1.0000 0.28190  0.43650  0.78640  Biso   1.000  O
  C100     1.0000 0.28930  0.40480  0.73520  Biso   1.000  C
  C101     1.0000 0.24550  0.34830  0.71910  Biso   1.000  C
  C102     1.0000 0.19310  0.33360  0.75970  Biso   1.000  C
  H34      1.0000 0.18540  0.35910  0.79670  Biso   1.000  H
  O69      1.0000 0.16410  0.41780  0.30400  Biso   1.000  O
  O70      1.0000 0.21810  0.43650  0.21360  Biso   1.000  O
  C103     1.0000 0.21070  0.40480  0.26480  Biso   1.000  C
  C104     1.0000 0.25450  0.34830  0.28090  Biso   1.000  C
  C105     1.0000 0.30690  0.33360  0.24030  Biso   1.000  C
  H35      1.0000 0.31460  0.35910  0.20330  Biso   1.000  H
  O71      1.0000 0.66410  0.91780  0.80400  Biso   1.000  O
  O72      1.0000 0.71810  0.93650  0.71360  Biso   1.000  O
  C106     1.0000 0.71070  0.90480  0.76480  Biso   1.000  C
  C107     1.0000 0.75450  0.84830  0.78090  Biso   1.000  C
  C108     1.0000 0.80690  0.83360  0.74030  Biso   1.000  C
  H36      1.0000 0.81460  0.85910  0.70330  Biso   1.000  H
  O73      1.0000 0.66410  0.08220  0.69600  Biso   1.000  O
  O74      1.0000 0.71810  0.06350  0.78640  Biso   1.000  O
  C109     1.0000 0.71070  0.09520  0.73520  Biso   1.000  C
  C110     1.0000 0.75450  0.15170  0.71910  Biso   1.000  C
  C111     1.0000 0.80690  0.16640  0.75970  Biso   1.000  C
  H37      1.0000 0.81460  0.14090  0.79670  Biso   1.000  H
  O75      1.0000 0.16410  0.58220  0.19600  Biso   1.000  O
  O76      1.0000 0.21810  0.56350  0.28640  Biso   1.000  O
  C112     1.0000 0.21070  0.59520  0.23520  Biso   1.000  C
  C113     1.0000 0.25450  0.65170  0.21910  Biso   1.000  C
  C114     1.0000 0.30690  0.66640  0.25970  Biso   1.000  C
  H38      1.0000 0.31460  0.64090  0.29670  Biso   1.000  H
  O77      1.0000 0.33590  0.58220  0.80400  Biso   1.000  O
  O78      1.0000 0.28190  0.56350  0.71360  Biso   1.000  O
  C115     1.0000 0.28930  0.59520  0.76480  Biso   1.000  C
  C116     1.0000 0.24550  0.65170  0.78090  Biso   1.000  C
  C117     1.0000 0.19310  0.66640  0.74030  Biso   1.000  C
  H39      1.0000 0.18540  0.64090  0.70330  Biso   1.000  H
  O79      1.0000 0.83590  0.08220  0.30400  Biso   1.000  O
  O80      1.0000 0.78190  0.06350  0.21360  Biso   1.000  O
  C118     1.0000 0.78930  0.09520  0.26480  Biso   1.000  C
  C119     1.0000 0.74550  0.15170  0.28090  Biso   1.000  C
  C120     1.0000 0.69310  0.16640  0.24030  Biso   1.000  C
  H40      1.0000 0.68540  0.14090  0.20330  Biso   1.000  H
  O81      1.0000 0.91780  0.19600  0.83590  Biso   1.000  O
  O82      1.0000 0.93650  0.28640  0.78190  Biso   1.000  O
  C121     1.0000 0.90480  0.23520  0.78930  Biso   1.000  C
  C122     1.0000 0.84830  0.21910  0.74550  Biso   1.000  C
  C123     1.0000 0.83360  0.25970  0.69310  Biso   1.000  C
  H41      1.0000 0.85910  0.29670  0.68540  Biso   1.000  H
  O83      1.0000 0.41780  0.69600  0.33590  Biso   1.000  O
  O84      1.0000 0.43650  0.78640  0.28190  Biso   1.000  O
  C124     1.0000 0.40480  0.73520  0.28930  Biso   1.000  C
  C125     1.0000 0.34830  0.71910  0.24550  Biso   1.000  C
  C126     1.0000 0.33360  0.75970  0.19310  Biso   1.000  C
  H42      1.0000 0.35910  0.79670  0.18540  Biso   1.000  H
  O85      1.0000 0.41780  0.30400  0.16410  Biso   1.000  O
  O86      1.0000 0.43650  0.21360  0.21810  Biso   1.000  O
  C127     1.0000 0.40480  0.26480  0.21070  Biso   1.000  C
  C128     1.0000 0.34830  0.28090  0.25450  Biso   1.000  C
  C129     1.0000 0.33360  0.24030  0.30690  Biso   1.000  C
  H43      1.0000 0.35910  0.20330  0.31460  Biso   1.000  H
  O87      1.0000 0.91780  0.80400  0.66410  Biso   1.000  O
  O88      1.0000 0.93650  0.71360  0.71810  Biso   1.000  O
  C130     1.0000 0.90480  0.76480  0.71070  Biso   1.000  C
  C131     1.0000 0.84830  0.78090  0.75450  Biso   1.000  C
  C132     1.0000 0.83360  0.74030  0.80690  Biso   1.000  C
  H44      1.0000 0.85910  0.70330  0.81460  Biso   1.000  H
  O89      1.0000 0.08220  0.69600  0.66410  Biso   1.000  O
  O90      1.0000 0.06350  0.78640  0.71810  Biso   1.000  O
  C133     1.0000 0.09520  0.73520  0.71070  Biso   1.000  C
  C134     1.0000 0.15170  0.71910  0.75450  Biso   1.000  C
  C135     1.0000 0.16640  0.75970  0.80690  Biso   1.000  C
  H45      1.0000 0.14090  0.79670  0.81460  Biso   1.000  H
  O91      1.0000 0.58220  0.19600  0.16410  Biso   1.000  O
  O92      1.0000 0.56350  0.28640  0.21810  Biso   1.000  O
  C136     1.0000 0.59520  0.23520  0.21070  Biso   1.000  C
  C137     1.0000 0.65170  0.21910  0.25450  Biso   1.000  C
  C138     1.0000 0.66640  0.25970  0.30690  Biso   1.000  C
  H46      1.0000 0.64090  0.29670  0.31460  Biso   1.000  H
  O93      1.0000 0.58220  0.80400  0.33590  Biso   1.000  O
  O94      1.0000 0.56350  0.71360  0.28190  Biso   1.000  O
  C139     1.0000 0.59520  0.76480  0.28930  Biso   1.000  C
  C140     1.0000 0.65170  0.78090  0.24550  Biso   1.000  C
  C141     1.0000 0.66640  0.74030  0.19310  Biso   1.000  C
  H47      1.0000 0.64090  0.70330  0.18540  Biso   1.000  H
  O95      1.0000 0.08220  0.30400  0.83590  Biso   1.000  O
  O96      1.0000 0.06350  0.21360  0.78190  Biso   1.000  O
  C142     1.0000 0.09520  0.26480  0.78930  Biso   1.000  C
  C143     1.0000 0.15170  0.28090  0.74550  Biso   1.000  C
  C144     1.0000 0.16640  0.24030  0.69310  Biso   1.000  C
  H48      1.0000 0.14090  0.20330  0.68540  Biso   1.000  H
  In1      1.0000 0.62500  0.00000  0.75000  Biso   1.000  In
  In2      1.0000 0.87500  0.00000  0.25000  Biso   1.000  In
  In3      1.0000 0.37500  0.50000  0.75000  Biso   1.000  In
  In4      1.0000 0.12500  0.50000  0.25000  Biso   1.000  In
  In5      1.0000 0.75000  0.62500  0.00000  Biso   1.000  In
  In6      1.0000 0.25000  0.87500  0.00000  Biso   1.000  In
  In7      1.0000 0.75000  0.37500  0.50000  Biso   1.000  In
  In8      1.0000 0.25000  0.12500  0.50000  Biso   1.000  In
  In9      1.0000 0.00000  0.75000  0.62500  Biso   1.000  In
  In10     1.0000 0.00000  0.25000  0.87500  Biso   1.000  In
  In11     1.0000 0.50000  0.75000  0.37500  Biso   1.000  In
  In12     1.0000 0.50000  0.25000  0.12500  Biso   1.000  In
