data_image0
_cell_length_a       9.048
_cell_length_b       9.465
_cell_length_c       15.584
_cell_angle_alpha    90
_cell_angle_beta     90.79
_cell_angle_gamma    90

_symmetry_space_group_name_H-M    "P 1"
_symmetry_int_tables_number       1

loop_
  _symmetry_equiv_pos_as_xyz
  'x, y, z'

loop_
  _atom_site_label
  _atom_site_occupancy
  _atom_site_fract_x
  _atom_site_fract_y
  _atom_site_fract_z
  _atom_site_thermal_displace_type
  _atom_site_B_iso_or_equiv
  _atom_site_type_symbol
  U1       1.0000 0.24313  0.50567  0.67534  Biso   1.000  U
  O1       1.0000 0.18200  0.61820  0.80490  Biso   1.000  O
  O2       1.0000 0.14410  0.80470  0.88610  Biso   1.000  O
  O3       1.0000 0.37610  0.39380  0.78630  Biso   1.000  O
  O4       1.0000 0.39850  0.20310  0.86640  Biso   1.000  O
  C1       1.0000 0.13290  0.67380  0.87180  Biso   1.000  C
  C2       1.0000 0.06530  0.58610  0.93640  Biso   1.000  C
  C3       1.0000 0.04990  0.43810  0.92460  Biso   1.000  C
  H1       1.0000 0.08280  0.39670  0.87420  Biso   1.000  H
  C4       1.0000 0.98700  0.35520  0.98660  Biso   1.000  C
  H2       1.0000 0.97880  0.25830  0.97760  Biso   1.000  H
  C5       1.0000 0.51140  0.43890  0.08110  Biso   1.000  C
  H3       1.0000 0.51880  0.39820  0.13530  Biso   1.000  H
  C6       1.0000 0.46720  0.35500  0.00970  Biso   1.000  C
  H4       1.0000 0.44600  0.25960  0.01670  Biso   1.000  H
  C7       1.0000 0.45610  0.41740  0.92930  Biso   1.000  C
  C8       1.0000 0.40480  0.33300  0.85670  Biso   1.000  C
  U2       1.0000 0.25687  0.00567  0.82466  Biso   1.000  U
  O5       1.0000 0.31800  0.11820  0.69510  Biso   1.000  O
  O6       1.0000 0.35590  0.30470  0.61390  Biso   1.000  O
  O7       1.0000 0.12390  0.89380  0.71370  Biso   1.000  O
  O8       1.0000 0.10150  0.70310  0.63360  Biso   1.000  O
  C9       1.0000 0.36710  0.17380  0.62820  Biso   1.000  C
  C10      1.0000 0.43470  0.08610  0.56360  Biso   1.000  C
  C11      1.0000 0.45010  0.93810  0.57540  Biso   1.000  C
  H5       1.0000 0.41720  0.89670  0.62580  Biso   1.000  H
  C12      1.0000 0.51300  0.85520  0.51340  Biso   1.000  C
  H6       1.0000 0.52120  0.75830  0.52240  Biso   1.000  H
  C13      1.0000 0.98860  0.93890  0.41890  Biso   1.000  C
  H7       1.0000 0.98120  0.89820  0.36470  Biso   1.000  H
  C14      1.0000 0.03280  0.85500  0.49030  Biso   1.000  C
  H8       1.0000 0.05400  0.75960  0.48330  Biso   1.000  H
  C15      1.0000 0.04390  0.91740  0.57070  Biso   1.000  C
  C16      1.0000 0.09520  0.83300  0.64330  Biso   1.000  C
  U3       1.0000 0.75687  0.49433  0.32466  Biso   1.000  U
  O9       1.0000 0.81800  0.38180  0.19510  Biso   1.000  O
  O10      1.0000 0.85590  0.19530  0.11390  Biso   1.000  O
  O11      1.0000 0.62390  0.60620  0.21370  Biso   1.000  O
  O12      1.0000 0.60150  0.79690  0.13360  Biso   1.000  O
  C17      1.0000 0.86710  0.32620  0.12820  Biso   1.000  C
  C18      1.0000 0.93470  0.41390  0.06360  Biso   1.000  C
  C19      1.0000 0.95010  0.56190  0.07540  Biso   1.000  C
  H9       1.0000 0.91720  0.60330  0.12580  Biso   1.000  H
  C20      1.0000 0.01300  0.64480  0.01340  Biso   1.000  C
  H10      1.0000 0.02120  0.74170  0.02240  Biso   1.000  H
  C21      1.0000 0.48860  0.56110  0.91890  Biso   1.000  C
  H11      1.0000 0.48120  0.60180  0.86470  Biso   1.000  H
  C22      1.0000 0.53280  0.64500  0.99030  Biso   1.000  C
  H12      1.0000 0.55400  0.74040  0.98330  Biso   1.000  H
  C23      1.0000 0.54390  0.58260  0.07070  Biso   1.000  C
  C24      1.0000 0.59520  0.66700  0.14330  Biso   1.000  C
  U4       1.0000 0.74313  0.99433  0.17534  Biso   1.000  U
  O13      1.0000 0.68200  0.88180  0.30490  Biso   1.000  O
  O14      1.0000 0.64410  0.69530  0.38610  Biso   1.000  O
  O15      1.0000 0.87610  0.10620  0.28630  Biso   1.000  O
  O16      1.0000 0.89850  0.29690  0.36640  Biso   1.000  O
  C25      1.0000 0.63290  0.82620  0.37180  Biso   1.000  C
  C26      1.0000 0.56530  0.91390  0.43640  Biso   1.000  C
  C27      1.0000 0.54990  0.06190  0.42460  Biso   1.000  C
  H13      1.0000 0.58280  0.10330  0.37420  Biso   1.000  H
  C28      1.0000 0.48700  0.14480  0.48660  Biso   1.000  C
  H14      1.0000 0.47880  0.24170  0.47760  Biso   1.000  H
  C29      1.0000 0.01140  0.06110  0.58110  Biso   1.000  C
  H15      1.0000 0.01880  0.10180  0.63530  Biso   1.000  H
  C30      1.0000 0.96720  0.14500  0.50970  Biso   1.000  C
  H16      1.0000 0.94600  0.24040  0.51670  Biso   1.000  H
  C31      1.0000 0.95610  0.08260  0.42930  Biso   1.000  C
  C32      1.0000 0.90480  0.16700  0.35670  Biso   1.000  C
