data_image0
_cell_length_a       25.098
_cell_length_b       25.098
_cell_length_c       28.4464
_cell_angle_alpha    90
_cell_angle_beta     90
_cell_angle_gamma    120

_symmetry_space_group_name_H-M    "P 1"
_symmetry_int_tables_number       1

loop_
  _symmetry_equiv_pos_as_xyz
  'x, y, z'

loop_
  _atom_site_label
  _atom_site_occupancy
  _atom_site_fract_x
  _atom_site_fract_y
  _atom_site_fract_z
  _atom_site_thermal_displace_type
  _atom_site_B_iso_or_equiv
  _atom_site_type_symbol
  O1       1.0000 0.69687  0.16153  0.07891  Biso   1.000  O
  O2       1.0000 0.63641  0.19327  0.05136  Biso   1.000  O
  C1       1.0000 0.66075  0.18251  0.08539  Biso   1.000  C
  C2       1.0000 0.64650  0.19340  0.13425  Biso   1.000  C
  C3       1.0000 0.67330  0.18140  0.17242  Biso   1.000  C
  H1       1.0000 0.70240  0.16930  0.16760  Biso   1.000  H
  C4       1.0000 0.60640  0.21480  0.14190  Biso   1.000  C
  H2       1.0000 0.58990  0.22500  0.11650  Biso   1.000  H
  C5       1.0000 0.65630  0.18740  0.21798  Biso   1.000  C
  H3       1.0000 0.67370  0.17850  0.24350  Biso   1.000  H
  C6       1.0000 0.59040  0.22130  0.18737  Biso   1.000  C
  H4       1.0000 0.56320  0.23580  0.19210  Biso   1.000  H
  C7       1.0000 0.61420  0.20650  0.22557  Biso   1.000  C
  O3       1.0000 0.83847  0.53534  0.07891  Biso   1.000  O
  O4       1.0000 0.80673  0.44314  0.05136  Biso   1.000  O
  C8       1.0000 0.81749  0.47824  0.08539  Biso   1.000  C
  C9       1.0000 0.80660  0.45310  0.13425  Biso   1.000  C
  C10      1.0000 0.81860  0.49190  0.17242  Biso   1.000  C
  H5       1.0000 0.83070  0.53310  0.16760  Biso   1.000  H
  C11      1.0000 0.78520  0.39160  0.14190  Biso   1.000  C
  H6       1.0000 0.77500  0.36490  0.11650  Biso   1.000  H
  C12      1.0000 0.81260  0.46890  0.21798  Biso   1.000  C
  H7       1.0000 0.82150  0.49520  0.24350  Biso   1.000  H
  C13      1.0000 0.77870  0.36910  0.18737  Biso   1.000  C
  H8       1.0000 0.76420  0.32740  0.19210  Biso   1.000  H
  C14      1.0000 0.79350  0.40770  0.22557  Biso   1.000  C
  O5       1.0000 0.46466  0.30313  0.07891  Biso   1.000  O
  O6       1.0000 0.55686  0.36359  0.05136  Biso   1.000  O
  C15      1.0000 0.52176  0.33925  0.08539  Biso   1.000  C
  C16      1.0000 0.54690  0.35350  0.13425  Biso   1.000  C
  C17      1.0000 0.50810  0.32670  0.17242  Biso   1.000  C
  H9       1.0000 0.46690  0.29760  0.16760  Biso   1.000  H
  C18      1.0000 0.60840  0.39360  0.14190  Biso   1.000  C
  H10      1.0000 0.63510  0.41010  0.11650  Biso   1.000  H
  C19      1.0000 0.53110  0.34370  0.21798  Biso   1.000  C
  H11      1.0000 0.50480  0.32630  0.24350  Biso   1.000  H
  C20      1.0000 0.63090  0.40960  0.18737  Biso   1.000  C
  H12      1.0000 0.67260  0.43680  0.19210  Biso   1.000  H
  C21      1.0000 0.59230  0.38580  0.22557  Biso   1.000  C
  O7       1.0000 0.30313  0.83847  0.07891  Biso   1.000  O
  O8       1.0000 0.36359  0.80673  0.05136  Biso   1.000  O
  C22      1.0000 0.33925  0.81749  0.08539  Biso   1.000  C
  C23      1.0000 0.35350  0.80660  0.13425  Biso   1.000  C
  C24      1.0000 0.32670  0.81860  0.17242  Biso   1.000  C
  H13      1.0000 0.29760  0.83070  0.16760  Biso   1.000  H
  C25      1.0000 0.39360  0.78520  0.14190  Biso   1.000  C
  H14      1.0000 0.41010  0.77500  0.11650  Biso   1.000  H
  C26      1.0000 0.34370  0.81260  0.21798  Biso   1.000  C
  H15      1.0000 0.32630  0.82150  0.24350  Biso   1.000  H
  C27      1.0000 0.40960  0.77870  0.18737  Biso   1.000  C
  H16      1.0000 0.43680  0.76420  0.19210  Biso   1.000  H
  C28      1.0000 0.38580  0.79350  0.22557  Biso   1.000  C
  O9       1.0000 0.16153  0.46466  0.07891  Biso   1.000  O
  O10      1.0000 0.19327  0.55686  0.05136  Biso   1.000  O
  C29      1.0000 0.18251  0.52176  0.08539  Biso   1.000  C
  C30      1.0000 0.19340  0.54690  0.13425  Biso   1.000  C
  C31      1.0000 0.18140  0.50810  0.17242  Biso   1.000  C
  H17      1.0000 0.16930  0.46690  0.16760  Biso   1.000  H
  C32      1.0000 0.21480  0.60840  0.14190  Biso   1.000  C
  H18      1.0000 0.22500  0.63510  0.11650  Biso   1.000  H
  C33      1.0000 0.18740  0.53110  0.21798  Biso   1.000  C
  H19      1.0000 0.17850  0.50480  0.24350  Biso   1.000  H
  C34      1.0000 0.22130  0.63090  0.18737  Biso   1.000  C
  H20      1.0000 0.23580  0.67260  0.19210  Biso   1.000  H
  C35      1.0000 0.20650  0.59230  0.22557  Biso   1.000  C
  O11      1.0000 0.53534  0.69687  0.07891  Biso   1.000  O
  O12      1.0000 0.44314  0.63641  0.05136  Biso   1.000  O
  C36      1.0000 0.47824  0.66075  0.08539  Biso   1.000  C
  C37      1.0000 0.45310  0.64650  0.13425  Biso   1.000  C
  C38      1.0000 0.49190  0.67330  0.17242  Biso   1.000  C
  H21      1.0000 0.53310  0.70240  0.16760  Biso   1.000  H
  C39      1.0000 0.39160  0.60640  0.14190  Biso   1.000  C
  H22      1.0000 0.36490  0.58990  0.11650  Biso   1.000  H
  C40      1.0000 0.46890  0.65630  0.21798  Biso   1.000  C
  H23      1.0000 0.49520  0.67370  0.24350  Biso   1.000  H
  C41      1.0000 0.36910  0.59040  0.18737  Biso   1.000  C
  H24      1.0000 0.32740  0.56320  0.19210  Biso   1.000  H
  C42      1.0000 0.40770  0.61420  0.22557  Biso   1.000  C
  O13      1.0000 0.16153  0.69687  0.42109  Biso   1.000  O
  O14      1.0000 0.19327  0.63641  0.44864  Biso   1.000  O
  C43      1.0000 0.18251  0.66075  0.41461  Biso   1.000  C
  C44      1.0000 0.19340  0.64650  0.36575  Biso   1.000  C
  C45      1.0000 0.18140  0.67330  0.32758  Biso   1.000  C
  H25      1.0000 0.16930  0.70240  0.33240  Biso   1.000  H
  C46      1.0000 0.21480  0.60640  0.35810  Biso   1.000  C
  H26      1.0000 0.22500  0.58990  0.38350  Biso   1.000  H
  C47      1.0000 0.18740  0.65630  0.28202  Biso   1.000  C
  H27      1.0000 0.17850  0.67370  0.25650  Biso   1.000  H
  C48      1.0000 0.22130  0.59040  0.31263  Biso   1.000  C
  H28      1.0000 0.23580  0.56320  0.30790  Biso   1.000  H
  C49      1.0000 0.20650  0.61420  0.27443  Biso   1.000  C
  O15      1.0000 0.53534  0.83847  0.42109  Biso   1.000  O
  O16      1.0000 0.44314  0.80673  0.44864  Biso   1.000  O
  C50      1.0000 0.47824  0.81749  0.41461  Biso   1.000  C
  C51      1.0000 0.45310  0.80660  0.36575  Biso   1.000  C
  C52      1.0000 0.49190  0.81860  0.32758  Biso   1.000  C
  H29      1.0000 0.53310  0.83070  0.33240  Biso   1.000  H
  C53      1.0000 0.39160  0.78520  0.35810  Biso   1.000  C
  H30      1.0000 0.36490  0.77500  0.38350  Biso   1.000  H
  C54      1.0000 0.46890  0.81260  0.28202  Biso   1.000  C
  H31      1.0000 0.49520  0.82150  0.25650  Biso   1.000  H
  C55      1.0000 0.36910  0.77870  0.31263  Biso   1.000  C
  H32      1.0000 0.32740  0.76420  0.30790  Biso   1.000  H
  C56      1.0000 0.40770  0.79350  0.27443  Biso   1.000  C
  O17      1.0000 0.30313  0.46466  0.42109  Biso   1.000  O
  O18      1.0000 0.36359  0.55686  0.44864  Biso   1.000  O
  C57      1.0000 0.33925  0.52176  0.41461  Biso   1.000  C
  C58      1.0000 0.35350  0.54690  0.36575  Biso   1.000  C
  C59      1.0000 0.32670  0.50810  0.32758  Biso   1.000  C
  H33      1.0000 0.29760  0.46690  0.33240  Biso   1.000  H
  C60      1.0000 0.39360  0.60840  0.35810  Biso   1.000  C
  H34      1.0000 0.41010  0.63510  0.38350  Biso   1.000  H
  C61      1.0000 0.34370  0.53110  0.28202  Biso   1.000  C
  H35      1.0000 0.32630  0.50480  0.25650  Biso   1.000  H
  C62      1.0000 0.40960  0.63090  0.31263  Biso   1.000  C
  H36      1.0000 0.43680  0.67260  0.30790  Biso   1.000  H
  C63      1.0000 0.38580  0.59230  0.27443  Biso   1.000  C
  O19      1.0000 0.83847  0.30313  0.42109  Biso   1.000  O
  O20      1.0000 0.80673  0.36359  0.44864  Biso   1.000  O
  C64      1.0000 0.81749  0.33925  0.41461  Biso   1.000  C
  C65      1.0000 0.80660  0.35350  0.36575  Biso   1.000  C
  C66      1.0000 0.81860  0.32670  0.32758  Biso   1.000  C
  H37      1.0000 0.83070  0.29760  0.33240  Biso   1.000  H
  C67      1.0000 0.78520  0.39360  0.35810  Biso   1.000  C
  H38      1.0000 0.77500  0.41010  0.38350  Biso   1.000  H
  C68      1.0000 0.81260  0.34370  0.28202  Biso   1.000  C
  H39      1.0000 0.82150  0.32630  0.25650  Biso   1.000  H
  C69      1.0000 0.77870  0.40960  0.31263  Biso   1.000  C
  H40      1.0000 0.76420  0.43680  0.30790  Biso   1.000  H
  C70      1.0000 0.79350  0.38580  0.27443  Biso   1.000  C
  O21      1.0000 0.46466  0.16153  0.42109  Biso   1.000  O
  O22      1.0000 0.55686  0.19327  0.44864  Biso   1.000  O
  C71      1.0000 0.52176  0.18251  0.41461  Biso   1.000  C
  C72      1.0000 0.54690  0.19340  0.36575  Biso   1.000  C
  C73      1.0000 0.50810  0.18140  0.32758  Biso   1.000  C
  H41      1.0000 0.46690  0.16930  0.33240  Biso   1.000  H
  C74      1.0000 0.60840  0.21480  0.35810  Biso   1.000  C
  H42      1.0000 0.63510  0.22500  0.38350  Biso   1.000  H
  C75      1.0000 0.53110  0.18740  0.28202  Biso   1.000  C
  H43      1.0000 0.50480  0.17850  0.25650  Biso   1.000  H
  C76      1.0000 0.63090  0.22130  0.31263  Biso   1.000  C
  H44      1.0000 0.67260  0.23580  0.30790  Biso   1.000  H
  C77      1.0000 0.59230  0.20650  0.27443  Biso   1.000  C
  O23      1.0000 0.69687  0.53534  0.42109  Biso   1.000  O
  O24      1.0000 0.63641  0.44314  0.44864  Biso   1.000  O
  C78      1.0000 0.66075  0.47824  0.41461  Biso   1.000  C
  C79      1.0000 0.64650  0.45310  0.36575  Biso   1.000  C
  C80      1.0000 0.67330  0.49190  0.32758  Biso   1.000  C
  H45      1.0000 0.70240  0.53310  0.33240  Biso   1.000  H
  C81      1.0000 0.60640  0.39160  0.35810  Biso   1.000  C
  H46      1.0000 0.58990  0.36490  0.38350  Biso   1.000  H
  C82      1.0000 0.65630  0.46890  0.28202  Biso   1.000  C
  H47      1.0000 0.67370  0.49520  0.25650  Biso   1.000  H
  C83      1.0000 0.59040  0.36910  0.31263  Biso   1.000  C
  H48      1.0000 0.56320  0.32740  0.30790  Biso   1.000  H
  C84      1.0000 0.61420  0.40770  0.27443  Biso   1.000  C
  O25      1.0000 0.30313  0.83847  0.92109  Biso   1.000  O
  O26      1.0000 0.36359  0.80673  0.94864  Biso   1.000  O
  C85      1.0000 0.33925  0.81749  0.91461  Biso   1.000  C
  C86      1.0000 0.35350  0.80660  0.86575  Biso   1.000  C
  C87      1.0000 0.32670  0.81860  0.82758  Biso   1.000  C
  H49      1.0000 0.29760  0.83070  0.83240  Biso   1.000  H
  C88      1.0000 0.39360  0.78520  0.85810  Biso   1.000  C
  H50      1.0000 0.41010  0.77500  0.88350  Biso   1.000  H
  C89      1.0000 0.34370  0.81260  0.78202  Biso   1.000  C
  H51      1.0000 0.32630  0.82150  0.75650  Biso   1.000  H
  C90      1.0000 0.40960  0.77870  0.81263  Biso   1.000  C
  H52      1.0000 0.43680  0.76420  0.80790  Biso   1.000  H
  C91      1.0000 0.38580  0.79350  0.77443  Biso   1.000  C
  O27      1.0000 0.16153  0.46466  0.92109  Biso   1.000  O
  O28      1.0000 0.19327  0.55686  0.94864  Biso   1.000  O
  C92      1.0000 0.18251  0.52176  0.91461  Biso   1.000  C
  C93      1.0000 0.19340  0.54690  0.86575  Biso   1.000  C
  C94      1.0000 0.18140  0.50810  0.82758  Biso   1.000  C
  H53      1.0000 0.16930  0.46690  0.83240  Biso   1.000  H
  C95      1.0000 0.21480  0.60840  0.85810  Biso   1.000  C
  H54      1.0000 0.22500  0.63510  0.88350  Biso   1.000  H
  C96      1.0000 0.18740  0.53110  0.78202  Biso   1.000  C
  H55      1.0000 0.17850  0.50480  0.75650  Biso   1.000  H
  C97      1.0000 0.22130  0.63090  0.81263  Biso   1.000  C
  H56      1.0000 0.23580  0.67260  0.80790  Biso   1.000  H
  C98      1.0000 0.20650  0.59230  0.77443  Biso   1.000  C
  O29      1.0000 0.53534  0.69687  0.92109  Biso   1.000  O
  O30      1.0000 0.44314  0.63641  0.94864  Biso   1.000  O
  C99      1.0000 0.47824  0.66075  0.91461  Biso   1.000  C
  C100     1.0000 0.45310  0.64650  0.86575  Biso   1.000  C
  C101     1.0000 0.49190  0.67330  0.82758  Biso   1.000  C
  H57      1.0000 0.53310  0.70240  0.83240  Biso   1.000  H
  C102     1.0000 0.39160  0.60640  0.85810  Biso   1.000  C
  H58      1.0000 0.36490  0.58990  0.88350  Biso   1.000  H
  C103     1.0000 0.46890  0.65630  0.78202  Biso   1.000  C
  H59      1.0000 0.49520  0.67370  0.75650  Biso   1.000  H
  C104     1.0000 0.36910  0.59040  0.81263  Biso   1.000  C
  H60      1.0000 0.32740  0.56320  0.80790  Biso   1.000  H
  C105     1.0000 0.40770  0.61420  0.77443  Biso   1.000  C
  O31      1.0000 0.69687  0.16153  0.92109  Biso   1.000  O
  O32      1.0000 0.63641  0.19327  0.94864  Biso   1.000  O
  C106     1.0000 0.66075  0.18251  0.91461  Biso   1.000  C
  C107     1.0000 0.64650  0.19340  0.86575  Biso   1.000  C
  C108     1.0000 0.67330  0.18140  0.82758  Biso   1.000  C
  H61      1.0000 0.70240  0.16930  0.83240  Biso   1.000  H
  C109     1.0000 0.60640  0.21480  0.85810  Biso   1.000  C
  H62      1.0000 0.58990  0.22500  0.88350  Biso   1.000  H
  C110     1.0000 0.65630  0.18740  0.78202  Biso   1.000  C
  H63      1.0000 0.67370  0.17850  0.75650  Biso   1.000  H
  C111     1.0000 0.59040  0.22130  0.81263  Biso   1.000  C
  H64      1.0000 0.56320  0.23580  0.80790  Biso   1.000  H
  C112     1.0000 0.61420  0.20650  0.77443  Biso   1.000  C
  O33      1.0000 0.83847  0.53534  0.92109  Biso   1.000  O
  O34      1.0000 0.80673  0.44314  0.94864  Biso   1.000  O
  C113     1.0000 0.81749  0.47824  0.91461  Biso   1.000  C
  C114     1.0000 0.80660  0.45310  0.86575  Biso   1.000  C
  C115     1.0000 0.81860  0.49190  0.82758  Biso   1.000  C
  H65      1.0000 0.83070  0.53310  0.83240  Biso   1.000  H
  C116     1.0000 0.78520  0.39160  0.85810  Biso   1.000  C
  H66      1.0000 0.77500  0.36490  0.88350  Biso   1.000  H
  C117     1.0000 0.81260  0.46890  0.78202  Biso   1.000  C
  H67      1.0000 0.82150  0.49520  0.75650  Biso   1.000  H
  C118     1.0000 0.77870  0.36910  0.81263  Biso   1.000  C
  H68      1.0000 0.76420  0.32740  0.80790  Biso   1.000  H
  C119     1.0000 0.79350  0.40770  0.77443  Biso   1.000  C
  O35      1.0000 0.46466  0.30313  0.92109  Biso   1.000  O
  O36      1.0000 0.55686  0.36359  0.94864  Biso   1.000  O
  C120     1.0000 0.52176  0.33925  0.91461  Biso   1.000  C
  C121     1.0000 0.54690  0.35350  0.86575  Biso   1.000  C
  C122     1.0000 0.50810  0.32670  0.82758  Biso   1.000  C
  H69      1.0000 0.46690  0.29760  0.83240  Biso   1.000  H
  C123     1.0000 0.60840  0.39360  0.85810  Biso   1.000  C
  H70      1.0000 0.63510  0.41010  0.88350  Biso   1.000  H
  C124     1.0000 0.53110  0.34370  0.78202  Biso   1.000  C
  H71      1.0000 0.50480  0.32630  0.75650  Biso   1.000  H
  C125     1.0000 0.63090  0.40960  0.81263  Biso   1.000  C
  H72      1.0000 0.67260  0.43680  0.80790  Biso   1.000  H
  C126     1.0000 0.59230  0.38580  0.77443  Biso   1.000  C
  O37      1.0000 0.83847  0.30313  0.57891  Biso   1.000  O
  O38      1.0000 0.80673  0.36359  0.55136  Biso   1.000  O
  C127     1.0000 0.81749  0.33925  0.58539  Biso   1.000  C
  C128     1.0000 0.80660  0.35350  0.63425  Biso   1.000  C
  C129     1.0000 0.81860  0.32670  0.67242  Biso   1.000  C
  H73      1.0000 0.83070  0.29760  0.66760  Biso   1.000  H
  C130     1.0000 0.78520  0.39360  0.64190  Biso   1.000  C
  H74      1.0000 0.77500  0.41010  0.61650  Biso   1.000  H
  C131     1.0000 0.81260  0.34370  0.71798  Biso   1.000  C
  H75      1.0000 0.82150  0.32630  0.74350  Biso   1.000  H
  C132     1.0000 0.77870  0.40960  0.68737  Biso   1.000  C
  H76      1.0000 0.76420  0.43680  0.69210  Biso   1.000  H
  C133     1.0000 0.79350  0.38580  0.72557  Biso   1.000  C
  O39      1.0000 0.46466  0.16153  0.57891  Biso   1.000  O
  O40      1.0000 0.55686  0.19327  0.55136  Biso   1.000  O
  C134     1.0000 0.52176  0.18251  0.58539  Biso   1.000  C
  C135     1.0000 0.54690  0.19340  0.63425  Biso   1.000  C
  C136     1.0000 0.50810  0.18140  0.67242  Biso   1.000  C
  H77      1.0000 0.46690  0.16930  0.66760  Biso   1.000  H
  C137     1.0000 0.60840  0.21480  0.64190  Biso   1.000  C
  H78      1.0000 0.63510  0.22500  0.61650  Biso   1.000  H
  C138     1.0000 0.53110  0.18740  0.71798  Biso   1.000  C
  H79      1.0000 0.50480  0.17850  0.74350  Biso   1.000  H
  C139     1.0000 0.63090  0.22130  0.68737  Biso   1.000  C
  H80      1.0000 0.67260  0.23580  0.69210  Biso   1.000  H
  C140     1.0000 0.59230  0.20650  0.72557  Biso   1.000  C
  O41      1.0000 0.69687  0.53534  0.57891  Biso   1.000  O
  O42      1.0000 0.63641  0.44314  0.55136  Biso   1.000  O
  C141     1.0000 0.66075  0.47824  0.58539  Biso   1.000  C
  C142     1.0000 0.64650  0.45310  0.63425  Biso   1.000  C
  C143     1.0000 0.67330  0.49190  0.67242  Biso   1.000  C
  H81      1.0000 0.70240  0.53310  0.66760  Biso   1.000  H
  C144     1.0000 0.60640  0.39160  0.64190  Biso   1.000  C
  H82      1.0000 0.58990  0.36490  0.61650  Biso   1.000  H
  C145     1.0000 0.65630  0.46890  0.71798  Biso   1.000  C
  H83      1.0000 0.67370  0.49520  0.74350  Biso   1.000  H
  C146     1.0000 0.59040  0.36910  0.68737  Biso   1.000  C
  H84      1.0000 0.56320  0.32740  0.69210  Biso   1.000  H
  C147     1.0000 0.61420  0.40770  0.72557  Biso   1.000  C
  O43      1.0000 0.16153  0.69687  0.57891  Biso   1.000  O
  O44      1.0000 0.19327  0.63641  0.55136  Biso   1.000  O
  C148     1.0000 0.18251  0.66075  0.58539  Biso   1.000  C
  C149     1.0000 0.19340  0.64650  0.63425  Biso   1.000  C
  C150     1.0000 0.18140  0.67330  0.67242  Biso   1.000  C
  H85      1.0000 0.16930  0.70240  0.66760  Biso   1.000  H
  C151     1.0000 0.21480  0.60640  0.64190  Biso   1.000  C
  H86      1.0000 0.22500  0.58990  0.61650  Biso   1.000  H
  C152     1.0000 0.18740  0.65630  0.71798  Biso   1.000  C
  H87      1.0000 0.17850  0.67370  0.74350  Biso   1.000  H
  C153     1.0000 0.22130  0.59040  0.68737  Biso   1.000  C
  H88      1.0000 0.23580  0.56320  0.69210  Biso   1.000  H
  C154     1.0000 0.20650  0.61420  0.72557  Biso   1.000  C
  O45      1.0000 0.53534  0.83847  0.57891  Biso   1.000  O
  O46      1.0000 0.44314  0.80673  0.55136  Biso   1.000  O
  C155     1.0000 0.47824  0.81749  0.58539  Biso   1.000  C
  C156     1.0000 0.45310  0.80660  0.63425  Biso   1.000  C
  C157     1.0000 0.49190  0.81860  0.67242  Biso   1.000  C
  H89      1.0000 0.53310  0.83070  0.66760  Biso   1.000  H
  C158     1.0000 0.39160  0.78520  0.64190  Biso   1.000  C
  H90      1.0000 0.36490  0.77500  0.61650  Biso   1.000  H
  C159     1.0000 0.46890  0.81260  0.71798  Biso   1.000  C
  H91      1.0000 0.49520  0.82150  0.74350  Biso   1.000  H
  C160     1.0000 0.36910  0.77870  0.68737  Biso   1.000  C
  H92      1.0000 0.32740  0.76420  0.69210  Biso   1.000  H
  C161     1.0000 0.40770  0.79350  0.72557  Biso   1.000  C
  O47      1.0000 0.30313  0.46466  0.57891  Biso   1.000  O
  O48      1.0000 0.36359  0.55686  0.55136  Biso   1.000  O
  C162     1.0000 0.33925  0.52176  0.58539  Biso   1.000  C
  C163     1.0000 0.35350  0.54690  0.63425  Biso   1.000  C
  C164     1.0000 0.32670  0.50810  0.67242  Biso   1.000  C
  H93      1.0000 0.29760  0.46690  0.66760  Biso   1.000  H
  C165     1.0000 0.39360  0.60840  0.64190  Biso   1.000  C
  H94      1.0000 0.41010  0.63510  0.61650  Biso   1.000  H
  C166     1.0000 0.34370  0.53110  0.71798  Biso   1.000  C
  H95      1.0000 0.32630  0.50480  0.74350  Biso   1.000  H
  C167     1.0000 0.40960  0.63090  0.68737  Biso   1.000  C
  H96      1.0000 0.43680  0.67260  0.69210  Biso   1.000  H
  C168     1.0000 0.38580  0.59230  0.72557  Biso   1.000  C
  In1      1.0000 0.68785  0.16294  0.00000  Biso   1.000  In
  S1       1.0000 0.92813  0.30318  0.00000  Biso   1.000  S
  O49      1.0000 0.06868  0.38132  0.00000  Biso   1.000  O
  O50      1.0000 0.79306  0.20203  0.00000  Biso   1.000  O
  O51      1.0000 0.07237  0.47008  0.00000  Biso   1.000  O
  C169     1.0000 0.80100  0.25540  0.00000  Biso   1.000  C
  O52      1.0000 0.75612  0.26424  0.00000  Biso   1.000  O
  C170     1.0000 0.86340  0.30970  0.00000  Biso   1.000  C
  C171     1.0000 0.97450  0.38100  0.00000  Biso   1.000  C
  C172     1.0000 0.04160  0.41200  0.00000  Biso   1.000  C
  C173     1.0000 0.87750  0.36910  0.00000  Biso   1.000  C
  H97      1.0000 0.84810  0.38140  0.00000  Biso   1.000  H
  C174     1.0000 0.93970  0.40940  0.00000  Biso   1.000  C
  H98      1.0000 0.95680  0.45190  0.00000  Biso   1.000  H
  In2      1.0000 0.83706  0.52491  0.00000  Biso   1.000  In
  S2       1.0000 0.69682  0.62495  0.00000  Biso   1.000  S
  O53      1.0000 0.61868  0.68736  0.00000  Biso   1.000  O
  O54      1.0000 0.79797  0.59103  0.00000  Biso   1.000  O
  O55      1.0000 0.52992  0.60229  0.00000  Biso   1.000  O
  C175     1.0000 0.74460  0.54560  0.00000  Biso   1.000  C
  O56      1.0000 0.73576  0.49188  0.00000  Biso   1.000  O
  C176     1.0000 0.69030  0.55370  0.00000  Biso   1.000  C
  C177     1.0000 0.61900  0.59350  0.00000  Biso   1.000  C
  C178     1.0000 0.58800  0.62960  0.00000  Biso   1.000  C
  C179     1.0000 0.63090  0.50840  0.00000  Biso   1.000  C
  H99      1.0000 0.61860  0.46670  0.00000  Biso   1.000  H
  C180     1.0000 0.59060  0.53030  0.00000  Biso   1.000  C
  H100     1.0000 0.54810  0.50490  0.00000  Biso   1.000  H
  In3      1.0000 0.47509  0.31215  0.00000  Biso   1.000  In
  S3       1.0000 0.37505  0.07187  0.00000  Biso   1.000  S
  O57      1.0000 0.31264  0.93132  0.00000  Biso   1.000  O
  O58      1.0000 0.40897  0.20694  0.00000  Biso   1.000  O
  O59      1.0000 0.39771  0.92763  0.00000  Biso   1.000  O
  C181     1.0000 0.45440  0.19900  0.00000  Biso   1.000  C
  O60      1.0000 0.50812  0.24388  0.00000  Biso   1.000  O
  C182     1.0000 0.44630  0.13660  0.00000  Biso   1.000  C
  C183     1.0000 0.40650  0.02550  0.00000  Biso   1.000  C
  C184     1.0000 0.37040  0.95840  0.00000  Biso   1.000  C
  C185     1.0000 0.49160  0.12250  0.00000  Biso   1.000  C
  H101     1.0000 0.53330  0.15190  0.00000  Biso   1.000  H
  C186     1.0000 0.46970  0.06030  0.00000  Biso   1.000  C
  H102     1.0000 0.49510  0.04320  0.00000  Biso   1.000  H
  In4      1.0000 0.31215  0.83706  0.00000  Biso   1.000  In
  S4       1.0000 0.07187  0.69682  0.00000  Biso   1.000  S
  O61      1.0000 0.93132  0.61868  0.00000  Biso   1.000  O
  O62      1.0000 0.20694  0.79797  0.00000  Biso   1.000  O
  O63      1.0000 0.92763  0.52992  0.00000  Biso   1.000  O
  C187     1.0000 0.19900  0.74460  0.00000  Biso   1.000  C
  O64      1.0000 0.24388  0.73576  0.00000  Biso   1.000  O
  C188     1.0000 0.13660  0.69030  0.00000  Biso   1.000  C
  C189     1.0000 0.02550  0.61900  0.00000  Biso   1.000  C
  C190     1.0000 0.95840  0.58800  0.00000  Biso   1.000  C
  C191     1.0000 0.12250  0.63090  0.00000  Biso   1.000  C
  H103     1.0000 0.15190  0.61860  0.00000  Biso   1.000  H
  C192     1.0000 0.06030  0.59060  0.00000  Biso   1.000  C
  H104     1.0000 0.04320  0.54810  0.00000  Biso   1.000  H
  In5      1.0000 0.16294  0.47509  0.00000  Biso   1.000  In
  S5       1.0000 0.30318  0.37505  0.00000  Biso   1.000  S
  O65      1.0000 0.38132  0.31264  0.00000  Biso   1.000  O
  O66      1.0000 0.20203  0.40897  0.00000  Biso   1.000  O
  O67      1.0000 0.47008  0.39771  0.00000  Biso   1.000  O
  C193     1.0000 0.25540  0.45440  0.00000  Biso   1.000  C
  O68      1.0000 0.26424  0.50812  0.00000  Biso   1.000  O
  C194     1.0000 0.30970  0.44630  0.00000  Biso   1.000  C
  C195     1.0000 0.38100  0.40650  0.00000  Biso   1.000  C
  C196     1.0000 0.41200  0.37040  0.00000  Biso   1.000  C
  C197     1.0000 0.36910  0.49160  0.00000  Biso   1.000  C
  H105     1.0000 0.38140  0.53330  0.00000  Biso   1.000  H
  C198     1.0000 0.40940  0.46970  0.00000  Biso   1.000  C
  H106     1.0000 0.45190  0.49510  0.00000  Biso   1.000  H
  In6      1.0000 0.52491  0.68785  0.00000  Biso   1.000  In
  S6       1.0000 0.62495  0.92813  0.00000  Biso   1.000  S
  O69      1.0000 0.68736  0.06868  0.00000  Biso   1.000  O
  O70      1.0000 0.59103  0.79306  0.00000  Biso   1.000  O
  O71      1.0000 0.60229  0.07237  0.00000  Biso   1.000  O
  C199     1.0000 0.54560  0.80100  0.00000  Biso   1.000  C
  O72      1.0000 0.49188  0.75612  0.00000  Biso   1.000  O
  C200     1.0000 0.55370  0.86340  0.00000  Biso   1.000  C
  C201     1.0000 0.59350  0.97450  0.00000  Biso   1.000  C
  C202     1.0000 0.62960  0.04160  0.00000  Biso   1.000  C
  C203     1.0000 0.50840  0.87750  0.00000  Biso   1.000  C
  H107     1.0000 0.46670  0.84810  0.00000  Biso   1.000  H
  C204     1.0000 0.53030  0.93970  0.00000  Biso   1.000  C
  H108     1.0000 0.50490  0.95680  0.00000  Biso   1.000  H
  In7      1.0000 0.16294  0.68785  0.50000  Biso   1.000  In
  S7       1.0000 0.30318  0.92813  0.50000  Biso   1.000  S
  O73      1.0000 0.38132  0.06868  0.50000  Biso   1.000  O
  O74      1.0000 0.20203  0.79306  0.50000  Biso   1.000  O
  O75      1.0000 0.47008  0.07237  0.50000  Biso   1.000  O
  C205     1.0000 0.25540  0.80100  0.50000  Biso   1.000  C
  O76      1.0000 0.26424  0.75612  0.50000  Biso   1.000  O
  C206     1.0000 0.30970  0.86340  0.50000  Biso   1.000  C
  C207     1.0000 0.38100  0.97450  0.50000  Biso   1.000  C
  C208     1.0000 0.41200  0.04160  0.50000  Biso   1.000  C
  C209     1.0000 0.36910  0.87750  0.50000  Biso   1.000  C
  H109     1.0000 0.38140  0.84810  0.50000  Biso   1.000  H
  C210     1.0000 0.40940  0.93970  0.50000  Biso   1.000  C
  H110     1.0000 0.45190  0.95680  0.50000  Biso   1.000  H
  In8      1.0000 0.52491  0.83706  0.50000  Biso   1.000  In
  S8       1.0000 0.62495  0.69682  0.50000  Biso   1.000  S
  O77      1.0000 0.68736  0.61868  0.50000  Biso   1.000  O
  O78      1.0000 0.59103  0.79797  0.50000  Biso   1.000  O
  O79      1.0000 0.60229  0.52992  0.50000  Biso   1.000  O
  C211     1.0000 0.54560  0.74460  0.50000  Biso   1.000  C
  O80      1.0000 0.49188  0.73576  0.50000  Biso   1.000  O
  C212     1.0000 0.55370  0.69030  0.50000  Biso   1.000  C
  C213     1.0000 0.59350  0.61900  0.50000  Biso   1.000  C
  C214     1.0000 0.62960  0.58800  0.50000  Biso   1.000  C
  C215     1.0000 0.50840  0.63090  0.50000  Biso   1.000  C
  H111     1.0000 0.46670  0.61860  0.50000  Biso   1.000  H
  C216     1.0000 0.53030  0.59060  0.50000  Biso   1.000  C
  H112     1.0000 0.50490  0.54810  0.50000  Biso   1.000  H
  In9      1.0000 0.31215  0.47509  0.50000  Biso   1.000  In
  S9       1.0000 0.07187  0.37505  0.50000  Biso   1.000  S
  O81      1.0000 0.93132  0.31264  0.50000  Biso   1.000  O
  O82      1.0000 0.20694  0.40897  0.50000  Biso   1.000  O
  O83      1.0000 0.92763  0.39771  0.50000  Biso   1.000  O
  C217     1.0000 0.19900  0.45440  0.50000  Biso   1.000  C
  O84      1.0000 0.24388  0.50812  0.50000  Biso   1.000  O
  C218     1.0000 0.13660  0.44630  0.50000  Biso   1.000  C
  C219     1.0000 0.02550  0.40650  0.50000  Biso   1.000  C
  C220     1.0000 0.95840  0.37040  0.50000  Biso   1.000  C
  C221     1.0000 0.12250  0.49160  0.50000  Biso   1.000  C
  H113     1.0000 0.15190  0.53330  0.50000  Biso   1.000  H
  C222     1.0000 0.06030  0.46970  0.50000  Biso   1.000  C
  H114     1.0000 0.04320  0.49510  0.50000  Biso   1.000  H
  In10     1.0000 0.83706  0.31215  0.50000  Biso   1.000  In
  S10      1.0000 0.69682  0.07187  0.50000  Biso   1.000  S
  O85      1.0000 0.61868  0.93132  0.50000  Biso   1.000  O
  O86      1.0000 0.79797  0.20694  0.50000  Biso   1.000  O
  O87      1.0000 0.52992  0.92763  0.50000  Biso   1.000  O
  C223     1.0000 0.74460  0.19900  0.50000  Biso   1.000  C
  O88      1.0000 0.73576  0.24388  0.50000  Biso   1.000  O
  C224     1.0000 0.69030  0.13660  0.50000  Biso   1.000  C
  C225     1.0000 0.61900  0.02550  0.50000  Biso   1.000  C
  C226     1.0000 0.58800  0.95840  0.50000  Biso   1.000  C
  C227     1.0000 0.63090  0.12250  0.50000  Biso   1.000  C
  H115     1.0000 0.61860  0.15190  0.50000  Biso   1.000  H
  C228     1.0000 0.59060  0.06030  0.50000  Biso   1.000  C
  H116     1.0000 0.54810  0.04320  0.50000  Biso   1.000  H
  In11     1.0000 0.47509  0.16294  0.50000  Biso   1.000  In
  S11      1.0000 0.37505  0.30318  0.50000  Biso   1.000  S
  O89      1.0000 0.31264  0.38132  0.50000  Biso   1.000  O
  O90      1.0000 0.40897  0.20203  0.50000  Biso   1.000  O
  O91      1.0000 0.39771  0.47008  0.50000  Biso   1.000  O
  C229     1.0000 0.45440  0.25540  0.50000  Biso   1.000  C
  O92      1.0000 0.50812  0.26424  0.50000  Biso   1.000  O
  C230     1.0000 0.44630  0.30970  0.50000  Biso   1.000  C
  C231     1.0000 0.40650  0.38100  0.50000  Biso   1.000  C
  C232     1.0000 0.37040  0.41200  0.50000  Biso   1.000  C
  C233     1.0000 0.49160  0.36910  0.50000  Biso   1.000  C
  H117     1.0000 0.53330  0.38140  0.50000  Biso   1.000  H
  C234     1.0000 0.46970  0.40940  0.50000  Biso   1.000  C
  H118     1.0000 0.49510  0.45190  0.50000  Biso   1.000  H
  In12     1.0000 0.68785  0.52491  0.50000  Biso   1.000  In
  S12      1.0000 0.92813  0.62495  0.50000  Biso   1.000  S
  O93      1.0000 0.06868  0.68736  0.50000  Biso   1.000  O
  O94      1.0000 0.79306  0.59103  0.50000  Biso   1.000  O
  O95      1.0000 0.07237  0.60229  0.50000  Biso   1.000  O
  C235     1.0000 0.80100  0.54560  0.50000  Biso   1.000  C
  O96      1.0000 0.75612  0.49188  0.50000  Biso   1.000  O
  C236     1.0000 0.86340  0.55370  0.50000  Biso   1.000  C
  C237     1.0000 0.97450  0.59350  0.50000  Biso   1.000  C
  C238     1.0000 0.04160  0.62960  0.50000  Biso   1.000  C
  C239     1.0000 0.87750  0.50840  0.50000  Biso   1.000  C
  H119     1.0000 0.84810  0.46670  0.50000  Biso   1.000  H
  C240     1.0000 0.93970  0.53030  0.50000  Biso   1.000  C
  H120     1.0000 0.95680  0.50490  0.50000  Biso   1.000  H
