data_image0
_cell_length_a       11.008
_cell_length_b       12.002
_cell_length_c       19.473
_cell_angle_alpha    90
_cell_angle_beta     90
_cell_angle_gamma    90

_symmetry_space_group_name_H-M    P 1
_symmetry_int_tables_number       1

loop_
  _symmetry_equiv_pos_as_xyz
  'x, y, z'

loop_
  _atom_site_label
  _atom_site_occupancy
  _atom_site_fract_x
  _atom_site_fract_y
  _atom_site_fract_z
  _atom_site_thermal_displace_type
  _atom_site_B_iso_or_equiv
  _atom_site_type_symbol
  Pr1      1.0000 0.86380  0.65899  0.64838  Biso   1.000  Pr
  Pr2      1.0000 0.38228  0.47717  0.86248  Biso   1.000  Pr
  Pr3      1.0000 0.13620  0.34101  0.14838  Biso   1.000  Pr
  Pr4      1.0000 0.61772  0.52283  0.36248  Biso   1.000  Pr
  Pr5      1.0000 0.63620  0.15899  0.64838  Biso   1.000  Pr
  Pr6      1.0000 0.11772  0.97717  0.86248  Biso   1.000  Pr
  Pr7      1.0000 0.36380  0.84101  0.14838  Biso   1.000  Pr
  Pr8      1.0000 0.88228  0.02283  0.36248  Biso   1.000  Pr
  H1       1.0000 0.65110  0.50800  0.75660  Biso   1.000  H
  H2       1.0000 0.76870  0.76060  0.91590  Biso   1.000  H
  H3       1.0000 0.12960  0.60160  0.75970  Biso   1.000  H
  H4       1.0000 0.99400  0.24480  0.74850  Biso   1.000  H
  H5       1.0000 0.12880  0.62180  0.61770  Biso   1.000  H
  H6       1.0000 0.08420  0.70870  0.58070  Biso   1.000  H
  H7       1.0000 0.90510  0.86640  0.54660  Biso   1.000  H
  H8       1.0000 0.83450  0.88660  0.60240  Biso   1.000  H
  H9       1.0000 0.45250  0.39380  0.73520  Biso   1.000  H
  H10      1.0000 0.37290  0.46230  0.70300  Biso   1.000  H
  H11      1.0000 0.34890  0.49200  0.25660  Biso   1.000  H
  H12      1.0000 0.23130  0.23940  0.41590  Biso   1.000  H
  H13      1.0000 0.87040  0.39840  0.25970  Biso   1.000  H
  H14      1.0000 0.00600  0.75520  0.24850  Biso   1.000  H
  H15      1.0000 0.87120  0.37820  0.11770  Biso   1.000  H
  H16      1.0000 0.91580  0.29130  0.08070  Biso   1.000  H
  H17      1.0000 0.09490  0.13360  0.04660  Biso   1.000  H
  H18      1.0000 0.16550  0.11340  0.10240  Biso   1.000  H
  H19      1.0000 0.54750  0.60620  0.23520  Biso   1.000  H
  H20      1.0000 0.62710  0.53770  0.20300  Biso   1.000  H
  H21      1.0000 0.84890  0.00800  0.75660  Biso   1.000  H
  H22      1.0000 0.73130  0.26060  0.91590  Biso   1.000  H
  H23      1.0000 0.37040  0.10160  0.75970  Biso   1.000  H
  H24      1.0000 0.50600  0.74480  0.74850  Biso   1.000  H
  H25      1.0000 0.37120  0.12180  0.61770  Biso   1.000  H
  H26      1.0000 0.41580  0.20870  0.58070  Biso   1.000  H
  H27      1.0000 0.59490  0.36640  0.54660  Biso   1.000  H
  H28      1.0000 0.66550  0.38660  0.60240  Biso   1.000  H
  H29      1.0000 0.04750  0.89380  0.73520  Biso   1.000  H
  H30      1.0000 0.12710  0.96230  0.70300  Biso   1.000  H
  H31      1.0000 0.15110  0.99200  0.25660  Biso   1.000  H
  H32      1.0000 0.26870  0.73940  0.41590  Biso   1.000  H
  H33      1.0000 0.62960  0.89840  0.25970  Biso   1.000  H
  H34      1.0000 0.49400  0.25520  0.24850  Biso   1.000  H
  H35      1.0000 0.62880  0.87820  0.11770  Biso   1.000  H
  H36      1.0000 0.58420  0.79130  0.08070  Biso   1.000  H
  H37      1.0000 0.40510  0.63360  0.04660  Biso   1.000  H
  H38      1.0000 0.33450  0.61340  0.10240  Biso   1.000  H
  H39      1.0000 0.95250  0.10620  0.23520  Biso   1.000  H
  H40      1.0000 0.87290  0.03770  0.20300  Biso   1.000  H
  C1       1.0000 0.67260  0.56280  0.78810  Biso   1.000  C
  C2       1.0000 0.63630  0.65040  0.88980  Biso   1.000  C
  C3       1.0000 0.74250  0.71160  0.88200  Biso   1.000  C
  C4       1.0000 0.80740  0.69730  0.82260  Biso   1.000  C
  C5       1.0000 0.91380  0.77150  0.80430  Biso   1.000  C
  C6       1.0000 0.55320  0.66930  0.95060  Biso   1.000  C
  C7       1.0000 0.10170  0.52850  0.75820  Biso   1.000  C
  C8       1.0000 0.12610  0.34630  0.78720  Biso   1.000  C
  C9       1.0000 0.02080  0.31810  0.75190  Biso   1.000  C
  C10      1.0000 0.95880  0.40520  0.72250  Biso   1.000  C
  C11      1.0000 0.83940  0.38550  0.68450  Biso   1.000  C
  C12      1.0000 0.20340  0.25690  0.82220  Biso   1.000  C
  C13      1.0000 0.32230  0.38350  0.01780  Biso   1.000  C
  C14      1.0000 0.20010  0.43550  0.99380  Biso   1.000  C
  C15      1.0000 0.32740  0.43720  0.28810  Biso   1.000  C
  C16      1.0000 0.36370  0.34960  0.38980  Biso   1.000  C
  C17      1.0000 0.25750  0.28840  0.38200  Biso   1.000  C
  C18      1.0000 0.19260  0.30270  0.32260  Biso   1.000  C
  C19      1.0000 0.08620  0.22850  0.30430  Biso   1.000  C
  C20      1.0000 0.44680  0.33070  0.45060  Biso   1.000  C
  C21      1.0000 0.89830  0.47150  0.25820  Biso   1.000  C
  C22      1.0000 0.87390  0.65370  0.28720  Biso   1.000  C
  C23      1.0000 0.97920  0.68190  0.25190  Biso   1.000  C
  C24      1.0000 0.04120  0.59480  0.22250  Biso   1.000  C
  C25      1.0000 0.16060  0.61450  0.18450  Biso   1.000  C
  C26      1.0000 0.79660  0.74310  0.32220  Biso   1.000  C
  C27      1.0000 0.67770  0.61650  0.51780  Biso   1.000  C
  C28      1.0000 0.79990  0.56450  0.49380  Biso   1.000  C
  C29      1.0000 0.82740  0.06280  0.78810  Biso   1.000  C
  C30      1.0000 0.86370  0.15040  0.88980  Biso   1.000  C
  C31      1.0000 0.75750  0.21160  0.88200  Biso   1.000  C
  C32      1.0000 0.69260  0.19730  0.82260  Biso   1.000  C
  C33      1.0000 0.58620  0.27150  0.80430  Biso   1.000  C
  C34      1.0000 0.94680  0.16930  0.95060  Biso   1.000  C
  C35      1.0000 0.39830  0.02850  0.75820  Biso   1.000  C
  C36      1.0000 0.37390  0.84630  0.78720  Biso   1.000  C
  C37      1.0000 0.47920  0.81810  0.75190  Biso   1.000  C
  C38      1.0000 0.54120  0.90520  0.72250  Biso   1.000  C
  C39      1.0000 0.66060  0.88550  0.68450  Biso   1.000  C
  C40      1.0000 0.29660  0.75690  0.82220  Biso   1.000  C
  C41      1.0000 0.17770  0.88350  0.01780  Biso   1.000  C
  C42      1.0000 0.29990  0.93550  0.99380  Biso   1.000  C
  C43      1.0000 0.17260  0.93720  0.28810  Biso   1.000  C
  C44      1.0000 0.13630  0.84960  0.38980  Biso   1.000  C
  C45      1.0000 0.24250  0.78840  0.38200  Biso   1.000  C
  C46      1.0000 0.30740  0.80270  0.32260  Biso   1.000  C
  C47      1.0000 0.41380  0.72850  0.30430  Biso   1.000  C
  C48      1.0000 0.05320  0.83070  0.45060  Biso   1.000  C
  C49      1.0000 0.60170  0.97150  0.25820  Biso   1.000  C
  C50      1.0000 0.62610  0.15370  0.28720  Biso   1.000  C
  C51      1.0000 0.52080  0.18190  0.25190  Biso   1.000  C
  C52      1.0000 0.45880  0.09480  0.22250  Biso   1.000  C
  C53      1.0000 0.33940  0.11450  0.18450  Biso   1.000  C
  C54      1.0000 0.70340  0.24310  0.32220  Biso   1.000  C
  C55      1.0000 0.82230  0.11650  0.51780  Biso   1.000  C
  C56      1.0000 0.70010  0.06450  0.49380  Biso   1.000  C
  N1       1.0000 0.77260  0.62250  0.77490  Biso   1.000  N
  N2       1.0000 0.60120  0.57590  0.84290  Biso   1.000  N
  N3       1.0000 0.99960  0.50940  0.72310  Biso   1.000  N
  N4       1.0000 0.16670  0.45250  0.79120  Biso   1.000  N
  N5       1.0000 0.22740  0.37750  0.27490  Biso   1.000  N
  N6       1.0000 0.39880  0.42410  0.34290  Biso   1.000  N
  N7       1.0000 0.00040  0.49060  0.22310  Biso   1.000  N
  N8       1.0000 0.83330  0.54750  0.29120  Biso   1.000  N
  N9       1.0000 0.72740  0.12250  0.77490  Biso   1.000  N
  N10      1.0000 0.89880  0.07590  0.84290  Biso   1.000  N
  N11      1.0000 0.50040  0.00940  0.72310  Biso   1.000  N
  N12      1.0000 0.33330  0.95250  0.79120  Biso   1.000  N
  N13      1.0000 0.27260  0.87750  0.27490  Biso   1.000  N
  N14      1.0000 0.10120  0.92410  0.34290  Biso   1.000  N
  N15      1.0000 0.49960  0.99060  0.22310  Biso   1.000  N
  N16      1.0000 0.66670  0.04750  0.29120  Biso   1.000  N
  O1       1.0000 0.95530  0.76270  0.74440  Biso   1.000  O
  O2       1.0000 0.94910  0.83850  0.84980  Biso   1.000  O
  O3       1.0000 0.45830  0.60860  0.95290  Biso   1.000  O
  O4       1.0000 0.58420  0.73990  0.99180  Biso   1.000  O
  O5       1.0000 0.79140  0.46560  0.65320  Biso   1.000  O
  O6       1.0000 0.79460  0.28890  0.69090  Biso   1.000  O
  O7       1.0000 0.29950  0.28660  0.85030  Biso   1.000  O
  O8       1.0000 0.16580  0.15880  0.81790  Biso   1.000  O
  O9       1.0000 0.40780  0.38110  0.97470  Biso   1.000  O
  O10      1.0000 0.32600  0.34780  0.07810  Biso   1.000  O
  O11      1.0000 0.20400  0.48930  0.93840  Biso   1.000  O
  O12      1.0000 0.11060  0.42140  0.03170  Biso   1.000  O
  O13      1.0000 0.08170  0.67870  0.62050  Biso   1.000  O
  O14      1.0000 0.88510  0.84050  0.58660  Biso   1.000  O
  O15      1.0000 0.42100  0.45840  0.73720  Biso   1.000  O
  O16      1.0000 0.04470  0.23730  0.24440  Biso   1.000  O
  O17      1.0000 0.05090  0.16150  0.34980  Biso   1.000  O
  O18      1.0000 0.54170  0.39140  0.45290  Biso   1.000  O
  O19      1.0000 0.41580  0.26010  0.49180  Biso   1.000  O
  O20      1.0000 0.20860  0.53440  0.15320  Biso   1.000  O
  O21      1.0000 0.20540  0.71110  0.19090  Biso   1.000  O
  O22      1.0000 0.70050  0.71340  0.35030  Biso   1.000  O
  O23      1.0000 0.83420  0.84120  0.31790  Biso   1.000  O
  O24      1.0000 0.59220  0.61890  0.47470  Biso   1.000  O
  O25      1.0000 0.67400  0.65220  0.57810  Biso   1.000  O
  O26      1.0000 0.79600  0.51070  0.43840  Biso   1.000  O
  O27      1.0000 0.88940  0.57860  0.53170  Biso   1.000  O
  O28      1.0000 0.91830  0.32130  0.12050  Biso   1.000  O
  O29      1.0000 0.11490  0.15950  0.08660  Biso   1.000  O
  O30      1.0000 0.57900  0.54160  0.23720  Biso   1.000  O
  O31      1.0000 0.54470  0.26270  0.74440  Biso   1.000  O
  O32      1.0000 0.55090  0.33850  0.84980  Biso   1.000  O
  O33      1.0000 0.04170  0.10860  0.95290  Biso   1.000  O
  O34      1.0000 0.91580  0.23990  0.99180  Biso   1.000  O
  O35      1.0000 0.70860  0.96560  0.65320  Biso   1.000  O
  O36      1.0000 0.70540  0.78890  0.69090  Biso   1.000  O
  O37      1.0000 0.20050  0.78660  0.85030  Biso   1.000  O
  O38      1.0000 0.33420  0.65880  0.81790  Biso   1.000  O
  O39      1.0000 0.09220  0.88110  0.97470  Biso   1.000  O
  O40      1.0000 0.17400  0.84780  0.07810  Biso   1.000  O
  O41      1.0000 0.29600  0.98930  0.93840  Biso   1.000  O
  O42      1.0000 0.38940  0.92140  0.03170  Biso   1.000  O
  O43      1.0000 0.41830  0.17870  0.62050  Biso   1.000  O
  O44      1.0000 0.61490  0.34050  0.58660  Biso   1.000  O
  O45      1.0000 0.07900  0.95840  0.73720  Biso   1.000  O
  O46      1.0000 0.45530  0.73730  0.24440  Biso   1.000  O
  O47      1.0000 0.44910  0.66150  0.34980  Biso   1.000  O
  O48      1.0000 0.95830  0.89140  0.45290  Biso   1.000  O
  O49      1.0000 0.08420  0.76010  0.49180  Biso   1.000  O
  O50      1.0000 0.29140  0.03440  0.15320  Biso   1.000  O
  O51      1.0000 0.29460  0.21110  0.19090  Biso   1.000  O
  O52      1.0000 0.79950  0.21340  0.35030  Biso   1.000  O
  O53      1.0000 0.66580  0.34120  0.31790  Biso   1.000  O
  O54      1.0000 0.90780  0.11890  0.47470  Biso   1.000  O
  O55      1.0000 0.82600  0.15220  0.57810  Biso   1.000  O
  O56      1.0000 0.70400  0.01070  0.43840  Biso   1.000  O
  O57      1.0000 0.61060  0.07860  0.53170  Biso   1.000  O
  O58      1.0000 0.58170  0.82130  0.12050  Biso   1.000  O
  O59      1.0000 0.38510  0.65950  0.08660  Biso   1.000  O
  O60      1.0000 0.92100  0.04160  0.23720  Biso   1.000  O
