data_image0
_cell_length_a       11.036
_cell_length_b       12.056
_cell_length_c       19.561
_cell_angle_alpha    90
_cell_angle_beta     90
_cell_angle_gamma    90

_symmetry_space_group_name_H-M    P 1
_symmetry_int_tables_number       1

loop_
  _symmetry_equiv_pos_as_xyz
  'x, y, z'

loop_
  _atom_site_label
  _atom_site_occupancy
  _atom_site_fract_x
  _atom_site_fract_y
  _atom_site_fract_z
  _atom_site_thermal_displace_type
  _atom_site_B_iso_or_equiv
  _atom_site_type_symbol
  Ce1      1.0000 0.36431  0.84017  0.87879  Biso   1.000  Ce
  Ce2      1.0000 0.88269  0.02071  0.66444  Biso   1.000  Ce
  Ce3      1.0000 0.63569  0.15983  0.37879  Biso   1.000  Ce
  Ce4      1.0000 0.11731  0.97929  0.16444  Biso   1.000  Ce
  Ce5      1.0000 0.13569  0.34017  0.87879  Biso   1.000  Ce
  Ce6      1.0000 0.61731  0.52071  0.66444  Biso   1.000  Ce
  Ce7      1.0000 0.86431  0.65983  0.37879  Biso   1.000  Ce
  Ce8      1.0000 0.38269  0.47929  0.16444  Biso   1.000  Ce
  H1       1.0000 0.15340  0.98990  0.76990  Biso   1.000  H
  H2       1.0000 0.26860  0.73580  0.61160  Biso   1.000  H
  H3       1.0000 0.63010  0.89930  0.76770  Biso   1.000  H
  H4       1.0000 0.49310  0.25320  0.77800  Biso   1.000  H
  H5       1.0000 0.62800  0.88000  0.90240  Biso   1.000  H
  H6       1.0000 0.61030  0.78760  0.94520  Biso   1.000  H
  H7       1.0000 0.39110  0.63800  0.98310  Biso   1.000  H
  H8       1.0000 0.32920  0.61220  0.92590  Biso   1.000  H
  H9       1.0000 0.99740  0.07510  0.79730  Biso   1.000  H
  H10      1.0000 0.88620  0.04990  0.83240  Biso   1.000  H
  H11      1.0000 0.84660  0.01010  0.26990  Biso   1.000  H
  H12      1.0000 0.73140  0.26420  0.11160  Biso   1.000  H
  H13      1.0000 0.36990  0.10070  0.26770  Biso   1.000  H
  H14      1.0000 0.50690  0.74680  0.27800  Biso   1.000  H
  H15      1.0000 0.37200  0.12000  0.40240  Biso   1.000  H
  H16      1.0000 0.38970  0.21240  0.44520  Biso   1.000  H
  H17      1.0000 0.60890  0.36200  0.48310  Biso   1.000  H
  H18      1.0000 0.67080  0.38780  0.42590  Biso   1.000  H
  H19      1.0000 0.00260  0.92490  0.29730  Biso   1.000  H
  H20      1.0000 0.11380  0.95010  0.33240  Biso   1.000  H
  H21      1.0000 0.34660  0.48990  0.76990  Biso   1.000  H
  H22      1.0000 0.23140  0.23580  0.61160  Biso   1.000  H
  H23      1.0000 0.86990  0.39930  0.76770  Biso   1.000  H
  H24      1.0000 0.00690  0.75320  0.77800  Biso   1.000  H
  H25      1.0000 0.87200  0.38000  0.90240  Biso   1.000  H
  H26      1.0000 0.88970  0.28760  0.94520  Biso   1.000  H
  H27      1.0000 0.10890  0.13800  0.98310  Biso   1.000  H
  H28      1.0000 0.17080  0.11220  0.92590  Biso   1.000  H
  H29      1.0000 0.50260  0.57510  0.79730  Biso   1.000  H
  H30      1.0000 0.61380  0.54990  0.83240  Biso   1.000  H
  H31      1.0000 0.65340  0.51010  0.26990  Biso   1.000  H
  H32      1.0000 0.76860  0.76420  0.11160  Biso   1.000  H
  H33      1.0000 0.13010  0.60070  0.26770  Biso   1.000  H
  H34      1.0000 0.99310  0.24680  0.27800  Biso   1.000  H
  H35      1.0000 0.12800  0.62000  0.40240  Biso   1.000  H
  H36      1.0000 0.11030  0.71240  0.44520  Biso   1.000  H
  H37      1.0000 0.89110  0.86200  0.48310  Biso   1.000  H
  H38      1.0000 0.82920  0.88780  0.42590  Biso   1.000  H
  H39      1.0000 0.49740  0.42490  0.29730  Biso   1.000  H
  H40      1.0000 0.38620  0.45010  0.33240  Biso   1.000  H
  C1       1.0000 0.17410  0.93520  0.73850  Biso   1.000  C
  C2       1.0000 0.13730  0.84750  0.63680  Biso   1.000  C
  C3       1.0000 0.24270  0.78550  0.64490  Biso   1.000  C
  C4       1.0000 0.30710  0.80100  0.70460  Biso   1.000  C
  C5       1.0000 0.41450  0.72590  0.72240  Biso   1.000  C
  C6       1.0000 0.05440  0.82720  0.57600  Biso   1.000  C
  C7       1.0000 0.60170  0.97190  0.76900  Biso   1.000  C
  C8       1.0000 0.62530  0.15280  0.73980  Biso   1.000  C
  C9       1.0000 0.52010  0.18030  0.77480  Biso   1.000  C
  C10      1.0000 0.45820  0.09450  0.80420  Biso   1.000  C
  C11      1.0000 0.34000  0.11360  0.84250  Biso   1.000  C
  C12      1.0000 0.70300  0.24270  0.70550  Biso   1.000  C
  C13      1.0000 0.82150  0.11590  0.51020  Biso   1.000  C
  C14      1.0000 0.70020  0.06340  0.53280  Biso   1.000  C
  C15      1.0000 0.82590  0.06480  0.23850  Biso   1.000  C
  C16      1.0000 0.86270  0.15250  0.13680  Biso   1.000  C
  C17      1.0000 0.75730  0.21450  0.14490  Biso   1.000  C
  C18      1.0000 0.69290  0.19900  0.20460  Biso   1.000  C
  C19      1.0000 0.58550  0.27410  0.22240  Biso   1.000  C
  C20      1.0000 0.94560  0.17280  0.07600  Biso   1.000  C
  C21      1.0000 0.39830  0.02810  0.26900  Biso   1.000  C
  C22      1.0000 0.37470  0.84720  0.23980  Biso   1.000  C
  C23      1.0000 0.47990  0.81970  0.27480  Biso   1.000  C
  C24      1.0000 0.54180  0.90550  0.30420  Biso   1.000  C
  C25      1.0000 0.66000  0.88640  0.34250  Biso   1.000  C
  C26      1.0000 0.29700  0.75730  0.20550  Biso   1.000  C
  C27      1.0000 0.17850  0.88410  0.01020  Biso   1.000  C
  C28      1.0000 0.29980  0.93660  0.03280  Biso   1.000  C
  C29      1.0000 0.32590  0.43520  0.73850  Biso   1.000  C
  C30      1.0000 0.36270  0.34750  0.63680  Biso   1.000  C
  C31      1.0000 0.25730  0.28550  0.64490  Biso   1.000  C
  C32      1.0000 0.19290  0.30100  0.70460  Biso   1.000  C
  C33      1.0000 0.08550  0.22590  0.72240  Biso   1.000  C
  C34      1.0000 0.44560  0.32720  0.57600  Biso   1.000  C
  C35      1.0000 0.89830  0.47190  0.76900  Biso   1.000  C
  C36      1.0000 0.87470  0.65280  0.73980  Biso   1.000  C
  C37      1.0000 0.97990  0.68030  0.77480  Biso   1.000  C
  C38      1.0000 0.04180  0.59450  0.80420  Biso   1.000  C
  C39      1.0000 0.16000  0.61360  0.84250  Biso   1.000  C
  C40      1.0000 0.79700  0.74270  0.70550  Biso   1.000  C
  C41      1.0000 0.67850  0.61590  0.51020  Biso   1.000  C
  C42      1.0000 0.79980  0.56340  0.53280  Biso   1.000  C
  C43      1.0000 0.67410  0.56480  0.23850  Biso   1.000  C
  C44      1.0000 0.63730  0.65250  0.13680  Biso   1.000  C
  C45      1.0000 0.74270  0.71450  0.14490  Biso   1.000  C
  C46      1.0000 0.80710  0.69900  0.20460  Biso   1.000  C
  C47      1.0000 0.91450  0.77410  0.22240  Biso   1.000  C
  C48      1.0000 0.55440  0.67280  0.07600  Biso   1.000  C
  C49      1.0000 0.10170  0.52810  0.26900  Biso   1.000  C
  C50      1.0000 0.12530  0.34720  0.23980  Biso   1.000  C
  C51      1.0000 0.02010  0.31970  0.27480  Biso   1.000  C
  C52      1.0000 0.95820  0.40550  0.30420  Biso   1.000  C
  C53      1.0000 0.84000  0.38640  0.34250  Biso   1.000  C
  C54      1.0000 0.20300  0.25730  0.20550  Biso   1.000  C
  C55      1.0000 0.32150  0.38410  0.01020  Biso   1.000  C
  C56      1.0000 0.20020  0.43660  0.03280  Biso   1.000  C
  N1       1.0000 0.27420  0.87520  0.75100  Biso   1.000  N
  N2       1.0000 0.10170  0.92200  0.68370  Biso   1.000  N
  N3       1.0000 0.49950  0.99050  0.80410  Biso   1.000  N
  N4       1.0000 0.66600  0.04730  0.73600  Biso   1.000  N
  N5       1.0000 0.72580  0.12480  0.25100  Biso   1.000  N
  N6       1.0000 0.89830  0.07800  0.18370  Biso   1.000  N
  N7       1.0000 0.50050  0.00950  0.30410  Biso   1.000  N
  N8       1.0000 0.33400  0.95270  0.23600  Biso   1.000  N
  N9       1.0000 0.22580  0.37520  0.75100  Biso   1.000  N
  N10      1.0000 0.39830  0.42200  0.68370  Biso   1.000  N
  N11      1.0000 0.00050  0.49050  0.80410  Biso   1.000  N
  N12      1.0000 0.83400  0.54730  0.73600  Biso   1.000  N
  N13      1.0000 0.77420  0.62480  0.25100  Biso   1.000  N
  N14      1.0000 0.60170  0.57800  0.18370  Biso   1.000  N
  N15      1.0000 0.99950  0.50950  0.30410  Biso   1.000  N
  N16      1.0000 0.16600  0.45270  0.23600  Biso   1.000  N
  O1       1.0000 0.45570  0.73620  0.78160  Biso   1.000  O
  O2       1.0000 0.44940  0.65980  0.67740  Biso   1.000  O
  O3       1.0000 0.95950  0.88880  0.57360  Biso   1.000  O
  O4       1.0000 0.08600  0.75830  0.53530  Biso   1.000  O
  O5       1.0000 0.29120  0.03370  0.87330  Biso   1.000  O
  O6       1.0000 0.29590  0.21030  0.83620  Biso   1.000  O
  O7       1.0000 0.79910  0.21180  0.67710  Biso   1.000  O
  O8       1.0000 0.66590  0.33910  0.70890  Biso   1.000  O
  O9       1.0000 0.82570  0.15150  0.44910  Biso   1.000  O
  O10      1.0000 0.90740  0.11770  0.55220  Biso   1.000  O
  O11      1.0000 0.61080  0.07780  0.49530  Biso   1.000  O
  O12      1.0000 0.70490  0.00930  0.58780  Biso   1.000  O
  O13      1.0000 0.58390  0.82150  0.90710  Biso   1.000  O
  O14      1.0000 0.38460  0.65780  0.94010  Biso   1.000  O
  O15      1.0000 0.92110  0.04080  0.79050  Biso   1.000  O
  O16      1.0000 0.54430  0.26380  0.28160  Biso   1.000  O
  O17      1.0000 0.55060  0.34020  0.17740  Biso   1.000  O
  O18      1.0000 0.04050  0.11120  0.07360  Biso   1.000  O
  O19      1.0000 0.91400  0.24170  0.03530  Biso   1.000  O
  O20      1.0000 0.70880  0.96630  0.37330  Biso   1.000  O
  O21      1.0000 0.70410  0.78970  0.33620  Biso   1.000  O
  O22      1.0000 0.20090  0.78820  0.17710  Biso   1.000  O
  O23      1.0000 0.33410  0.66090  0.20890  Biso   1.000  O
  O24      1.0000 0.17430  0.84850  0.94910  Biso   1.000  O
  O25      1.0000 0.09260  0.88230  0.05220  Biso   1.000  O
  O26      1.0000 0.38920  0.92220  0.99530  Biso   1.000  O
  O27      1.0000 0.29510  0.99070  0.08780  Biso   1.000  O
  O28      1.0000 0.41610  0.17850  0.40710  Biso   1.000  O
  O29      1.0000 0.61540  0.34220  0.44010  Biso   1.000  O
  O30      1.0000 0.07890  0.95920  0.29050  Biso   1.000  O
  O31      1.0000 0.04430  0.23620  0.78160  Biso   1.000  O
  O32      1.0000 0.05060  0.15980  0.67740  Biso   1.000  O
  O33      1.0000 0.54050  0.38880  0.57360  Biso   1.000  O
  O34      1.0000 0.41400  0.25830  0.53530  Biso   1.000  O
  O35      1.0000 0.20880  0.53370  0.87330  Biso   1.000  O
  O36      1.0000 0.20410  0.71030  0.83620  Biso   1.000  O
  O37      1.0000 0.70090  0.71180  0.67710  Biso   1.000  O
  O38      1.0000 0.83410  0.83910  0.70890  Biso   1.000  O
  O39      1.0000 0.67430  0.65150  0.44910  Biso   1.000  O
  O40      1.0000 0.59260  0.61770  0.55220  Biso   1.000  O
  O41      1.0000 0.88920  0.57780  0.49530  Biso   1.000  O
  O42      1.0000 0.79510  0.50930  0.58780  Biso   1.000  O
  O43      1.0000 0.91610  0.32150  0.90710  Biso   1.000  O
  O44      1.0000 0.11540  0.15780  0.94010  Biso   1.000  O
  O45      1.0000 0.57890  0.54080  0.79050  Biso   1.000  O
  O46      1.0000 0.95570  0.76380  0.28160  Biso   1.000  O
  O47      1.0000 0.94940  0.84020  0.17740  Biso   1.000  O
  O48      1.0000 0.45950  0.61120  0.07360  Biso   1.000  O
  O49      1.0000 0.58600  0.74170  0.03530  Biso   1.000  O
  O50      1.0000 0.79120  0.46630  0.37330  Biso   1.000  O
  O51      1.0000 0.79590  0.28970  0.33620  Biso   1.000  O
  O52      1.0000 0.29910  0.28820  0.17710  Biso   1.000  O
  O53      1.0000 0.16590  0.16090  0.20890  Biso   1.000  O
  O54      1.0000 0.32570  0.34850  0.94910  Biso   1.000  O
  O55      1.0000 0.40740  0.38230  0.05220  Biso   1.000  O
  O56      1.0000 0.11080  0.42220  0.99530  Biso   1.000  O
  O57      1.0000 0.20490  0.49070  0.08780  Biso   1.000  O
  O58      1.0000 0.08390  0.67850  0.40710  Biso   1.000  O
  O59      1.0000 0.88460  0.84220  0.44010  Biso   1.000  O
  O60      1.0000 0.42110  0.45920  0.29050  Biso   1.000  O
