data_image0
_cell_length_a       11.0417
_cell_length_b       12.135
_cell_length_c       19.6509
_cell_angle_alpha    90
_cell_angle_beta     90
_cell_angle_gamma    90

_symmetry_space_group_name_H-M    P 1
_symmetry_int_tables_number       1

loop_
  _symmetry_equiv_pos_as_xyz
  'x, y, z'

loop_
  _atom_site_label
  _atom_site_occupancy
  _atom_site_fract_x
  _atom_site_fract_y
  _atom_site_fract_z
  _atom_site_thermal_displace_type
  _atom_site_B_iso_or_equiv
  _atom_site_type_symbol
  La1      1.0000 0.63583  0.15959  0.12136  Biso   1.000  La
  La2      1.0000 0.11641  0.98193  0.33513  Biso   1.000  La
  La3      1.0000 0.36417  0.84041  0.62136  Biso   1.000  La
  La4      1.0000 0.88359  0.01807  0.83513  Biso   1.000  La
  La5      1.0000 0.86417  0.65959  0.12136  Biso   1.000  La
  La6      1.0000 0.38359  0.48193  0.33513  Biso   1.000  La
  La7      1.0000 0.13583  0.34041  0.62136  Biso   1.000  La
  La8      1.0000 0.61641  0.51807  0.83513  Biso   1.000  La
  H1       1.0000 0.84500  0.01250  0.23220  Biso   1.000  H
  H2       1.0000 0.73370  0.26780  0.38800  Biso   1.000  H
  H3       1.0000 0.37030  0.09980  0.23160  Biso   1.000  H
  H4       1.0000 0.50760  0.74740  0.22420  Biso   1.000  H
  H5       1.0000 0.35940  0.12380  0.09760  Biso   1.000  H
  H6       1.0000 0.38530  0.22070  0.05970  Biso   1.000  H
  H7       1.0000 0.55380  0.34370  0.02550  Biso   1.000  H
  H8       1.0000 0.64800  0.41320  0.07240  Biso   1.000  H
  H9       1.0000 0.06350  0.89090  0.19890  Biso   1.000  H
  H10      1.0000 0.13810  0.97700  0.18410  Biso   1.000  H
  H11      1.0000 0.15500  0.98750  0.73220  Biso   1.000  H
  H12      1.0000 0.26630  0.73220  0.88800  Biso   1.000  H
  H13      1.0000 0.62970  0.90020  0.73160  Biso   1.000  H
  H14      1.0000 0.49240  0.25260  0.72420  Biso   1.000  H
  H15      1.0000 0.64060  0.87620  0.59760  Biso   1.000  H
  H16      1.0000 0.61470  0.77930  0.55970  Biso   1.000  H
  H17      1.0000 0.44620  0.65630  0.52550  Biso   1.000  H
  H18      1.0000 0.35200  0.58680  0.57240  Biso   1.000  H
  H19      1.0000 0.93650  0.10910  0.69890  Biso   1.000  H
  H20      1.0000 0.86190  0.02300  0.68410  Biso   1.000  H
  H21      1.0000 0.65500  0.51250  0.23220  Biso   1.000  H
  H22      1.0000 0.76630  0.76780  0.38800  Biso   1.000  H
  H23      1.0000 0.12970  0.59980  0.23160  Biso   1.000  H
  H24      1.0000 0.99240  0.24740  0.22420  Biso   1.000  H
  H25      1.0000 0.14060  0.62380  0.09760  Biso   1.000  H
  H26      1.0000 0.11470  0.72070  0.05970  Biso   1.000  H
  H27      1.0000 0.94620  0.84370  0.02550  Biso   1.000  H
  H28      1.0000 0.85200  0.91320  0.07240  Biso   1.000  H
  H29      1.0000 0.43650  0.39090  0.19890  Biso   1.000  H
  H30      1.0000 0.36190  0.47700  0.18410  Biso   1.000  H
  H31      1.0000 0.34500  0.48750  0.73220  Biso   1.000  H
  H32      1.0000 0.23370  0.23220  0.88800  Biso   1.000  H
  H33      1.0000 0.87030  0.40020  0.73160  Biso   1.000  H
  H34      1.0000 0.00760  0.75260  0.72420  Biso   1.000  H
  H35      1.0000 0.85940  0.37620  0.59760  Biso   1.000  H
  H36      1.0000 0.88530  0.27930  0.55970  Biso   1.000  H
  H37      1.0000 0.05380  0.15630  0.52550  Biso   1.000  H
  H38      1.0000 0.14800  0.08680  0.57240  Biso   1.000  H
  H39      1.0000 0.56350  0.60910  0.69890  Biso   1.000  H
  H40      1.0000 0.63810  0.52300  0.68410  Biso   1.000  H
  C1       1.0000 0.82370  0.06730  0.26300  Biso   1.000  C
  C2       1.0000 0.86250  0.15760  0.36270  Biso   1.000  C
  C3       1.0000 0.75870  0.21800  0.35490  Biso   1.000  C
  C4       1.0000 0.69270  0.20220  0.29630  Biso   1.000  C
  C5       1.0000 0.58650  0.27580  0.27750  Biso   1.000  C
  C6       1.0000 0.94730  0.17600  0.42230  Biso   1.000  C
  C7       1.0000 0.39830  0.02750  0.23060  Biso   1.000  C
  C8       1.0000 0.37340  0.84990  0.26060  Biso   1.000  C
  C9       1.0000 0.48040  0.81980  0.22640  Biso   1.000  C
  C10      1.0000 0.54130  0.90590  0.19650  Biso   1.000  C
  C11      1.0000 0.66130  0.88460  0.15810  Biso   1.000  C
  C12      1.0000 0.29580  0.76100  0.29380  Biso   1.000  C
  C13      1.0000 0.17800  0.88720  0.49120  Biso   1.000  C
  C14      1.0000 0.29920  0.93840  0.46800  Biso   1.000  C
  C15      1.0000 0.17630  0.93270  0.76300  Biso   1.000  C
  C16      1.0000 0.13750  0.84240  0.86270  Biso   1.000  C
  C17      1.0000 0.24130  0.78200  0.85490  Biso   1.000  C
  C18      1.0000 0.30730  0.79780  0.79630  Biso   1.000  C
  C19      1.0000 0.41350  0.72420  0.77750  Biso   1.000  C
  C20      1.0000 0.05270  0.82400  0.92230  Biso   1.000  C
  C21      1.0000 0.60170  0.97250  0.73060  Biso   1.000  C
  C22      1.0000 0.62660  0.15010  0.76060  Biso   1.000  C
  C23      1.0000 0.51960  0.18020  0.72640  Biso   1.000  C
  C24      1.0000 0.45870  0.09410  0.69650  Biso   1.000  C
  C25      1.0000 0.33870  0.11540  0.65810  Biso   1.000  C
  C26      1.0000 0.70420  0.23900  0.79380  Biso   1.000  C
  C27      1.0000 0.82200  0.11280  0.99120  Biso   1.000  C
  C28      1.0000 0.70080  0.06160  0.96800  Biso   1.000  C
  C29      1.0000 0.67630  0.56730  0.26300  Biso   1.000  C
  C30      1.0000 0.63750  0.65760  0.36270  Biso   1.000  C
  C31      1.0000 0.74130  0.71800  0.35490  Biso   1.000  C
  C32      1.0000 0.80730  0.70220  0.29630  Biso   1.000  C
  C33      1.0000 0.91350  0.77580  0.27750  Biso   1.000  C
  C34      1.0000 0.55270  0.67600  0.42230  Biso   1.000  C
  C35      1.0000 0.10170  0.52750  0.23060  Biso   1.000  C
  C36      1.0000 0.12660  0.34990  0.26060  Biso   1.000  C
  C37      1.0000 0.01960  0.31980  0.22640  Biso   1.000  C
  C38      1.0000 0.95870  0.40590  0.19650  Biso   1.000  C
  C39      1.0000 0.83870  0.38460  0.15810  Biso   1.000  C
  C40      1.0000 0.20420  0.26100  0.29380  Biso   1.000  C
  C41      1.0000 0.32200  0.38720  0.49120  Biso   1.000  C
  C42      1.0000 0.20080  0.43840  0.46800  Biso   1.000  C
  C43      1.0000 0.32370  0.43270  0.76300  Biso   1.000  C
  C44      1.0000 0.36250  0.34240  0.86270  Biso   1.000  C
  C45      1.0000 0.25870  0.28200  0.85490  Biso   1.000  C
  C46      1.0000 0.19270  0.29780  0.79630  Biso   1.000  C
  C47      1.0000 0.08650  0.22420  0.77750  Biso   1.000  C
  C48      1.0000 0.44730  0.32400  0.92230  Biso   1.000  C
  C49      1.0000 0.89830  0.47250  0.73060  Biso   1.000  C
  C50      1.0000 0.87340  0.65010  0.76060  Biso   1.000  C
  C51      1.0000 0.98040  0.68020  0.72640  Biso   1.000  C
  C52      1.0000 0.04130  0.59410  0.69650  Biso   1.000  C
  C53      1.0000 0.16130  0.61540  0.65810  Biso   1.000  C
  C54      1.0000 0.79580  0.73900  0.79380  Biso   1.000  C
  C55      1.0000 0.67800  0.61280  0.99120  Biso   1.000  C
  C56      1.0000 0.79920  0.56160  0.96800  Biso   1.000  C
  N1       1.0000 0.72510  0.12640  0.24970  Biso   1.000  N
  N2       1.0000 0.89340  0.08080  0.31700  Biso   1.000  N
  N3       1.0000 0.50000  0.00890  0.19630  Biso   1.000  N
  N4       1.0000 0.33280  0.95310  0.26360  Biso   1.000  N
  N5       1.0000 0.27490  0.87360  0.74970  Biso   1.000  N
  N6       1.0000 0.10660  0.91920  0.81700  Biso   1.000  N
  N7       1.0000 0.50000  0.99110  0.69630  Biso   1.000  N
  N8       1.0000 0.66720  0.04690  0.76360  Biso   1.000  N
  N9       1.0000 0.77490  0.62640  0.24970  Biso   1.000  N
  N10      1.0000 0.60660  0.58080  0.31700  Biso   1.000  N
  N11      1.0000 0.00000  0.50890  0.19630  Biso   1.000  N
  N12      1.0000 0.16720  0.45310  0.26360  Biso   1.000  N
  N13      1.0000 0.22510  0.37360  0.74970  Biso   1.000  N
  N14      1.0000 0.39340  0.41920  0.81700  Biso   1.000  N
  N15      1.0000 0.00000  0.49110  0.69630  Biso   1.000  N
  N16      1.0000 0.83280  0.54690  0.76360  Biso   1.000  N
  O1       1.0000 0.54310  0.26390  0.21900  Biso   1.000  O
  O2       1.0000 0.55300  0.34370  0.32170  Biso   1.000  O
  O3       1.0000 0.03850  0.11550  0.42610  Biso   1.000  O
  O4       1.0000 0.91730  0.24930  0.46310  Biso   1.000  O
  O5       1.0000 0.70980  0.96550  0.12860  Biso   1.000  O
  O6       1.0000 0.70270  0.78970  0.16270  Biso   1.000  O
  O7       1.0000 0.20080  0.79180  0.32220  Biso   1.000  O
  O8       1.0000 0.33290  0.66280  0.28940  Biso   1.000  O
  O9       1.0000 0.09120  0.88530  0.44830  Biso   1.000  O
  O10      1.0000 0.17370  0.85020  0.55050  Biso   1.000  O
  O11      1.0000 0.29590  0.99430  0.41310  Biso   1.000  O
  O12      1.0000 0.38730  0.92460  0.50450  Biso   1.000  O
  O13      1.0000 0.41640  0.17840  0.09160  Biso   1.000  O
  O14      1.0000 0.61500  0.34140  0.05900  Biso   1.000  O
  O15      1.0000 0.07350  0.96510  0.20810  Biso   1.000  O
  O16      1.0000 0.45690  0.73610  0.71900  Biso   1.000  O
  O17      1.0000 0.44700  0.65630  0.82170  Biso   1.000  O
  O18      1.0000 0.96150  0.88450  0.92610  Biso   1.000  O
  O19      1.0000 0.08270  0.75070  0.96310  Biso   1.000  O
  O20      1.0000 0.29020  0.03450  0.62860  Biso   1.000  O
  O21      1.0000 0.29730  0.21030  0.66270  Biso   1.000  O
  O22      1.0000 0.79920  0.20820  0.82220  Biso   1.000  O
  O23      1.0000 0.66710  0.33720  0.78940  Biso   1.000  O
  O24      1.0000 0.90880  0.11470  0.94830  Biso   1.000  O
  O25      1.0000 0.82630  0.14980  0.05050  Biso   1.000  O
  O26      1.0000 0.70410  0.00570  0.91310  Biso   1.000  O
  O27      1.0000 0.61270  0.07540  0.00450  Biso   1.000  O
  O28      1.0000 0.58360  0.82160  0.59160  Biso   1.000  O
  O29      1.0000 0.38500  0.65860  0.55900  Biso   1.000  O
  O30      1.0000 0.92650  0.03490  0.70810  Biso   1.000  O
  O31      1.0000 0.95690  0.76390  0.21900  Biso   1.000  O
  O32      1.0000 0.94700  0.84370  0.32170  Biso   1.000  O
  O33      1.0000 0.46150  0.61550  0.42610  Biso   1.000  O
  O34      1.0000 0.58270  0.74930  0.46310  Biso   1.000  O
  O35      1.0000 0.79020  0.46550  0.12860  Biso   1.000  O
  O36      1.0000 0.79730  0.28970  0.16270  Biso   1.000  O
  O37      1.0000 0.29920  0.29180  0.32220  Biso   1.000  O
  O38      1.0000 0.16710  0.16280  0.28940  Biso   1.000  O
  O39      1.0000 0.40880  0.38530  0.44830  Biso   1.000  O
  O40      1.0000 0.32630  0.35020  0.55050  Biso   1.000  O
  O41      1.0000 0.20410  0.49430  0.41310  Biso   1.000  O
  O42      1.0000 0.11270  0.42460  0.50450  Biso   1.000  O
  O43      1.0000 0.08360  0.67840  0.09160  Biso   1.000  O
  O44      1.0000 0.88500  0.84140  0.05900  Biso   1.000  O
  O45      1.0000 0.42650  0.46510  0.20810  Biso   1.000  O
  O46      1.0000 0.04310  0.23610  0.71900  Biso   1.000  O
  O47      1.0000 0.05300  0.15630  0.82170  Biso   1.000  O
  O48      1.0000 0.53850  0.38450  0.92610  Biso   1.000  O
  O49      1.0000 0.41730  0.25070  0.96310  Biso   1.000  O
  O50      1.0000 0.20980  0.53450  0.62860  Biso   1.000  O
  O51      1.0000 0.20270  0.71030  0.66270  Biso   1.000  O
  O52      1.0000 0.70080  0.70820  0.82220  Biso   1.000  O
  O53      1.0000 0.83290  0.83720  0.78940  Biso   1.000  O
  O54      1.0000 0.59120  0.61470  0.94830  Biso   1.000  O
  O55      1.0000 0.67370  0.64980  0.05050  Biso   1.000  O
  O56      1.0000 0.79590  0.50570  0.91310  Biso   1.000  O
  O57      1.0000 0.88730  0.57540  0.00450  Biso   1.000  O
  O58      1.0000 0.91640  0.32160  0.59160  Biso   1.000  O
  O59      1.0000 0.11500  0.15860  0.55900  Biso   1.000  O
  O60      1.0000 0.57350  0.53490  0.70810  Biso   1.000  O
