data_image0
_cell_length_a       10.989
_cell_length_b       11.946
_cell_length_c       19.402
_cell_angle_alpha    90
_cell_angle_beta     90
_cell_angle_gamma    90

_symmetry_space_group_name_H-M    P 1
_symmetry_int_tables_number       1

loop_
  _symmetry_equiv_pos_as_xyz
  'x, y, z'

loop_
  _atom_site_label
  _atom_site_occupancy
  _atom_site_fract_x
  _atom_site_fract_y
  _atom_site_fract_z
  _atom_site_thermal_displace_type
  _atom_site_B_iso_or_equiv
  _atom_site_type_symbol
  Nd1      1.0000 0.13672  0.34181  0.01438  Biso   1.000  Nd
  Nd2      1.0000 0.61797  0.52400  0.22855  Biso   1.000  Nd
  Nd3      1.0000 0.86328  0.65819  0.51438  Biso   1.000  Nd
  Nd4      1.0000 0.38203  0.47600  0.72855  Biso   1.000  Nd
  Nd5      1.0000 0.36328  0.84181  0.01438  Biso   1.000  Nd
  Nd6      1.0000 0.88203  0.02400  0.22855  Biso   1.000  Nd
  Nd7      1.0000 0.63672  0.15819  0.51438  Biso   1.000  Nd
  Nd8      1.0000 0.11797  0.97600  0.72855  Biso   1.000  Nd
  H1       1.0000 0.34930  0.49330  0.12180  Biso   1.000  H
  H2       1.0000 0.23180  0.24030  0.28210  Biso   1.000  H
  H3       1.0000 0.87010  0.39830  0.12570  Biso   1.000  H
  H4       1.0000 0.00540  0.75640  0.11480  Biso   1.000  H
  H5       1.0000 0.85750  0.36560  0.98640  Biso   1.000  H
  H6       1.0000 0.93260  0.30520  0.94310  Biso   1.000  H
  H7       1.0000 0.11490  0.14070  0.90910  Biso   1.000  H
  H8       1.0000 0.18580  0.13160  0.96640  Biso   1.000  H
  H9       1.0000 0.55480  0.61270  0.10140  Biso   1.000  H
  H10      1.0000 0.63050  0.53850  0.06930  Biso   1.000  H
  H11      1.0000 0.65070  0.50670  0.62180  Biso   1.000  H
  H12      1.0000 0.76820  0.75970  0.78210  Biso   1.000  H
  H13      1.0000 0.12990  0.60170  0.62570  Biso   1.000  H
  H14      1.0000 0.99460  0.24360  0.61480  Biso   1.000  H
  H15      1.0000 0.14250  0.63440  0.48640  Biso   1.000  H
  H16      1.0000 0.06740  0.69480  0.44310  Biso   1.000  H
  H17      1.0000 0.88510  0.85930  0.40910  Biso   1.000  H
  H18      1.0000 0.81420  0.86840  0.46640  Biso   1.000  H
  H19      1.0000 0.44520  0.38730  0.60140  Biso   1.000  H
  H20      1.0000 0.36950  0.46150  0.56930  Biso   1.000  H
  H21      1.0000 0.15070  0.99330  0.12180  Biso   1.000  H
  H22      1.0000 0.26820  0.74030  0.28210  Biso   1.000  H
  H23      1.0000 0.62990  0.89830  0.12570  Biso   1.000  H
  H24      1.0000 0.49460  0.25640  0.11480  Biso   1.000  H
  H25      1.0000 0.64250  0.86560  0.98640  Biso   1.000  H
  H26      1.0000 0.56740  0.80520  0.94310  Biso   1.000  H
  H27      1.0000 0.38510  0.64070  0.90910  Biso   1.000  H
  H28      1.0000 0.31420  0.63160  0.96640  Biso   1.000  H
  H29      1.0000 0.94520  0.11270  0.10140  Biso   1.000  H
  H30      1.0000 0.86950  0.03850  0.06930  Biso   1.000  H
  H31      1.0000 0.84930  0.00670  0.62180  Biso   1.000  H
  H32      1.0000 0.73180  0.25970  0.78210  Biso   1.000  H
  H33      1.0000 0.37010  0.10170  0.62570  Biso   1.000  H
  H34      1.0000 0.50540  0.74360  0.61480  Biso   1.000  H
  H35      1.0000 0.35750  0.13440  0.48640  Biso   1.000  H
  H36      1.0000 0.43260  0.19480  0.44310  Biso   1.000  H
  H37      1.0000 0.61490  0.35930  0.40910  Biso   1.000  H
  H38      1.0000 0.68580  0.36840  0.46640  Biso   1.000  H
  H39      1.0000 0.05480  0.88730  0.60140  Biso   1.000  H
  H40      1.0000 0.13050  0.96150  0.56930  Biso   1.000  H
  C1       1.0000 0.32790  0.43830  0.15340  Biso   1.000  C
  C2       1.0000 0.36420  0.35180  0.25580  Biso   1.000  C
  C3       1.0000 0.25770  0.28960  0.24810  Biso   1.000  C
  C4       1.0000 0.19300  0.30400  0.18870  Biso   1.000  C
  C5       1.0000 0.08620  0.22940  0.17040  Biso   1.000  C
  C6       1.0000 0.44730  0.33260  0.31670  Biso   1.000  C
  C7       1.0000 0.89820  0.47170  0.12400  Biso   1.000  C
  C8       1.0000 0.87360  0.65490  0.15370  Biso   1.000  C
  C9       1.0000 0.97860  0.68270  0.11800  Biso   1.000  C
  C10      1.0000 0.04130  0.59610  0.08760  Biso   1.000  C
  C11      1.0000 0.16050  0.61600  0.05010  Biso   1.000  C
  C12      1.0000 0.79600  0.74460  0.18790  Biso   1.000  C
  C13      1.0000 0.79920  0.56490  0.35990  Biso   1.000  C
  C14      1.0000 0.67740  0.61740  0.38370  Biso   1.000  C
  C15      1.0000 0.67210  0.56170  0.65340  Biso   1.000  C
  C16      1.0000 0.63580  0.64820  0.75580  Biso   1.000  C
  C17      1.0000 0.74230  0.71040  0.74810  Biso   1.000  C
  C18      1.0000 0.80700  0.69600  0.68870  Biso   1.000  C
  C19      1.0000 0.91380  0.77060  0.67040  Biso   1.000  C
  C20      1.0000 0.55270  0.66740  0.81670  Biso   1.000  C
  C21      1.0000 0.10180  0.52830  0.62400  Biso   1.000  C
  C22      1.0000 0.12640  0.34510  0.65370  Biso   1.000  C
  C23      1.0000 0.02140  0.31730  0.61800  Biso   1.000  C
  C24      1.0000 0.95870  0.40390  0.58760  Biso   1.000  C
  C25      1.0000 0.83950  0.38400  0.55010  Biso   1.000  C
  C26      1.0000 0.20400  0.25540  0.68790  Biso   1.000  C
  C27      1.0000 0.20080  0.43510  0.85990  Biso   1.000  C
  C28      1.0000 0.32260  0.38260  0.88370  Biso   1.000  C
  C29      1.0000 0.17210  0.93830  0.15340  Biso   1.000  C
  C30      1.0000 0.13580  0.85180  0.25580  Biso   1.000  C
  C31      1.0000 0.24230  0.78960  0.24810  Biso   1.000  C
  C32      1.0000 0.30700  0.80400  0.18870  Biso   1.000  C
  C33      1.0000 0.41380  0.72940  0.17040  Biso   1.000  C
  C34      1.0000 0.05270  0.83260  0.31670  Biso   1.000  C
  C35      1.0000 0.60180  0.97170  0.12400  Biso   1.000  C
  C36      1.0000 0.62640  0.15490  0.15370  Biso   1.000  C
  C37      1.0000 0.52140  0.18270  0.11800  Biso   1.000  C
  C38      1.0000 0.45870  0.09610  0.08760  Biso   1.000  C
  C39      1.0000 0.33950  0.11600  0.05010  Biso   1.000  C
  C40      1.0000 0.70400  0.24460  0.18790  Biso   1.000  C
  C41      1.0000 0.70080  0.06490  0.35990  Biso   1.000  C
  C42      1.0000 0.82260  0.11740  0.38370  Biso   1.000  C
  C43      1.0000 0.82790  0.06170  0.65340  Biso   1.000  C
  C44      1.0000 0.86420  0.14820  0.75580  Biso   1.000  C
  C45      1.0000 0.75770  0.21040  0.74810  Biso   1.000  C
  C46      1.0000 0.69300  0.19600  0.68870  Biso   1.000  C
  C47      1.0000 0.58620  0.27060  0.67040  Biso   1.000  C
  C48      1.0000 0.94730  0.16740  0.81670  Biso   1.000  C
  C49      1.0000 0.39820  0.02830  0.62400  Biso   1.000  C
  C50      1.0000 0.37360  0.84510  0.65370  Biso   1.000  C
  C51      1.0000 0.47860  0.81730  0.61800  Biso   1.000  C
  C52      1.0000 0.54130  0.90390  0.58760  Biso   1.000  C
  C53      1.0000 0.66050  0.88400  0.55010  Biso   1.000  C
  C54      1.0000 0.29600  0.75540  0.68790  Biso   1.000  C
  C55      1.0000 0.29920  0.93510  0.85990  Biso   1.000  C
  C56      1.0000 0.17740  0.88260  0.88370  Biso   1.000  C
  N1       1.0000 0.22760  0.37880  0.14000  Biso   1.000  N
  N2       1.0000 0.39990  0.42570  0.20820  Biso   1.000  N
  N3       1.0000 0.00050  0.49090  0.08870  Biso   1.000  N
  N4       1.0000 0.83290  0.54920  0.15710  Biso   1.000  N
  N5       1.0000 0.77240  0.62120  0.64000  Biso   1.000  N
  N6       1.0000 0.60010  0.57430  0.70820  Biso   1.000  N
  N7       1.0000 0.99950  0.50910  0.58870  Biso   1.000  N
  N8       1.0000 0.16710  0.45080  0.65710  Biso   1.000  N
  N9       1.0000 0.27240  0.87880  0.14000  Biso   1.000  N
  N10      1.0000 0.10010  0.92570  0.20820  Biso   1.000  N
  N11      1.0000 0.49950  0.99090  0.08870  Biso   1.000  N
  N12      1.0000 0.66710  0.04920  0.15710  Biso   1.000  N
  N13      1.0000 0.72760  0.12120  0.64000  Biso   1.000  N
  N14      1.0000 0.89990  0.07430  0.70820  Biso   1.000  N
  N15      1.0000 0.50050  0.00910  0.58870  Biso   1.000  N
  N16      1.0000 0.33290  0.95080  0.65710  Biso   1.000  N
  O1       1.0000 0.04470  0.23870  0.11006  Biso   1.000  O
  O2       1.0000 0.05030  0.16220  0.21588  Biso   1.000  O
  O3       1.0000 0.54290  0.39190  0.31907  Biso   1.000  O
  O4       1.0000 0.41480  0.26170  0.35810  Biso   1.000  O
  O5       1.0000 0.20840  0.53450  0.01860  Biso   1.000  O
  O6       1.0000 0.20570  0.71140  0.05666  Biso   1.000  O
  O7       1.0000 0.70050  0.71310  0.21651  Biso   1.000  O
  O8       1.0000 0.83410  0.84270  0.18380  Biso   1.000  O
  O9       1.0000 0.88930  0.57900  0.39760  Biso   1.000  O
  O10      1.0000 0.79520  0.51090  0.30440  Biso   1.000  O
  O11      1.0000 0.67410  0.65150  0.44458  Biso   1.000  O
  O12      1.0000 0.59180  0.62040  0.34009  Biso   1.000  O
  O13      1.0000 0.92020  0.32210  0.98652  Biso   1.000  O
  O14      1.0000 0.11550  0.16150  0.95300  Biso   1.000  O
  O15      1.0000 0.57990  0.54310  0.10317  Biso   1.000  O
  O16      1.0000 0.95530  0.76130  0.61006  Biso   1.000  O
  O17      1.0000 0.94970  0.83780  0.71588  Biso   1.000  O
  O18      1.0000 0.45710  0.60810  0.81907  Biso   1.000  O
  O19      1.0000 0.58520  0.73830  0.85810  Biso   1.000  O
  O20      1.0000 0.79160  0.46550  0.51860  Biso   1.000  O
  O21      1.0000 0.79430  0.28860  0.55666  Biso   1.000  O
  O22      1.0000 0.29950  0.28690  0.71651  Biso   1.000  O
  O23      1.0000 0.16590  0.15730  0.68380  Biso   1.000  O
  O24      1.0000 0.11070  0.42100  0.89760  Biso   1.000  O
  O25      1.0000 0.20480  0.48910  0.80440  Biso   1.000  O
  O26      1.0000 0.32590  0.34850  0.94458  Biso   1.000  O
  O27      1.0000 0.40820  0.37960  0.84009  Biso   1.000  O
  O28      1.0000 0.07980  0.67790  0.48652  Biso   1.000  O
  O29      1.0000 0.88450  0.83850  0.45300  Biso   1.000  O
  O30      1.0000 0.42010  0.45690  0.60317  Biso   1.000  O
  O31      1.0000 0.45530  0.73870  0.11006  Biso   1.000  O
  O32      1.0000 0.44970  0.66220  0.21588  Biso   1.000  O
  O33      1.0000 0.95710  0.89190  0.31907  Biso   1.000  O
  O34      1.0000 0.08520  0.76170  0.35810  Biso   1.000  O
  O35      1.0000 0.29160  0.03450  0.01860  Biso   1.000  O
  O36      1.0000 0.29430  0.21140  0.05666  Biso   1.000  O
  O37      1.0000 0.79950  0.21310  0.21651  Biso   1.000  O
  O38      1.0000 0.66590  0.34270  0.18380  Biso   1.000  O
  O39      1.0000 0.61070  0.07900  0.39760  Biso   1.000  O
  O40      1.0000 0.70480  0.01090  0.30440  Biso   1.000  O
  O41      1.0000 0.82590  0.15150  0.44458  Biso   1.000  O
  O42      1.0000 0.90820  0.12040  0.34009  Biso   1.000  O
  O43      1.0000 0.57980  0.82210  0.98652  Biso   1.000  O
  O44      1.0000 0.38450  0.66150  0.95300  Biso   1.000  O
  O45      1.0000 0.92010  0.04310  0.10317  Biso   1.000  O
  O46      1.0000 0.54470  0.26130  0.61006  Biso   1.000  O
  O47      1.0000 0.55030  0.33780  0.71588  Biso   1.000  O
  O48      1.0000 0.04290  0.10810  0.81907  Biso   1.000  O
  O49      1.0000 0.91480  0.23830  0.85810  Biso   1.000  O
  O50      1.0000 0.70840  0.96550  0.51860  Biso   1.000  O
  O51      1.0000 0.70570  0.78860  0.55666  Biso   1.000  O
  O52      1.0000 0.20050  0.78690  0.71651  Biso   1.000  O
  O53      1.0000 0.33410  0.65730  0.68380  Biso   1.000  O
  O54      1.0000 0.38930  0.92100  0.89760  Biso   1.000  O
  O55      1.0000 0.29520  0.98910  0.80440  Biso   1.000  O
  O56      1.0000 0.17410  0.84850  0.94458  Biso   1.000  O
  O57      1.0000 0.09180  0.87960  0.84009  Biso   1.000  O
  O58      1.0000 0.42020  0.17790  0.48652  Biso   1.000  O
  O59      1.0000 0.61550  0.33850  0.45300  Biso   1.000  O
  O60      1.0000 0.07990  0.95690  0.60317  Biso   1.000  O
