data_image0
_cell_length_a       10.962
_cell_length_b       11.868
_cell_length_c       19.307
_cell_angle_alpha    90
_cell_angle_beta     90
_cell_angle_gamma    90

_symmetry_space_group_name_H-M    P 1
_symmetry_int_tables_number       1

loop_
  _symmetry_equiv_pos_as_xyz
  'x, y, z'

loop_
  _atom_site_label
  _atom_site_occupancy
  _atom_site_fract_x
  _atom_site_fract_y
  _atom_site_fract_z
  _atom_site_thermal_displace_type
  _atom_site_B_iso_or_equiv
  _atom_site_type_symbol
  Sm1      1.0000 0.36276  0.65766  0.60119  Biso   1.000  Sm
  Sm2      1.0000 0.88120  0.47292  0.81564  Biso   1.000  Sm
  Sm3      1.0000 0.63724  0.34234  0.10119  Biso   1.000  Sm
  Sm4      1.0000 0.11880  0.52708  0.31564  Biso   1.000  Sm
  Sm5      1.0000 0.13724  0.15766  0.60119  Biso   1.000  Sm
  Sm6      1.0000 0.61880  0.97292  0.81564  Biso   1.000  Sm
  Sm7      1.0000 0.86276  0.84234  0.10119  Biso   1.000  Sm
  Sm8      1.0000 0.38120  0.02708  0.31564  Biso   1.000  Sm
  H1       1.0000 0.14800  0.50470  0.70710  Biso   1.000  H
  H2       1.0000 0.27090  0.75260  0.86980  Biso   1.000  H
  H3       1.0000 0.62770  0.60160  0.71510  Biso   1.000  H
  H4       1.0000 0.49510  0.24200  0.70150  Biso   1.000  H
  H5       1.0000 0.61060  0.61260  0.58540  Biso   1.000  H
  H6       1.0000 0.59180  0.68770  0.52860  Biso   1.000  H
  H7       1.0000 0.44540  0.86510  0.50720  Biso   1.000  H
  H8       1.0000 0.31510  0.88380  0.54210  Biso   1.000  H
  H9       1.0000 0.96470  0.40200  0.67430  Biso   1.000  H
  H10      1.0000 0.86520  0.46690  0.65850  Biso   1.000  H
  H11      1.0000 0.85200  0.49530  0.20710  Biso   1.000  H
  H12      1.0000 0.72910  0.24740  0.36980  Biso   1.000  H
  H13      1.0000 0.37230  0.39840  0.21510  Biso   1.000  H
  H14      1.0000 0.50490  0.75800  0.20150  Biso   1.000  H
  H15      1.0000 0.38940  0.38740  0.08540  Biso   1.000  H
  H16      1.0000 0.40820  0.31230  0.02860  Biso   1.000  H
  H17      1.0000 0.55460  0.13490  0.00720  Biso   1.000  H
  H18      1.0000 0.68490  0.11620  0.04210  Biso   1.000  H
  H19      1.0000 0.03530  0.59800  0.17430  Biso   1.000  H
  H20      1.0000 0.13480  0.53310  0.15850  Biso   1.000  H
  H21      1.0000 0.35200  0.00470  0.70710  Biso   1.000  H
  H22      1.0000 0.22910  0.25260  0.86980  Biso   1.000  H
  H23      1.0000 0.87230  0.10160  0.71510  Biso   1.000  H
  H24      1.0000 0.00490  0.74200  0.70150  Biso   1.000  H
  H25      1.0000 0.88940  0.11260  0.58540  Biso   1.000  H
  H26      1.0000 0.90820  0.18770  0.52860  Biso   1.000  H
  H27      1.0000 0.05460  0.36510  0.50720  Biso   1.000  H
  H28      1.0000 0.18490  0.38380  0.54210  Biso   1.000  H
  H29      1.0000 0.53530  0.90200  0.67430  Biso   1.000  H
  H30      1.0000 0.63480  0.96690  0.65850  Biso   1.000  H
  H31      1.0000 0.64800  0.99530  0.20710  Biso   1.000  H
  H32      1.0000 0.77090  0.74740  0.36980  Biso   1.000  H
  H33      1.0000 0.12770  0.89840  0.21510  Biso   1.000  H
  H34      1.0000 0.99510  0.25800  0.20150  Biso   1.000  H
  H35      1.0000 0.11060  0.88740  0.08540  Biso   1.000  H
  H36      1.0000 0.09180  0.81230  0.02860  Biso   1.000  H
  H37      1.0000 0.94540  0.63490  0.00720  Biso   1.000  H
  H38      1.0000 0.81510  0.61620  0.04210  Biso   1.000  H
  H39      1.0000 0.46470  0.09800  0.17430  Biso   1.000  H
  H40      1.0000 0.36520  0.03310  0.15850  Biso   1.000  H
  C1       1.0000 0.16980  0.55920  0.73940  Biso   1.000  C
  C2       1.0000 0.13560  0.64410  0.84250  Biso   1.000  C
  C3       1.0000 0.24310  0.70490  0.83500  Biso   1.000  C
  C4       1.0000 0.30640  0.69200  0.77480  Biso   1.000  C
  C5       1.0000 0.41300  0.76870  0.75650  Biso   1.000  C
  C6       1.0000 0.05170  0.66280  0.90430  Biso   1.000  C
  C7       1.0000 0.60070  0.52750  0.71230  Biso   1.000  C
  C8       1.0000 0.62650  0.34290  0.74000  Biso   1.000  C
  C9       1.0000 0.52210  0.31610  0.70470  Biso   1.000  C
  C10      1.0000 0.45870  0.40280  0.67420  Biso   1.000  C
  C11      1.0000 0.33900  0.38350  0.63610  Biso   1.000  C
  C12      1.0000 0.70360  0.25310  0.77540  Biso   1.000  C
  C13      1.0000 0.82210  0.38020  0.97100  Biso   1.000  C
  C14      1.0000 0.70050  0.43250  0.94690  Biso   1.000  C
  C15      1.0000 0.83020  0.44080  0.23940  Biso   1.000  C
  C16      1.0000 0.86440  0.35590  0.34250  Biso   1.000  C
  C17      1.0000 0.75690  0.29510  0.33500  Biso   1.000  C
  C18      1.0000 0.69360  0.30800  0.27480  Biso   1.000  C
  C19      1.0000 0.58700  0.23130  0.25650  Biso   1.000  C
  C20      1.0000 0.94830  0.33720  0.40430  Biso   1.000  C
  C21      1.0000 0.39930  0.47250  0.21230  Biso   1.000  C
  C22      1.0000 0.37350  0.65710  0.24000  Biso   1.000  C
  C23      1.0000 0.47790  0.68390  0.20470  Biso   1.000  C
  C24      1.0000 0.54130  0.59720  0.17420  Biso   1.000  C
  C25      1.0000 0.66100  0.61650  0.13610  Biso   1.000  C
  C26      1.0000 0.29640  0.74690  0.27540  Biso   1.000  C
  C27      1.0000 0.17790  0.61980  0.47100  Biso   1.000  C
  C28      1.0000 0.29950  0.56750  0.44690  Biso   1.000  C
  C29      1.0000 0.33020  0.05920  0.73940  Biso   1.000  C
  C30      1.0000 0.36440  0.14410  0.84250  Biso   1.000  C
  C31      1.0000 0.25690  0.20490  0.83500  Biso   1.000  C
  C32      1.0000 0.19360  0.19200  0.77480  Biso   1.000  C
  C33      1.0000 0.08700  0.26870  0.75650  Biso   1.000  C
  C34      1.0000 0.44830  0.16280  0.90430  Biso   1.000  C
  C35      1.0000 0.89930  0.02750  0.71230  Biso   1.000  C
  C36      1.0000 0.87350  0.84290  0.74000  Biso   1.000  C
  C37      1.0000 0.97790  0.81610  0.70470  Biso   1.000  C
  C38      1.0000 0.04130  0.90280  0.67420  Biso   1.000  C
  C39      1.0000 0.16100  0.88350  0.63610  Biso   1.000  C
  C40      1.0000 0.79640  0.75310  0.77540  Biso   1.000  C
  C41      1.0000 0.67790  0.88020  0.97100  Biso   1.000  C
  C42      1.0000 0.79950  0.93250  0.94690  Biso   1.000  C
  C43      1.0000 0.66980  0.94080  0.23940  Biso   1.000  C
  C44      1.0000 0.63560  0.85590  0.34250  Biso   1.000  C
  C45      1.0000 0.74310  0.79510  0.33500  Biso   1.000  C
  C46      1.0000 0.80640  0.80800  0.27480  Biso   1.000  C
  C47      1.0000 0.91300  0.73130  0.25650  Biso   1.000  C
  C48      1.0000 0.55170  0.83720  0.40430  Biso   1.000  C
  C49      1.0000 0.10070  0.97250  0.21230  Biso   1.000  C
  C50      1.0000 0.12650  0.15710  0.24000  Biso   1.000  C
  C51      1.0000 0.02210  0.18390  0.20470  Biso   1.000  C
  C52      1.0000 0.95870  0.09720  0.17420  Biso   1.000  C
  C53      1.0000 0.83900  0.11650  0.13610  Biso   1.000  C
  C54      1.0000 0.20360  0.24690  0.27540  Biso   1.000  C
  C55      1.0000 0.32210  0.11980  0.47100  Biso   1.000  C
  C56      1.0000 0.20050  0.06750  0.44690  Biso   1.000  C
  N1       1.0000 0.27040  0.61890  0.72620  Biso   1.000  N
  N2       1.0000 0.09840  0.57040  0.79400  Biso   1.000  N
  N3       1.0000 0.49890  0.50910  0.67570  Biso   1.000  N
  N4       1.0000 0.66700  0.45040  0.74520  Biso   1.000  N
  N5       1.0000 0.72960  0.38110  0.22620  Biso   1.000  N
  N6       1.0000 0.90160  0.42960  0.29400  Biso   1.000  N
  N7       1.0000 0.50110  0.49090  0.17570  Biso   1.000  N
  N8       1.0000 0.33300  0.54960  0.24520  Biso   1.000  N
  N9       1.0000 0.22960  0.11890  0.72620  Biso   1.000  N
  N10      1.0000 0.40160  0.07040  0.79400  Biso   1.000  N
  N11      1.0000 0.00110  0.00910  0.67570  Biso   1.000  N
  N12      1.0000 0.83300  0.95040  0.74520  Biso   1.000  N
  N13      1.0000 0.77040  0.88110  0.22620  Biso   1.000  N
  N14      1.0000 0.59840  0.92960  0.29400  Biso   1.000  N
  N15      1.0000 0.99890  0.99090  0.17570  Biso   1.000  N
  N16      1.0000 0.16700  0.04960  0.24520  Biso   1.000  N
  O1       1.0000 0.45450  0.76010  0.69620  Biso   1.000  O
  O2       1.0000 0.44980  0.83430  0.80310  Biso   1.000  O
  O3       1.0000 0.95580  0.60450  0.90560  Biso   1.000  O
  O4       1.0000 0.08450  0.73320  0.94650  Biso   1.000  O
  O5       1.0000 0.29400  0.46560  0.60330  Biso   1.000  O
  O6       1.0000 0.29190  0.28850  0.64360  Biso   1.000  O
  O7       1.0000 0.79980  0.28390  0.80430  Biso   1.000  O
  O8       1.0000 0.66600  0.15390  0.77200  Biso   1.000  O
  O9       1.0000 0.82530  0.34650  0.03230  Biso   1.000  O
  O10      1.0000 0.90860  0.37680  0.92710  Biso   1.000  O
  O11      1.0000 0.60950  0.41860  0.98460  Biso   1.000  O
  O12      1.0000 0.70420  0.48680  0.89010  Biso   1.000  O
  O13      1.0000 0.57820  0.67810  0.57370  Biso   1.000  O
  O14      1.0000 0.38320  0.83730  0.54020  Biso   1.000  O
  O15      1.0000 0.91810  0.45350  0.69120  Biso   1.000  O
  O16      1.0000 0.54550  0.23990  0.19620  Biso   1.000  O
  O17      1.0000 0.55020  0.16570  0.30310  Biso   1.000  O
  O18      1.0000 0.04420  0.39550  0.40560  Biso   1.000  O
  O19      1.0000 0.91550  0.26680  0.44650  Biso   1.000  O
  O20      1.0000 0.70600  0.53440  0.10330  Biso   1.000  O
  O21      1.0000 0.70810  0.71150  0.14360  Biso   1.000  O
  O22      1.0000 0.20020  0.71610  0.30430  Biso   1.000  O
  O23      1.0000 0.33400  0.84610  0.27200  Biso   1.000  O
  O24      1.0000 0.17470  0.65350  0.53230  Biso   1.000  O
  O25      1.0000 0.09140  0.62320  0.42710  Biso   1.000  O
  O26      1.0000 0.39050  0.58140  0.48460  Biso   1.000  O
  O27      1.0000 0.29580  0.51320  0.39010  Biso   1.000  O
  O28      1.0000 0.42180  0.32190  0.07370  Biso   1.000  O
  O29      1.0000 0.61680  0.16270  0.04020  Biso   1.000  O
  O30      1.0000 0.08190  0.54650  0.19120  Biso   1.000  O
  O31      1.0000 0.04550  0.26010  0.69620  Biso   1.000  O
  O32      1.0000 0.05020  0.33430  0.80310  Biso   1.000  O
  O33      1.0000 0.54420  0.10450  0.90560  Biso   1.000  O
  O34      1.0000 0.41550  0.23320  0.94650  Biso   1.000  O
  O35      1.0000 0.20600  0.96560  0.60330  Biso   1.000  O
  O36      1.0000 0.20810  0.78850  0.64360  Biso   1.000  O
  O37      1.0000 0.70020  0.78390  0.80430  Biso   1.000  O
  O38      1.0000 0.83400  0.65390  0.77200  Biso   1.000  O
  O39      1.0000 0.67470  0.84650  0.03230  Biso   1.000  O
  O40      1.0000 0.59140  0.87680  0.92710  Biso   1.000  O
  O41      1.0000 0.89050  0.91860  0.98460  Biso   1.000  O
  O42      1.0000 0.79580  0.98680  0.89010  Biso   1.000  O
  O43      1.0000 0.92180  0.17810  0.57370  Biso   1.000  O
  O44      1.0000 0.11680  0.33730  0.54020  Biso   1.000  O
  O45      1.0000 0.58190  0.95350  0.69120  Biso   1.000  O
  O46      1.0000 0.95450  0.73990  0.19620  Biso   1.000  O
  O47      1.0000 0.94980  0.66570  0.30310  Biso   1.000  O
  O48      1.0000 0.45580  0.89550  0.40560  Biso   1.000  O
  O49      1.0000 0.58450  0.76680  0.44650  Biso   1.000  O
  O50      1.0000 0.79400  0.03440  0.10330  Biso   1.000  O
  O51      1.0000 0.79190  0.21150  0.14360  Biso   1.000  O
  O52      1.0000 0.29980  0.21610  0.30430  Biso   1.000  O
  O53      1.0000 0.16600  0.34610  0.27200  Biso   1.000  O
  O54      1.0000 0.32530  0.15350  0.53230  Biso   1.000  O
  O55      1.0000 0.40860  0.12320  0.42710  Biso   1.000  O
  O56      1.0000 0.10950  0.08140  0.48460  Biso   1.000  O
  O57      1.0000 0.20420  0.01320  0.39010  Biso   1.000  O
  O58      1.0000 0.07820  0.82190  0.07370  Biso   1.000  O
  O59      1.0000 0.88320  0.66270  0.04020  Biso   1.000  O
  O60      1.0000 0.41810  0.04650  0.19120  Biso   1.000  O
