data_image0
_cell_length_a       10.943
_cell_length_b       11.828
_cell_length_c       19.261
_cell_angle_alpha    90
_cell_angle_beta     90
_cell_angle_gamma    90

_symmetry_space_group_name_H-M    P 1
_symmetry_int_tables_number       1

loop_
  _symmetry_equiv_pos_as_xyz
  'x, y, z'

loop_
  _atom_site_label
  _atom_site_occupancy
  _atom_site_fract_x
  _atom_site_fract_y
  _atom_site_fract_z
  _atom_site_thermal_displace_type
  _atom_site_B_iso_or_equiv
  _atom_site_type_symbol
  Eu1      1.0000 0.86245  0.84249  0.10301  Biso   1.000  Eu
  Eu2      1.0000 0.38106  0.02847  0.31746  Biso   1.000  Eu
  Eu3      1.0000 0.13755  0.15751  0.60301  Biso   1.000  Eu
  Eu4      1.0000 0.61894  0.97153  0.81746  Biso   1.000  Eu
  Eu5      1.0000 0.63755  0.34249  0.10301  Biso   1.000  Eu
  Eu6      1.0000 0.11894  0.52847  0.31746  Biso   1.000  Eu
  Eu7      1.0000 0.36245  0.65751  0.60301  Biso   1.000  Eu
  Eu8      1.0000 0.88106  0.47153  0.81746  Biso   1.000  Eu
  H1       1.0000 0.64560  0.99450  0.20770  Biso   1.000  H
  H2       1.0000 0.77050  0.75010  0.37250  Biso   1.000  H
  H3       1.0000 0.12960  0.89850  0.21670  Biso   1.000  H
  H4       1.0000 0.99360  0.25890  0.20290  Biso   1.000  H
  H5       1.0000 0.12920  0.87630  0.07750  Biso   1.000  H
  H6       1.0000 0.08260  0.79620  0.03550  Biso   1.000  H
  H7       1.0000 0.89790  0.64300  0.00060  Biso   1.000  H
  H8       1.0000 0.83140  0.61540  0.05700  Biso   1.000  H
  H9       1.0000 0.45830  0.09470  0.15600  Biso   1.000  H
  H10      1.0000 0.35840  0.01320  0.16940  Biso   1.000  H
  H11      1.0000 0.35440  0.00550  0.70770  Biso   1.000  H
  H12      1.0000 0.22950  0.24990  0.87250  Biso   1.000  H
  H13      1.0000 0.87040  0.10150  0.71670  Biso   1.000  H
  H14      1.0000 0.00640  0.74110  0.70290  Biso   1.000  H
  H15      1.0000 0.87080  0.12370  0.57750  Biso   1.000  H
  H16      1.0000 0.91740  0.20380  0.53550  Biso   1.000  H
  H17      1.0000 0.10210  0.35700  0.50060  Biso   1.000  H
  H18      1.0000 0.16860  0.38460  0.55700  Biso   1.000  H
  H19      1.0000 0.54170  0.90530  0.65600  Biso   1.000  H
  H20      1.0000 0.64160  0.98680  0.66940  Biso   1.000  H
  H21      1.0000 0.85440  0.49450  0.20770  Biso   1.000  H
  H22      1.0000 0.72950  0.25010  0.37250  Biso   1.000  H
  H23      1.0000 0.37040  0.39850  0.21670  Biso   1.000  H
  H24      1.0000 0.50640  0.75890  0.20290  Biso   1.000  H
  H25      1.0000 0.37080  0.37630  0.07750  Biso   1.000  H
  H26      1.0000 0.41740  0.29620  0.03550  Biso   1.000  H
  H27      1.0000 0.60210  0.14300  0.00060  Biso   1.000  H
  H28      1.0000 0.66860  0.11540  0.05700  Biso   1.000  H
  H29      1.0000 0.04170  0.59470  0.15600  Biso   1.000  H
  H30      1.0000 0.14160  0.51320  0.16940  Biso   1.000  H
  H31      1.0000 0.14560  0.50550  0.70770  Biso   1.000  H
  H32      1.0000 0.27050  0.74990  0.87250  Biso   1.000  H
  H33      1.0000 0.62960  0.60150  0.71670  Biso   1.000  H
  H34      1.0000 0.49360  0.24110  0.70290  Biso   1.000  H
  H35      1.0000 0.62920  0.62370  0.57750  Biso   1.000  H
  H36      1.0000 0.58260  0.70380  0.53550  Biso   1.000  H
  H37      1.0000 0.39790  0.85700  0.50060  Biso   1.000  H
  H38      1.0000 0.33140  0.88460  0.55700  Biso   1.000  H
  H39      1.0000 0.95830  0.40530  0.65600  Biso   1.000  H
  H40      1.0000 0.85840  0.48680  0.66940  Biso   1.000  H
  C1       1.0000 0.66870  0.94160  0.24090  Biso   1.000  C
  C2       1.0000 0.63560  0.85790  0.34400  Biso   1.000  C
  C3       1.0000 0.74270  0.79690  0.33710  Biso   1.000  C
  C4       1.0000 0.80580  0.80780  0.27680  Biso   1.000  C
  C5       1.0000 0.91350  0.73270  0.25880  Biso   1.000  C
  C6       1.0000 0.55150  0.84000  0.40620  Biso   1.000  C
  C7       1.0000 0.10170  0.97260  0.21410  Biso   1.000  C
  C8       1.0000 0.12660  0.15620  0.24220  Biso   1.000  C
  C9       1.0000 0.02080  0.18460  0.20630  Biso   1.000  C
  C10      1.0000 0.95950  0.09730  0.17630  Biso   1.000  C
  C11      1.0000 0.83970  0.11600  0.13760  Biso   1.000  C
  C12      1.0000 0.20380  0.24920  0.27740  Biso   1.000  C
  C13      1.0000 0.32280  0.12050  0.47310  Biso   1.000  C
  C14      1.0000 0.20110  0.06820  0.44860  Biso   1.000  C
  C15      1.0000 0.33130  0.05840  0.74090  Biso   1.000  C
  C16      1.0000 0.36440  0.14210  0.84400  Biso   1.000  C
  C17      1.0000 0.25730  0.20310  0.83710  Biso   1.000  C
  C18      1.0000 0.19420  0.19220  0.77680  Biso   1.000  C
  C19      1.0000 0.08650  0.26730  0.75880  Biso   1.000  C
  C20      1.0000 0.44850  0.16000  0.90620  Biso   1.000  C
  C21      1.0000 0.89830  0.02740  0.71410  Biso   1.000  C
  C22      1.0000 0.87340  0.84380  0.74220  Biso   1.000  C
  C23      1.0000 0.97920  0.81540  0.70630  Biso   1.000  C
  C24      1.0000 0.04050  0.90270  0.67630  Biso   1.000  C
  C25      1.0000 0.16030  0.88400  0.63760  Biso   1.000  C
  C26      1.0000 0.79620  0.75080  0.77740  Biso   1.000  C
  C27      1.0000 0.67720  0.87950  0.97310  Biso   1.000  C
  C28      1.0000 0.79890  0.93180  0.94860  Biso   1.000  C
  C29      1.0000 0.83130  0.44160  0.24090  Biso   1.000  C
  C30      1.0000 0.86440  0.35790  0.34400  Biso   1.000  C
  C31      1.0000 0.75730  0.29690  0.33710  Biso   1.000  C
  C32      1.0000 0.69420  0.30780  0.27680  Biso   1.000  C
  C33      1.0000 0.58650  0.23270  0.25880  Biso   1.000  C
  C34      1.0000 0.94850  0.34000  0.40620  Biso   1.000  C
  C35      1.0000 0.39830  0.47260  0.21410  Biso   1.000  C
  C36      1.0000 0.37340  0.65620  0.24220  Biso   1.000  C
  C37      1.0000 0.47920  0.68460  0.20630  Biso   1.000  C
  C38      1.0000 0.54050  0.59730  0.17630  Biso   1.000  C
  C39      1.0000 0.66030  0.61600  0.13760  Biso   1.000  C
  C40      1.0000 0.29620  0.74920  0.27740  Biso   1.000  C
  C41      1.0000 0.17720  0.62050  0.47310  Biso   1.000  C
  C42      1.0000 0.29890  0.56820  0.44860  Biso   1.000  C
  C43      1.0000 0.16870  0.55840  0.74090  Biso   1.000  C
  C44      1.0000 0.13560  0.64210  0.84400  Biso   1.000  C
  C45      1.0000 0.24270  0.70310  0.83710  Biso   1.000  C
  C46      1.0000 0.30580  0.69220  0.77680  Biso   1.000  C
  C47      1.0000 0.41350  0.76730  0.75880  Biso   1.000  C
  C48      1.0000 0.05150  0.66000  0.90620  Biso   1.000  C
  C49      1.0000 0.60170  0.52740  0.71410  Biso   1.000  C
  C50      1.0000 0.62660  0.34380  0.74220  Biso   1.000  C
  C51      1.0000 0.52080  0.31540  0.70630  Biso   1.000  C
  C52      1.0000 0.45950  0.40270  0.67630  Biso   1.000  C
  C53      1.0000 0.33970  0.38400  0.63760  Biso   1.000  C
  C54      1.0000 0.70380  0.25080  0.77740  Biso   1.000  C
  C55      1.0000 0.82280  0.37950  0.97310  Biso   1.000  C
  C56      1.0000 0.70110  0.43180  0.94860  Biso   1.000  C
  N1       1.0000 0.76990  0.88390  0.22830  Biso   1.000  N
  N2       1.0000 0.59740  0.93160  0.29570  Biso   1.000  N
  N3       1.0000 0.99890  0.99070  0.17730  Biso   1.000  N
  N4       1.0000 0.16750  0.05110  0.24730  Biso   1.000  N
  N5       1.0000 0.23010  0.11610  0.72830  Biso   1.000  N
  N6       1.0000 0.40260  0.06840  0.79570  Biso   1.000  N
  N7       1.0000 0.00110  0.00930  0.67730  Biso   1.000  N
  N8       1.0000 0.83250  0.94890  0.74730  Biso   1.000  N
  N9       1.0000 0.73010  0.38390  0.22830  Biso   1.000  N
  N10      1.0000 0.90260  0.43160  0.29570  Biso   1.000  N
  N11      1.0000 0.50110  0.49070  0.17730  Biso   1.000  N
  N12      1.0000 0.33250  0.55110  0.24730  Biso   1.000  N
  N13      1.0000 0.26990  0.61610  0.72830  Biso   1.000  N
  N14      1.0000 0.09740  0.56840  0.79570  Biso   1.000  N
  N15      1.0000 0.49890  0.50930  0.67730  Biso   1.000  N
  N16      1.0000 0.66750  0.44890  0.74730  Biso   1.000  N
  O1       1.0000 0.95440  0.74050  0.19840  Biso   1.000  O
  O2       1.0000 0.95080  0.66670  0.30500  Biso   1.000  O
  O3       1.0000 0.45390  0.89650  0.40700  Biso   1.000  O
  O4       1.0000 0.58540  0.76920  0.44940  Biso   1.000  O
  O5       1.0000 0.79500  0.03530  0.10430  Biso   1.000  O
  O6       1.0000 0.79250  0.21170  0.14580  Biso   1.000  O
  O7       1.0000 0.30050  0.21740  0.30650  Biso   1.000  O
  O8       1.0000 0.16650  0.34860  0.27360  Biso   1.000  O
  O9       1.0000 0.40820  0.12410  0.42900  Biso   1.000  O
  O10      1.0000 0.32660  0.15330  0.53470  Biso   1.000  O
  O11      1.0000 0.20470  0.01460  0.39190  Biso   1.000  O
  O12      1.0000 0.10980  0.08180  0.48640  Biso   1.000  O
  O13      1.0000 0.07670  0.82270  0.07680  Biso   1.000  O
  O14      1.0000 0.88390  0.66420  0.04250  Biso   1.000  O
  O15      1.0000 0.41750  0.04810  0.19350  Biso   1.000  O
  O16      1.0000 0.04560  0.25950  0.69840  Biso   1.000  O
  O17      1.0000 0.04920  0.33330  0.80500  Biso   1.000  O
  O18      1.0000 0.54610  0.10350  0.90700  Biso   1.000  O
  O19      1.0000 0.41460  0.23080  0.94940  Biso   1.000  O
  O20      1.0000 0.20500  0.96470  0.60430  Biso   1.000  O
  O21      1.0000 0.20750  0.78830  0.64580  Biso   1.000  O
  O22      1.0000 0.69950  0.78260  0.80650  Biso   1.000  O
  O23      1.0000 0.83350  0.65140  0.77360  Biso   1.000  O
  O24      1.0000 0.59180  0.87590  0.92900  Biso   1.000  O
  O25      1.0000 0.67340  0.84670  0.03470  Biso   1.000  O
  O26      1.0000 0.79530  0.98540  0.89190  Biso   1.000  O
  O27      1.0000 0.89020  0.91820  0.98640  Biso   1.000  O
  O28      1.0000 0.92330  0.17730  0.57680  Biso   1.000  O
  O29      1.0000 0.11610  0.33580  0.54250  Biso   1.000  O
  O30      1.0000 0.58250  0.95190  0.69350  Biso   1.000  O
  O31      1.0000 0.54560  0.24050  0.19840  Biso   1.000  O
  O32      1.0000 0.54920  0.16670  0.30500  Biso   1.000  O
  O33      1.0000 0.04610  0.39650  0.40700  Biso   1.000  O
  O34      1.0000 0.91460  0.26920  0.44940  Biso   1.000  O
  O35      1.0000 0.70500  0.53530  0.10430  Biso   1.000  O
  O36      1.0000 0.70750  0.71170  0.14580  Biso   1.000  O
  O37      1.0000 0.19950  0.71740  0.30650  Biso   1.000  O
  O38      1.0000 0.33350  0.84860  0.27360  Biso   1.000  O
  O39      1.0000 0.09180  0.62410  0.42900  Biso   1.000  O
  O40      1.0000 0.17340  0.65330  0.53470  Biso   1.000  O
  O41      1.0000 0.29530  0.51460  0.39190  Biso   1.000  O
  O42      1.0000 0.39020  0.58180  0.48640  Biso   1.000  O
  O43      1.0000 0.42330  0.32270  0.07680  Biso   1.000  O
  O44      1.0000 0.61610  0.16420  0.04250  Biso   1.000  O
  O45      1.0000 0.08250  0.54810  0.19350  Biso   1.000  O
  O46      1.0000 0.45440  0.75950  0.69840  Biso   1.000  O
  O47      1.0000 0.45080  0.83330  0.80500  Biso   1.000  O
  O48      1.0000 0.95390  0.60350  0.90700  Biso   1.000  O
  O49      1.0000 0.08540  0.73080  0.94940  Biso   1.000  O
  O50      1.0000 0.29500  0.46470  0.60430  Biso   1.000  O
  O51      1.0000 0.29250  0.28830  0.64580  Biso   1.000  O
  O52      1.0000 0.80050  0.28260  0.80650  Biso   1.000  O
  O53      1.0000 0.66650  0.15140  0.77360  Biso   1.000  O
  O54      1.0000 0.90820  0.37590  0.92900  Biso   1.000  O
  O55      1.0000 0.82660  0.34670  0.03470  Biso   1.000  O
  O56      1.0000 0.70470  0.48540  0.89190  Biso   1.000  O
  O57      1.0000 0.60980  0.41820  0.98640  Biso   1.000  O
  O58      1.0000 0.57670  0.67730  0.57680  Biso   1.000  O
  O59      1.0000 0.38390  0.83580  0.54250  Biso   1.000  O
  O60      1.0000 0.91750  0.45190  0.69350  Biso   1.000  O
