data_image0
_cell_length_a       8.677
_cell_length_b       13.042
_cell_length_c       28.201
_cell_angle_alpha    90
_cell_angle_beta     90
_cell_angle_gamma    90

_symmetry_space_group_name_H-M    P 1
_symmetry_int_tables_number       1

loop_
  _symmetry_equiv_pos_as_xyz
  'x, y, z'

loop_
  _atom_site_label
  _atom_site_occupancy
  _atom_site_fract_x
  _atom_site_fract_y
  _atom_site_fract_z
  _atom_site_thermal_displace_type
  _atom_site_B_iso_or_equiv
  _atom_site_type_symbol
  Cu1      1.0000 0.94926  0.95344  0.46123  Biso   1.000  Cu
  Cu2      1.0000 0.94926  0.54656  0.03877  Biso   1.000  Cu
  Cu3      1.0000 0.55074  0.04656  0.96123  Biso   1.000  Cu
  Cu4      1.0000 0.55074  0.45344  0.53877  Biso   1.000  Cu
  Cu5      1.0000 0.05074  0.04656  0.53877  Biso   1.000  Cu
  Cu6      1.0000 0.05074  0.45344  0.96123  Biso   1.000  Cu
  Cu7      1.0000 0.44926  0.95344  0.03877  Biso   1.000  Cu
  Cu8      1.0000 0.44926  0.54656  0.46123  Biso   1.000  Cu
  H1       1.0000 0.12160  0.73300  0.59030  Biso   1.000  H
  H2       1.0000 0.21680  0.70940  0.54450  Biso   1.000  H
  H3       1.0000 0.91380  0.64240  0.56180  Biso   1.000  H
  H4       1.0000 0.99420  0.62790  0.51240  Biso   1.000  H
  H5       1.0000 0.01640  0.47550  0.55740  Biso   1.000  H
  H6       1.0000 0.09990  0.53580  0.59810  Biso   1.000  H
  H7       1.0000 0.78490  0.75300  0.42830  Biso   1.000  H
  H8       1.0000 0.61840  0.69250  0.37190  Biso   1.000  H
  H9       1.0000 0.64810  0.96430  0.30680  Biso   1.000  H
  H10      1.0000 0.81380  0.01620  0.36480  Biso   1.000  H
  H11      1.0000 0.44750  0.72820  0.30370  Biso   1.000  H
  H12      1.0000 0.44260  0.84010  0.28320  Biso   1.000  H
  H13      1.0000 0.67150  0.69390  0.25980  Biso   1.000  H
  H14      1.0000 0.12160  0.76700  0.90970  Biso   1.000  H
  H15      1.0000 0.21680  0.79060  0.95550  Biso   1.000  H
  H16      1.0000 0.91380  0.85760  0.93820  Biso   1.000  H
  H17      1.0000 0.99420  0.87210  0.98760  Biso   1.000  H
  H18      1.0000 0.01640  0.02450  0.94260  Biso   1.000  H
  H19      1.0000 0.09990  0.96420  0.90190  Biso   1.000  H
  H20      1.0000 0.78490  0.74700  0.07170  Biso   1.000  H
  H21      1.0000 0.61840  0.80750  0.12810  Biso   1.000  H
  H22      1.0000 0.64810  0.53570  0.19320  Biso   1.000  H
  H23      1.0000 0.81380  0.48380  0.13520  Biso   1.000  H
  H24      1.0000 0.44750  0.77180  0.19630  Biso   1.000  H
  H25      1.0000 0.44260  0.65990  0.21680  Biso   1.000  H
  H26      1.0000 0.67150  0.80610  0.24020  Biso   1.000  H
  H27      1.0000 0.37840  0.26700  0.09030  Biso   1.000  H
  H28      1.0000 0.28320  0.29060  0.04450  Biso   1.000  H
  H29      1.0000 0.58620  0.35760  0.06180  Biso   1.000  H
  H30      1.0000 0.50580  0.37210  0.01240  Biso   1.000  H
  H31      1.0000 0.48360  0.52450  0.05740  Biso   1.000  H
  H32      1.0000 0.40010  0.46420  0.09810  Biso   1.000  H
  H33      1.0000 0.71510  0.24700  0.92830  Biso   1.000  H
  H34      1.0000 0.88160  0.30750  0.87190  Biso   1.000  H
  H35      1.0000 0.85190  0.03570  0.80680  Biso   1.000  H
  H36      1.0000 0.68620  0.98380  0.86480  Biso   1.000  H
  H37      1.0000 0.05250  0.27180  0.80370  Biso   1.000  H
  H38      1.0000 0.05740  0.15990  0.78320  Biso   1.000  H
  H39      1.0000 0.82850  0.30610  0.75980  Biso   1.000  H
  H40      1.0000 0.37840  0.23300  0.40970  Biso   1.000  H
  H41      1.0000 0.28320  0.20940  0.45550  Biso   1.000  H
  H42      1.0000 0.58620  0.14240  0.43820  Biso   1.000  H
  H43      1.0000 0.50580  0.12790  0.48760  Biso   1.000  H
  H44      1.0000 0.48360  0.97550  0.44260  Biso   1.000  H
  H45      1.0000 0.40010  0.03580  0.40190  Biso   1.000  H
  H46      1.0000 0.71510  0.25300  0.57170  Biso   1.000  H
  H47      1.0000 0.88160  0.19250  0.62810  Biso   1.000  H
  H48      1.0000 0.85190  0.46430  0.69320  Biso   1.000  H
  H49      1.0000 0.68620  0.51620  0.63520  Biso   1.000  H
  H50      1.0000 0.05250  0.22820  0.69630  Biso   1.000  H
  H51      1.0000 0.05740  0.34010  0.71680  Biso   1.000  H
  H52      1.0000 0.82850  0.19390  0.74020  Biso   1.000  H
  H53      1.0000 0.87840  0.26700  0.40970  Biso   1.000  H
  H54      1.0000 0.78320  0.29060  0.45550  Biso   1.000  H
  H55      1.0000 0.08620  0.35760  0.43820  Biso   1.000  H
  H56      1.0000 0.00580  0.37210  0.48760  Biso   1.000  H
  H57      1.0000 0.98360  0.52450  0.44260  Biso   1.000  H
  H58      1.0000 0.90010  0.46420  0.40190  Biso   1.000  H
  H59      1.0000 0.21510  0.24700  0.57170  Biso   1.000  H
  H60      1.0000 0.38160  0.30750  0.62810  Biso   1.000  H
  H61      1.0000 0.35190  0.03570  0.69320  Biso   1.000  H
  H62      1.0000 0.18620  0.98380  0.63520  Biso   1.000  H
  H63      1.0000 0.55250  0.27180  0.69630  Biso   1.000  H
  H64      1.0000 0.55740  0.15990  0.71680  Biso   1.000  H
  H65      1.0000 0.32850  0.30610  0.74020  Biso   1.000  H
  H66      1.0000 0.87840  0.23300  0.09030  Biso   1.000  H
  H67      1.0000 0.78320  0.20940  0.04450  Biso   1.000  H
  H68      1.0000 0.08620  0.14240  0.06180  Biso   1.000  H
  H69      1.0000 0.00580  0.12790  0.01240  Biso   1.000  H
  H70      1.0000 0.98360  0.97550  0.05740  Biso   1.000  H
  H71      1.0000 0.90010  0.03580  0.09810  Biso   1.000  H
  H72      1.0000 0.21510  0.25300  0.92830  Biso   1.000  H
  H73      1.0000 0.38160  0.19250  0.87190  Biso   1.000  H
  H74      1.0000 0.35190  0.46430  0.80680  Biso   1.000  H
  H75      1.0000 0.18620  0.51620  0.86480  Biso   1.000  H
  H76      1.0000 0.55250  0.22820  0.80370  Biso   1.000  H
  H77      1.0000 0.55740  0.34010  0.78320  Biso   1.000  H
  H78      1.0000 0.32850  0.19390  0.75980  Biso   1.000  H
  H79      1.0000 0.62160  0.73300  0.90970  Biso   1.000  H
  H80      1.0000 0.71680  0.70940  0.95550  Biso   1.000  H
  H81      1.0000 0.41380  0.64240  0.93820  Biso   1.000  H
  H82      1.0000 0.49420  0.62790  0.98760  Biso   1.000  H
  H83      1.0000 0.51640  0.47550  0.94260  Biso   1.000  H
  H84      1.0000 0.59990  0.53580  0.90190  Biso   1.000  H
  H85      1.0000 0.28490  0.75300  0.07170  Biso   1.000  H
  H86      1.0000 0.11840  0.69250  0.12810  Biso   1.000  H
  H87      1.0000 0.14810  0.96430  0.19320  Biso   1.000  H
  H88      1.0000 0.31380  0.01620  0.13520  Biso   1.000  H
  H89      1.0000 0.94750  0.72820  0.19630  Biso   1.000  H
  H90      1.0000 0.94260  0.84010  0.21680  Biso   1.000  H
  H91      1.0000 0.17150  0.69390  0.24020  Biso   1.000  H
  H92      1.0000 0.62160  0.76700  0.59030  Biso   1.000  H
  H93      1.0000 0.71680  0.79060  0.54450  Biso   1.000  H
  H94      1.0000 0.41380  0.85760  0.56180  Biso   1.000  H
  H95      1.0000 0.49420  0.87210  0.51240  Biso   1.000  H
  H96      1.0000 0.51640  0.02450  0.55740  Biso   1.000  H
  H97      1.0000 0.59990  0.96420  0.59810  Biso   1.000  H
  H98      1.0000 0.28490  0.74700  0.42830  Biso   1.000  H
  H99      1.0000 0.11840  0.80750  0.37190  Biso   1.000  H
  H100     1.0000 0.14810  0.53570  0.30680  Biso   1.000  H
  H101     1.0000 0.31380  0.48380  0.36480  Biso   1.000  H
  H102     1.0000 0.94750  0.77180  0.30370  Biso   1.000  H
  H103     1.0000 0.94260  0.65990  0.28320  Biso   1.000  H
  H104     1.0000 0.17150  0.80610  0.25980  Biso   1.000  H
  C1       1.0000 0.06200  0.82520  0.53484  Biso   1.000  C
  C2       1.0000 0.11410  0.72440  0.55622  Biso   1.000  C
  C3       1.0000 0.01250  0.63280  0.54630  Biso   1.000  C
  C4       1.0000 0.08610  0.53190  0.56397  Biso   1.000  C
  C5       1.0000 0.23940  0.51040  0.54100  Biso   1.000  C
  C6       1.0000 0.75750  0.79610  0.40340  Biso   1.000  C
  C7       1.0000 0.65670  0.75890  0.36956  Biso   1.000  C
  C8       1.0000 0.61390  0.82090  0.33250  Biso   1.000  C
  C9       1.0000 0.67460  0.91960  0.33117  Biso   1.000  C
  C10      1.0000 0.77420  0.95000  0.36630  Biso   1.000  C
  C11      1.0000 0.51070  0.78470  0.29266  Biso   1.000  C
  C12      1.0000 0.06200  0.67480  0.96516  Biso   1.000  C
  C13      1.0000 0.11410  0.77560  0.94378  Biso   1.000  C
  C14      1.0000 0.01250  0.86720  0.95370  Biso   1.000  C
  C15      1.0000 0.08610  0.96810  0.93603  Biso   1.000  C
  C16      1.0000 0.23940  0.98960  0.95900  Biso   1.000  C
  C17      1.0000 0.75750  0.70390  0.09660  Biso   1.000  C
  C18      1.0000 0.65670  0.74110  0.13044  Biso   1.000  C
  C19      1.0000 0.61390  0.67910  0.16750  Biso   1.000  C
  C20      1.0000 0.67460  0.58040  0.16883  Biso   1.000  C
  C21      1.0000 0.77420  0.55000  0.13370  Biso   1.000  C
  C22      1.0000 0.51070  0.71530  0.20734  Biso   1.000  C
  C23      1.0000 0.43800  0.17480  0.03484  Biso   1.000  C
  C24      1.0000 0.38590  0.27560  0.05622  Biso   1.000  C
  C25      1.0000 0.48750  0.36720  0.04630  Biso   1.000  C
  C26      1.0000 0.41390  0.46810  0.06397  Biso   1.000  C
  C27      1.0000 0.26060  0.48960  0.04100  Biso   1.000  C
  C28      1.0000 0.74250  0.20390  0.90340  Biso   1.000  C
  C29      1.0000 0.84330  0.24110  0.86956  Biso   1.000  C
  C30      1.0000 0.88610  0.17910  0.83250  Biso   1.000  C
  C31      1.0000 0.82540  0.08040  0.83117  Biso   1.000  C
  C32      1.0000 0.72580  0.05000  0.86630  Biso   1.000  C
  C33      1.0000 0.98930  0.21530  0.79266  Biso   1.000  C
  C34      1.0000 0.43800  0.32520  0.46516  Biso   1.000  C
  C35      1.0000 0.38590  0.22440  0.44378  Biso   1.000  C
  C36      1.0000 0.48750  0.13280  0.45370  Biso   1.000  C
  C37      1.0000 0.41390  0.03190  0.43603  Biso   1.000  C
  C38      1.0000 0.26060  0.01040  0.45900  Biso   1.000  C
  C39      1.0000 0.74250  0.29610  0.59660  Biso   1.000  C
  C40      1.0000 0.84330  0.25890  0.63044  Biso   1.000  C
  C41      1.0000 0.88610  0.32090  0.66750  Biso   1.000  C
  C42      1.0000 0.82540  0.41960  0.66883  Biso   1.000  C
  C43      1.0000 0.72580  0.45000  0.63370  Biso   1.000  C
  C44      1.0000 0.98930  0.28470  0.70734  Biso   1.000  C
  C45      1.0000 0.93800  0.17480  0.46516  Biso   1.000  C
  C46      1.0000 0.88590  0.27560  0.44378  Biso   1.000  C
  C47      1.0000 0.98750  0.36720  0.45370  Biso   1.000  C
  C48      1.0000 0.91390  0.46810  0.43603  Biso   1.000  C
  C49      1.0000 0.76060  0.48960  0.45900  Biso   1.000  C
  C50      1.0000 0.24250  0.20390  0.59660  Biso   1.000  C
  C51      1.0000 0.34330  0.24110  0.63044  Biso   1.000  C
  C52      1.0000 0.38610  0.17910  0.66750  Biso   1.000  C
  C53      1.0000 0.32540  0.08040  0.66883  Biso   1.000  C
  C54      1.0000 0.22580  0.05000  0.63370  Biso   1.000  C
  C55      1.0000 0.48930  0.21530  0.70734  Biso   1.000  C
  C56      1.0000 0.93800  0.32520  0.03484  Biso   1.000  C
  C57      1.0000 0.88590  0.22440  0.05622  Biso   1.000  C
  C58      1.0000 0.98750  0.13280  0.04630  Biso   1.000  C
  C59      1.0000 0.91390  0.03190  0.06397  Biso   1.000  C
  C60      1.0000 0.76060  0.01040  0.04100  Biso   1.000  C
  C61      1.0000 0.24250  0.29610  0.90340  Biso   1.000  C
  C62      1.0000 0.34330  0.25890  0.86956  Biso   1.000  C
  C63      1.0000 0.38610  0.32090  0.83250  Biso   1.000  C
  C64      1.0000 0.32540  0.41960  0.83117  Biso   1.000  C
  C65      1.0000 0.22580  0.45000  0.86630  Biso   1.000  C
  C66      1.0000 0.48930  0.28470  0.79266  Biso   1.000  C
  C67      1.0000 0.56200  0.82520  0.96516  Biso   1.000  C
  C68      1.0000 0.61410  0.72440  0.94378  Biso   1.000  C
  C69      1.0000 0.51250  0.63280  0.95370  Biso   1.000  C
  C70      1.0000 0.58610  0.53190  0.93603  Biso   1.000  C
  C71      1.0000 0.73940  0.51040  0.95900  Biso   1.000  C
  C72      1.0000 0.25750  0.79610  0.09660  Biso   1.000  C
  C73      1.0000 0.15670  0.75890  0.13044  Biso   1.000  C
  C74      1.0000 0.11390  0.82090  0.16750  Biso   1.000  C
  C75      1.0000 0.17460  0.91960  0.16883  Biso   1.000  C
  C76      1.0000 0.27420  0.95000  0.13370  Biso   1.000  C
  C77      1.0000 0.01070  0.78470  0.20734  Biso   1.000  C
  C78      1.0000 0.56200  0.67480  0.53484  Biso   1.000  C
  C79      1.0000 0.61410  0.77560  0.55622  Biso   1.000  C
  C80      1.0000 0.51250  0.86720  0.54630  Biso   1.000  C
  C81      1.0000 0.58610  0.96810  0.56397  Biso   1.000  C
  C82      1.0000 0.73940  0.98960  0.54100  Biso   1.000  C
  C83      1.0000 0.25750  0.70390  0.40340  Biso   1.000  C
  C84      1.0000 0.15670  0.74110  0.36956  Biso   1.000  C
  C85      1.0000 0.11390  0.67910  0.33250  Biso   1.000  C
  C86      1.0000 0.17460  0.58040  0.33117  Biso   1.000  C
  C87      1.0000 0.27420  0.55000  0.36630  Biso   1.000  C
  C88      1.0000 0.01070  0.71530  0.29266  Biso   1.000  C
  C89      1.0000 0.60550  0.75000  0.25000  Biso   1.000  C
  C90      1.0000 0.89450  0.25000  0.75000  Biso   1.000  C
  C91      1.0000 0.39450  0.25000  0.75000  Biso   1.000  C
  C92      1.0000 0.10550  0.75000  0.25000  Biso   1.000  C
  N1       1.0000 0.81780  0.89030  0.40253  Biso   1.000  N
  N2       1.0000 0.81780  0.60970  0.09747  Biso   1.000  N
  N3       1.0000 0.68220  0.10970  0.90253  Biso   1.000  N
  N4       1.0000 0.68220  0.39030  0.59747  Biso   1.000  N
  N5       1.0000 0.18220  0.10970  0.59747  Biso   1.000  N
  N6       1.0000 0.18220  0.39030  0.90253  Biso   1.000  N
  N7       1.0000 0.31780  0.89030  0.09747  Biso   1.000  N
  N8       1.0000 0.31780  0.60970  0.40253  Biso   1.000  N
  O1       1.0000 0.00580  0.82469  0.49426  Biso   1.000  O
  O2       1.0000 0.08490  0.90401  0.55974  Biso   1.000  O
  O3       1.0000 0.25770  0.54032  0.49924  Biso   1.000  O
  O4       1.0000 0.33990  0.46400  0.56487  Biso   1.000  O
  O5       1.0000 0.00580  0.67531  0.00574  Biso   1.000  O
  O6       1.0000 0.08490  0.59599  0.94026  Biso   1.000  O
  O7       1.0000 0.25770  0.95968  0.00076  Biso   1.000  O
  O8       1.0000 0.33990  0.03600  0.93513  Biso   1.000  O
  O9       1.0000 0.49420  0.17531  0.99426  Biso   1.000  O
  O10      1.0000 0.41510  0.09599  0.05974  Biso   1.000  O
  O11      1.0000 0.24230  0.45968  0.99924  Biso   1.000  O
  O12      1.0000 0.16010  0.53600  0.06487  Biso   1.000  O
  O13      1.0000 0.49420  0.32469  0.50574  Biso   1.000  O
  O14      1.0000 0.41510  0.40401  0.44026  Biso   1.000  O
  O15      1.0000 0.24230  0.04032  0.50076  Biso   1.000  O
  O16      1.0000 0.16010  0.96400  0.43513  Biso   1.000  O
  O17      1.0000 0.99420  0.17531  0.50574  Biso   1.000  O
  O18      1.0000 0.91510  0.09599  0.44026  Biso   1.000  O
  O19      1.0000 0.74230  0.45968  0.50076  Biso   1.000  O
  O20      1.0000 0.66010  0.53600  0.43513  Biso   1.000  O
  O21      1.0000 0.99420  0.32469  0.99426  Biso   1.000  O
  O22      1.0000 0.91510  0.40401  0.05974  Biso   1.000  O
  O23      1.0000 0.74230  0.04032  0.99924  Biso   1.000  O
  O24      1.0000 0.66010  0.96400  0.06487  Biso   1.000  O
  O25      1.0000 0.50580  0.82469  0.00574  Biso   1.000  O
  O26      1.0000 0.58490  0.90401  0.94026  Biso   1.000  O
  O27      1.0000 0.75770  0.54032  0.00076  Biso   1.000  O
  O28      1.0000 0.83990  0.46400  0.93513  Biso   1.000  O
  O29      1.0000 0.50580  0.67531  0.49426  Biso   1.000  O
  O30      1.0000 0.58490  0.59599  0.55974  Biso   1.000  O
  O31      1.0000 0.75770  0.95968  0.49924  Biso   1.000  O
  O32      1.0000 0.83990  0.03600  0.56487  Biso   1.000  O
