data_image0
_cell_length_a       17.508
_cell_length_b       17.508
_cell_length_c       20.7888
_cell_angle_alpha    90
_cell_angle_beta     90
_cell_angle_gamma    120

_symmetry_space_group_name_H-M    "P 1"
_symmetry_int_tables_number       1

loop_
  _symmetry_equiv_pos_as_xyz
  'x, y, z'

loop_
  _atom_site_label
  _atom_site_occupancy
  _atom_site_fract_x
  _atom_site_fract_y
  _atom_site_fract_z
  _atom_site_thermal_displace_type
  _atom_site_B_iso_or_equiv
  _atom_site_type_symbol
  N1       1.0000 0.80070  0.56690  0.43744  Biso   1.000  N
  N2       1.0000 0.74010  0.57668  0.47032  Biso   1.000  N
  N3       1.0000 0.68720  0.50933  0.50554  Biso   1.000  N
  N4       1.0000 0.71242  0.44997  0.49577  Biso   1.000  N
  C1       1.0000 0.77990  0.48530  0.45398  Biso   1.000  C
  H1       1.0000 0.80910  0.45580  0.43820  Biso   1.000  H
  N5       1.0000 0.95170  0.76850  0.61567  Biso   1.000  N
  N6       1.0000 0.87880  0.77380  0.61355  Biso   1.000  N
  N7       1.0000 0.88380  0.84270  0.64370  Biso   1.000  N
  N8       1.0000 0.96408  0.88470  0.66727  Biso   1.000  N
  C2       1.0000 0.00430  0.83940  0.64927  Biso   1.000  C
  H2       1.0000 0.06360  0.85670  0.65970  Biso   1.000  H
  N9       1.0000 0.56270  0.77120  0.01104  Biso   1.000  N
  N10      1.0000 0.57472  0.83920  0.97570  Biso   1.000  N
  N11      1.0000 0.50812  0.82215  0.93688  Biso   1.000  N
  N12      1.0000 0.44858  0.73893  0.94836  Biso   1.000  N
  C3       1.0000 0.48320  0.70940  0.99284  Biso   1.000  C
  H3       1.0000 0.45390  0.65090  0.00930  Biso   1.000  H
  N13      1.0000 0.78060  0.80540  0.83860  Biso   1.000  N
  N14      1.0000 0.76950  0.87430  0.83586  Biso   1.000  N
  N15      1.0000 0.83010  0.94180  0.80387  Biso   1.000  N
  N16      1.0000 0.88576  0.91725  0.78382  Biso   1.000  N
  C4       1.0000 0.85530  0.83490  0.80520  Biso   1.000  C
  H4       1.0000 0.88350  0.80140  0.79750  Biso   1.000  H
  C5       1.0000 0.65790  0.92360  0.97355  Biso   1.000  C
  H5       1.0000 0.67800  0.94470  0.01790  Biso   1.000  H
  H6       1.0000 0.64850  0.96820  0.95120  Biso   1.000  H
  C6       1.0000 0.72780  0.91300  0.93860  Biso   1.000  C
  H7       1.0000 0.73990  0.87140  0.96270  Biso   1.000  H
  H8       1.0000 0.78310  0.97060  0.93680  Biso   1.000  H
  C7       1.0000 0.69870  0.87850  0.87040  Biso   1.000  C
  H9       1.0000 0.64580  0.81890  0.87210  Biso   1.000  H
  H10      1.0000 0.68280  0.91780  0.84700  Biso   1.000  H
  C8       1.0000 0.73630  0.65850  0.46720  Biso   1.000  C
  H11      1.0000 0.67940  0.64820  0.48490  Biso   1.000  H
  H12      1.0000 0.74040  0.67760  0.42190  Biso   1.000  H
  C9       1.0000 0.81240  0.73040  0.50600  Biso   1.000  C
  H13      1.0000 0.86850  0.73460  0.49220  Biso   1.000  H
  H14      1.0000 0.81640  0.78790  0.49740  Biso   1.000  H
  C10      1.0000 0.79980  0.71130  0.57780  Biso   1.000  C
  H15      1.0000 0.74860  0.71560  0.59300  Biso   1.000  H
  H16      1.0000 0.78750  0.65040  0.58590  Biso   1.000  H
  N17      1.0000 0.46737  0.90023  0.77077  Biso   1.000  N
  N18      1.0000 0.40677  0.91001  0.80365  Biso   1.000  N
  N19      1.0000 0.35387  0.84266  0.83887  Biso   1.000  N
  N20      1.0000 0.37909  0.78330  0.82910  Biso   1.000  N
  C11      1.0000 0.44657  0.81863  0.78731  Biso   1.000  C
  H17      1.0000 0.47577  0.78913  0.77153  Biso   1.000  H
  N21      1.0000 0.61837  0.10183  0.94900  Biso   1.000  N
  N22      1.0000 0.54547  0.10713  0.94688  Biso   1.000  N
  N23      1.0000 0.55047  0.17603  0.97703  Biso   1.000  N
  N24      1.0000 0.63075  0.21803  0.00060  Biso   1.000  N
  C12      1.0000 0.67097  0.17273  0.98260  Biso   1.000  C
  H18      1.0000 0.73027  0.19003  0.99303  Biso   1.000  H
  N25      1.0000 0.22937  0.10453  0.34437  Biso   1.000  N
  N26      1.0000 0.24139  0.17253  0.30903  Biso   1.000  N
  N27      1.0000 0.17479  0.15548  0.27021  Biso   1.000  N
  N28      1.0000 0.11525  0.07226  0.28169  Biso   1.000  N
  C13      1.0000 0.14987  0.04273  0.32617  Biso   1.000  C
  H19      1.0000 0.12057  0.98423  0.34263  Biso   1.000  H
  N29      1.0000 0.44727  0.13873  0.17193  Biso   1.000  N
  N30      1.0000 0.43617  0.20763  0.16919  Biso   1.000  N
  N31      1.0000 0.49677  0.27513  0.13720  Biso   1.000  N
  N32      1.0000 0.55243  0.25058  0.11715  Biso   1.000  N
  C14      1.0000 0.52197  0.16823  0.13853  Biso   1.000  C
  H20      1.0000 0.55017  0.13473  0.13083  Biso   1.000  H
  C15      1.0000 0.32457  0.25693  0.30688  Biso   1.000  C
  H21      1.0000 0.34467  0.27803  0.35123  Biso   1.000  H
  H22      1.0000 0.31517  0.30153  0.28453  Biso   1.000  H
  C16      1.0000 0.39447  0.24633  0.27193  Biso   1.000  C
  H23      1.0000 0.40657  0.20473  0.29603  Biso   1.000  H
  H24      1.0000 0.44977  0.30393  0.27013  Biso   1.000  H
  C17      1.0000 0.36537  0.21183  0.20373  Biso   1.000  C
  H25      1.0000 0.31247  0.15223  0.20543  Biso   1.000  H
  H26      1.0000 0.34947  0.25113  0.18033  Biso   1.000  H
  C18      1.0000 0.40297  0.99183  0.80053  Biso   1.000  C
  H27      1.0000 0.34607  0.98153  0.81823  Biso   1.000  H
  H28      1.0000 0.40707  0.01093  0.75523  Biso   1.000  H
  C19      1.0000 0.47907  0.06373  0.83933  Biso   1.000  C
  H29      1.0000 0.53517  0.06793  0.82553  Biso   1.000  H
  H30      1.0000 0.48307  0.12123  0.83073  Biso   1.000  H
  C20      1.0000 0.46647  0.04463  0.91113  Biso   1.000  C
  H31      1.0000 0.41527  0.04893  0.92633  Biso   1.000  H
  H32      1.0000 0.45417  0.98373  0.91923  Biso   1.000  H
  N33      1.0000 0.13403  0.23357  0.10411  Biso   1.000  N
  N34      1.0000 0.07343  0.24335  0.13699  Biso   1.000  N
  N35      1.0000 0.02053  0.17600  0.17221  Biso   1.000  N
  N36      1.0000 0.04575  0.11664  0.16244  Biso   1.000  N
  C21      1.0000 0.11323  0.15197  0.12065  Biso   1.000  C
  H33      1.0000 0.14243  0.12247  0.10487  Biso   1.000  H
  N37      1.0000 0.28503  0.43517  0.28234  Biso   1.000  N
  N38      1.0000 0.21213  0.44047  0.28022  Biso   1.000  N
  N39      1.0000 0.21713  0.50937  0.31037  Biso   1.000  N
  N40      1.0000 0.29741  0.55137  0.33394  Biso   1.000  N
  C22      1.0000 0.33763  0.50607  0.31594  Biso   1.000  C
  H34      1.0000 0.39693  0.52337  0.32637  Biso   1.000  H
  N41      1.0000 0.89603  0.43787  0.67771  Biso   1.000  N
  N42      1.0000 0.90805  0.50587  0.64237  Biso   1.000  N
  N43      1.0000 0.84145  0.48882  0.60355  Biso   1.000  N
  N44      1.0000 0.78191  0.40560  0.61503  Biso   1.000  N
  C23      1.0000 0.81653  0.37607  0.65951  Biso   1.000  C
  H35      1.0000 0.78723  0.31757  0.67597  Biso   1.000  H
  N45      1.0000 0.11393  0.47207  0.50527  Biso   1.000  N
  N46      1.0000 0.10283  0.54097  0.50253  Biso   1.000  N
  N47      1.0000 0.16343  0.60847  0.47054  Biso   1.000  N
  N48      1.0000 0.21909  0.58392  0.45049  Biso   1.000  N
  C24      1.0000 0.18863  0.50157  0.47187  Biso   1.000  C
  H36      1.0000 0.21683  0.46807  0.46417  Biso   1.000  H
  C25      1.0000 0.99123  0.59027  0.64022  Biso   1.000  C
  H37      1.0000 0.01133  0.61137  0.68457  Biso   1.000  H
  H38      1.0000 0.98183  0.63487  0.61787  Biso   1.000  H
  C26      1.0000 0.06113  0.57967  0.60527  Biso   1.000  C
  H39      1.0000 0.07323  0.53807  0.62937  Biso   1.000  H
  H40      1.0000 0.11643  0.63727  0.60347  Biso   1.000  H
  C27      1.0000 0.03203  0.54517  0.53707  Biso   1.000  C
  H41      1.0000 0.97913  0.48557  0.53877  Biso   1.000  H
  H42      1.0000 0.01613  0.58447  0.51367  Biso   1.000  H
  C28      1.0000 0.06963  0.32517  0.13387  Biso   1.000  C
  H43      1.0000 0.01273  0.31487  0.15157  Biso   1.000  H
  H44      1.0000 0.07373  0.34427  0.08857  Biso   1.000  H
  C29      1.0000 0.14573  0.39707  0.17267  Biso   1.000  C
  H45      1.0000 0.20183  0.40127  0.15887  Biso   1.000  H
  H46      1.0000 0.14973  0.45457  0.16407  Biso   1.000  H
  C30      1.0000 0.13313  0.37797  0.24447  Biso   1.000  C
  H47      1.0000 0.08193  0.38227  0.25967  Biso   1.000  H
  H48      1.0000 0.12083  0.31707  0.25257  Biso   1.000  H
  N49      1.0000 0.43310  0.23380  0.43744  Biso   1.000  N
  N50      1.0000 0.42332  0.16342  0.47032  Biso   1.000  N
  N51      1.0000 0.49067  0.17787  0.50554  Biso   1.000  N
  N52      1.0000 0.55003  0.26245  0.49577  Biso   1.000  N
  C31      1.0000 0.51470  0.29460  0.45398  Biso   1.000  C
  H49      1.0000 0.54420  0.35330  0.43820  Biso   1.000  H
  N53      1.0000 0.23150  0.18320  0.61567  Biso   1.000  N
  N54      1.0000 0.22620  0.10500  0.61355  Biso   1.000  N
  N55      1.0000 0.15730  0.04110  0.64370  Biso   1.000  N
  N56      1.0000 0.11530  0.07938  0.66727  Biso   1.000  N
  C32      1.0000 0.16060  0.16490  0.64927  Biso   1.000  C
  H50      1.0000 0.14330  0.20690  0.65970  Biso   1.000  H
  N57      1.0000 0.22880  0.79150  0.01104  Biso   1.000  N
  N58      1.0000 0.16080  0.73552  0.97570  Biso   1.000  N
  N59      1.0000 0.17785  0.68597  0.93688  Biso   1.000  N
  N60      1.0000 0.26107  0.70965  0.94836  Biso   1.000  N
  C33      1.0000 0.29060  0.77380  0.99284  Biso   1.000  C
  H51      1.0000 0.34910  0.80300  0.00930  Biso   1.000  H
  N61      1.0000 0.19460  0.97520  0.83860  Biso   1.000  N
  N62      1.0000 0.12570  0.89520  0.83586  Biso   1.000  N
  N63      1.0000 0.05820  0.88830  0.80387  Biso   1.000  N
  N64      1.0000 0.08275  0.96851  0.78382  Biso   1.000  N
  C34      1.0000 0.16510  0.02040  0.80520  Biso   1.000  C
  H52      1.0000 0.19860  0.08210  0.79750  Biso   1.000  H
  C35      1.0000 0.07640  0.73430  0.97355  Biso   1.000  C
  H53      1.0000 0.05530  0.73330  0.01790  Biso   1.000  H
  H54      1.0000 0.03180  0.68030  0.95120  Biso   1.000  H
  C36      1.0000 0.08700  0.81480  0.93860  Biso   1.000  C
  H55      1.0000 0.12860  0.86850  0.96270  Biso   1.000  H
  H56      1.0000 0.02940  0.81250  0.93680  Biso   1.000  H
  C37      1.0000 0.12150  0.82020  0.87040  Biso   1.000  C
  H57      1.0000 0.18110  0.82690  0.87210  Biso   1.000  H
  H58      1.0000 0.08220  0.76500  0.84700  Biso   1.000  H
  C38      1.0000 0.34150  0.07780  0.46720  Biso   1.000  C
  H59      1.0000 0.35180  0.03120  0.48490  Biso   1.000  H
  H60      1.0000 0.32240  0.06280  0.42190  Biso   1.000  H
  C39      1.0000 0.26960  0.08200  0.50600  Biso   1.000  C
  H61      1.0000 0.26540  0.13390  0.49220  Biso   1.000  H
  H62      1.0000 0.21210  0.02850  0.49740  Biso   1.000  H
  C40      1.0000 0.28870  0.08850  0.57780  Biso   1.000  C
  H63      1.0000 0.28440  0.03300  0.59300  Biso   1.000  H
  H64      1.0000 0.34960  0.13710  0.58590  Biso   1.000  H
  N65      1.0000 0.09977  0.56713  0.77077  Biso   1.000  N
  N66      1.0000 0.08999  0.49675  0.80365  Biso   1.000  N
  N67      1.0000 0.15734  0.51120  0.83887  Biso   1.000  N
  N68      1.0000 0.21670  0.59578  0.82910  Biso   1.000  N
  C41      1.0000 0.18137  0.62793  0.78731  Biso   1.000  C
  H65      1.0000 0.21087  0.68663  0.77153  Biso   1.000  H
  N69      1.0000 0.89817  0.51653  0.94900  Biso   1.000  N
  N70      1.0000 0.89287  0.43833  0.94688  Biso   1.000  N
  N71      1.0000 0.82397  0.37443  0.97703  Biso   1.000  N
  N72      1.0000 0.78197  0.41271  0.00060  Biso   1.000  N
  C42      1.0000 0.82727  0.49823  0.98260  Biso   1.000  C
  H66      1.0000 0.80997  0.54023  0.99303  Biso   1.000  H
  N73      1.0000 0.89547  0.12483  0.34437  Biso   1.000  N
  N74      1.0000 0.82747  0.06885  0.30903  Biso   1.000  N
  N75      1.0000 0.84452  0.01930  0.27021  Biso   1.000  N
  N76      1.0000 0.92774  0.04298  0.28169  Biso   1.000  N
  C43      1.0000 0.95727  0.10713  0.32617  Biso   1.000  C
  H67      1.0000 0.01577  0.13633  0.34263  Biso   1.000  H
  N77      1.0000 0.86127  0.30853  0.17193  Biso   1.000  N
  N78      1.0000 0.79237  0.22853  0.16919  Biso   1.000  N
  N79      1.0000 0.72487  0.22163  0.13720  Biso   1.000  N
  N80      1.0000 0.74942  0.30184  0.11715  Biso   1.000  N
  C44      1.0000 0.83177  0.35373  0.13853  Biso   1.000  C
  H68      1.0000 0.86527  0.41543  0.13083  Biso   1.000  H
  C45      1.0000 0.74307  0.06763  0.30688  Biso   1.000  C
  H69      1.0000 0.72197  0.06663  0.35123  Biso   1.000  H
  H70      1.0000 0.69847  0.01363  0.28453  Biso   1.000  H
  C46      1.0000 0.75367  0.14813  0.27193  Biso   1.000  C
  H71      1.0000 0.79527  0.20183  0.29603  Biso   1.000  H
  H72      1.0000 0.69607  0.14583  0.27013  Biso   1.000  H
  C47      1.0000 0.78817  0.15353  0.20373  Biso   1.000  C
  H73      1.0000 0.84777  0.16023  0.20543  Biso   1.000  H
  H74      1.0000 0.74887  0.09833  0.18033  Biso   1.000  H
  C48      1.0000 0.00817  0.41113  0.80053  Biso   1.000  C
  H75      1.0000 0.01847  0.36453  0.81823  Biso   1.000  H
  H76      1.0000 0.98907  0.39613  0.75523  Biso   1.000  H
  C49      1.0000 0.93627  0.41533  0.83933  Biso   1.000  C
  H77      1.0000 0.93207  0.46723  0.82553  Biso   1.000  H
  H78      1.0000 0.87877  0.36183  0.83073  Biso   1.000  H
  C50      1.0000 0.95537  0.42183  0.91113  Biso   1.000  C
  H79      1.0000 0.95107  0.36633  0.92633  Biso   1.000  H
  H80      1.0000 0.01627  0.47043  0.91923  Biso   1.000  H
  N81      1.0000 0.76643  0.90047  0.10411  Biso   1.000  N
  N82      1.0000 0.75665  0.83009  0.13699  Biso   1.000  N
  N83      1.0000 0.82400  0.84454  0.17221  Biso   1.000  N
  N84      1.0000 0.88336  0.92912  0.16244  Biso   1.000  N
  C51      1.0000 0.84803  0.96127  0.12065  Biso   1.000  C
  H81      1.0000 0.87753  0.01997  0.10487  Biso   1.000  H
  N85      1.0000 0.56483  0.84987  0.28234  Biso   1.000  N
  N86      1.0000 0.55953  0.77167  0.28022  Biso   1.000  N
  N87      1.0000 0.49063  0.70777  0.31037  Biso   1.000  N
  N88      1.0000 0.44863  0.74605  0.33394  Biso   1.000  N
  C52      1.0000 0.49393  0.83157  0.31594  Biso   1.000  C
  H82      1.0000 0.47663  0.87357  0.32637  Biso   1.000  H
  N89      1.0000 0.56213  0.45817  0.67771  Biso   1.000  N
  N90      1.0000 0.49413  0.40219  0.64237  Biso   1.000  N
  N91      1.0000 0.51118  0.35264  0.60355  Biso   1.000  N
  N92      1.0000 0.59440  0.37632  0.61503  Biso   1.000  N
  C53      1.0000 0.62393  0.44047  0.65951  Biso   1.000  C
  H83      1.0000 0.68243  0.46967  0.67597  Biso   1.000  H
  N93      1.0000 0.52793  0.64187  0.50527  Biso   1.000  N
  N94      1.0000 0.45903  0.56187  0.50253  Biso   1.000  N
  N95      1.0000 0.39153  0.55497  0.47054  Biso   1.000  N
  N96      1.0000 0.41608  0.63518  0.45049  Biso   1.000  N
  C54      1.0000 0.49843  0.68707  0.47187  Biso   1.000  C
  H84      1.0000 0.53193  0.74877  0.46417  Biso   1.000  H
  C55      1.0000 0.40973  0.40097  0.64022  Biso   1.000  C
  H85      1.0000 0.38863  0.39997  0.68457  Biso   1.000  H
  H86      1.0000 0.36513  0.34697  0.61787  Biso   1.000  H
  C56      1.0000 0.42033  0.48147  0.60527  Biso   1.000  C
  H87      1.0000 0.46193  0.53517  0.62937  Biso   1.000  H
  H88      1.0000 0.36273  0.47917  0.60347  Biso   1.000  H
  C57      1.0000 0.45483  0.48687  0.53707  Biso   1.000  C
  H89      1.0000 0.51443  0.49357  0.53877  Biso   1.000  H
  H90      1.0000 0.41553  0.43167  0.51367  Biso   1.000  H
  C58      1.0000 0.67483  0.74447  0.13387  Biso   1.000  C
  H91      1.0000 0.68513  0.69787  0.15157  Biso   1.000  H
  H92      1.0000 0.65573  0.72947  0.08857  Biso   1.000  H
  C59      1.0000 0.60293  0.74867  0.17267  Biso   1.000  C
  H93      1.0000 0.59873  0.80057  0.15887  Biso   1.000  H
  H94      1.0000 0.54543  0.69517  0.16407  Biso   1.000  H
  C60      1.0000 0.62203  0.75517  0.24447  Biso   1.000  C
  H95      1.0000 0.61773  0.69967  0.25967  Biso   1.000  H
  H96      1.0000 0.68293  0.80377  0.25257  Biso   1.000  H
  N97      1.0000 0.76620  0.19930  0.43744  Biso   1.000  N
  N98      1.0000 0.83658  0.25990  0.47032  Biso   1.000  N
  N99      1.0000 0.82213  0.31280  0.50554  Biso   1.000  N
  N100     1.0000 0.73755  0.28758  0.49577  Biso   1.000  N
  C61      1.0000 0.70540  0.22010  0.45398  Biso   1.000  C
  H97      1.0000 0.64670  0.19090  0.43820  Biso   1.000  H
  N101     1.0000 0.81680  0.04830  0.61567  Biso   1.000  N
  N102     1.0000 0.89500  0.12120  0.61355  Biso   1.000  N
  N103     1.0000 0.95890  0.11620  0.64370  Biso   1.000  N
  N104     1.0000 0.92062  0.03592  0.66727  Biso   1.000  N
  C62      1.0000 0.83510  0.99570  0.64927  Biso   1.000  C
  H98      1.0000 0.79310  0.93640  0.65970  Biso   1.000  H
  N105     1.0000 0.20850  0.43730  0.01104  Biso   1.000  N
  N106     1.0000 0.26448  0.42528  0.97570  Biso   1.000  N
  N107     1.0000 0.31403  0.49188  0.93688  Biso   1.000  N
  N108     1.0000 0.29035  0.55142  0.94836  Biso   1.000  N
  C63      1.0000 0.22620  0.51680  0.99284  Biso   1.000  C
  H99      1.0000 0.19700  0.54610  0.00930  Biso   1.000  H
  N109     1.0000 0.02480  0.21940  0.83860  Biso   1.000  N
  N110     1.0000 0.10480  0.23050  0.83586  Biso   1.000  N
  N111     1.0000 0.11170  0.16990  0.80387  Biso   1.000  N
  N112     1.0000 0.03149  0.11424  0.78382  Biso   1.000  N
  C64      1.0000 0.97960  0.14470  0.80520  Biso   1.000  C
  H100     1.0000 0.91790  0.11650  0.79750  Biso   1.000  H
  C65      1.0000 0.26570  0.34210  0.97355  Biso   1.000  C
  H101     1.0000 0.26670  0.32200  0.01790  Biso   1.000  H
  H102     1.0000 0.31970  0.35150  0.95120  Biso   1.000  H
  C66      1.0000 0.18520  0.27220  0.93860  Biso   1.000  C
  H103     1.0000 0.13150  0.26010  0.96270  Biso   1.000  H
  H104     1.0000 0.18750  0.21690  0.93680  Biso   1.000  H
  C67      1.0000 0.17980  0.30130  0.87040  Biso   1.000  C
  H105     1.0000 0.17310  0.35420  0.87210  Biso   1.000  H
  H106     1.0000 0.23500  0.31720  0.84700  Biso   1.000  H
  C68      1.0000 0.92220  0.26370  0.46720  Biso   1.000  C
  H107     1.0000 0.96880  0.32060  0.48490  Biso   1.000  H
  H108     1.0000 0.93720  0.25960  0.42190  Biso   1.000  H
  C69      1.0000 0.91800  0.18760  0.50600  Biso   1.000  C
  H109     1.0000 0.86610  0.13150  0.49220  Biso   1.000  H
  H110     1.0000 0.97150  0.18360  0.49740  Biso   1.000  H
  C70      1.0000 0.91150  0.20020  0.57780  Biso   1.000  C
  H111     1.0000 0.96700  0.25140  0.59300  Biso   1.000  H
  H112     1.0000 0.86290  0.21250  0.58590  Biso   1.000  H
  N113     1.0000 0.43287  0.53263  0.77077  Biso   1.000  N
  N114     1.0000 0.50325  0.59323  0.80365  Biso   1.000  N
  N115     1.0000 0.48880  0.64613  0.83887  Biso   1.000  N
  N116     1.0000 0.40422  0.62091  0.82910  Biso   1.000  N
  C71      1.0000 0.37207  0.55343  0.78731  Biso   1.000  C
  H113     1.0000 0.31337  0.52423  0.77153  Biso   1.000  H
  N117     1.0000 0.48347  0.38163  0.94900  Biso   1.000  N
  N118     1.0000 0.56167  0.45453  0.94688  Biso   1.000  N
  N119     1.0000 0.62557  0.44953  0.97703  Biso   1.000  N
  N120     1.0000 0.58729  0.36925  0.00060  Biso   1.000  N
  C72      1.0000 0.50177  0.32903  0.98260  Biso   1.000  C
  H114     1.0000 0.45977  0.26973  0.99303  Biso   1.000  H
  N121     1.0000 0.87517  0.77063  0.34437  Biso   1.000  N
  N122     1.0000 0.93115  0.75861  0.30903  Biso   1.000  N
  N123     1.0000 0.98070  0.82521  0.27021  Biso   1.000  N
  N124     1.0000 0.95702  0.88475  0.28169  Biso   1.000  N
  C73      1.0000 0.89287  0.85013  0.32617  Biso   1.000  C
  H115     1.0000 0.86367  0.87943  0.34263  Biso   1.000  H
  N125     1.0000 0.69147  0.55273  0.17193  Biso   1.000  N
  N126     1.0000 0.77147  0.56383  0.16919  Biso   1.000  N
  N127     1.0000 0.77837  0.50323  0.13720  Biso   1.000  N
  N128     1.0000 0.69816  0.44757  0.11715  Biso   1.000  N
  C74      1.0000 0.64627  0.47803  0.13853  Biso   1.000  C
  H116     1.0000 0.58457  0.44983  0.13083  Biso   1.000  H
  C75      1.0000 0.93237  0.67543  0.30688  Biso   1.000  C
  H117     1.0000 0.93337  0.65533  0.35123  Biso   1.000  H
  H118     1.0000 0.98637  0.68483  0.28453  Biso   1.000  H
  C76      1.0000 0.85187  0.60553  0.27193  Biso   1.000  C
  H119     1.0000 0.79817  0.59343  0.29603  Biso   1.000  H
  H120     1.0000 0.85417  0.55023  0.27013  Biso   1.000  H
  C77      1.0000 0.84647  0.63463  0.20373  Biso   1.000  C
  H121     1.0000 0.83977  0.68753  0.20543  Biso   1.000  H
  H122     1.0000 0.90167  0.65053  0.18033  Biso   1.000  H
  C78      1.0000 0.58887  0.59703  0.80053  Biso   1.000  C
  H123     1.0000 0.63547  0.65393  0.81823  Biso   1.000  H
  H124     1.0000 0.60387  0.59293  0.75523  Biso   1.000  H
  C79      1.0000 0.58467  0.52093  0.83933  Biso   1.000  C
  H125     1.0000 0.53277  0.46483  0.82553  Biso   1.000  H
  H126     1.0000 0.63817  0.51693  0.83073  Biso   1.000  H
  C80      1.0000 0.57817  0.53353  0.91113  Biso   1.000  C
  H127     1.0000 0.63367  0.58473  0.92633  Biso   1.000  H
  H128     1.0000 0.52957  0.54583  0.91923  Biso   1.000  H
  N129     1.0000 0.09953  0.86597  0.10411  Biso   1.000  N
  N130     1.0000 0.16991  0.92657  0.13699  Biso   1.000  N
  N131     1.0000 0.15546  0.97947  0.17221  Biso   1.000  N
  N132     1.0000 0.07088  0.95425  0.16244  Biso   1.000  N
  C81      1.0000 0.03873  0.88677  0.12065  Biso   1.000  C
  H129     1.0000 0.98003  0.85757  0.10487  Biso   1.000  H
  N133     1.0000 0.15013  0.71497  0.28234  Biso   1.000  N
  N134     1.0000 0.22833  0.78787  0.28022  Biso   1.000  N
  N135     1.0000 0.29223  0.78287  0.31037  Biso   1.000  N
  N136     1.0000 0.25395  0.70259  0.33394  Biso   1.000  N
  C82      1.0000 0.16843  0.66237  0.31594  Biso   1.000  C
  H130     1.0000 0.12643  0.60307  0.32637  Biso   1.000  H
  N137     1.0000 0.54183  0.10397  0.67771  Biso   1.000  N
  N138     1.0000 0.59781  0.09195  0.64237  Biso   1.000  N
  N139     1.0000 0.64736  0.15855  0.60355  Biso   1.000  N
  N140     1.0000 0.62368  0.21809  0.61503  Biso   1.000  N
  C83      1.0000 0.55953  0.18347  0.65951  Biso   1.000  C
  H131     1.0000 0.53033  0.21277  0.67597  Biso   1.000  H
  N141     1.0000 0.35813  0.88607  0.50527  Biso   1.000  N
  N142     1.0000 0.43813  0.89717  0.50253  Biso   1.000  N
  N143     1.0000 0.44503  0.83657  0.47054  Biso   1.000  N
  N144     1.0000 0.36482  0.78091  0.45049  Biso   1.000  N
  C84      1.0000 0.31293  0.81137  0.47187  Biso   1.000  C
  H132     1.0000 0.25123  0.78317  0.46417  Biso   1.000  H
  C85      1.0000 0.59903  0.00877  0.64022  Biso   1.000  C
  H133     1.0000 0.60003  0.98867  0.68457  Biso   1.000  H
  H134     1.0000 0.65303  0.01817  0.61787  Biso   1.000  H
  C86      1.0000 0.51853  0.93887  0.60527  Biso   1.000  C
  H135     1.0000 0.46483  0.92677  0.62937  Biso   1.000  H
  H136     1.0000 0.52083  0.88357  0.60347  Biso   1.000  H
  C87      1.0000 0.51313  0.96797  0.53707  Biso   1.000  C
  H137     1.0000 0.50643  0.02087  0.53877  Biso   1.000  H
  H138     1.0000 0.56833  0.98387  0.51367  Biso   1.000  H
  C88      1.0000 0.25553  0.93037  0.13387  Biso   1.000  C
  H139     1.0000 0.30213  0.98727  0.15157  Biso   1.000  H
  H140     1.0000 0.27053  0.92627  0.08857  Biso   1.000  H
  C89      1.0000 0.25133  0.85427  0.17267  Biso   1.000  C
  H141     1.0000 0.19943  0.79817  0.15887  Biso   1.000  H
  H142     1.0000 0.30483  0.85027  0.16407  Biso   1.000  H
  C90      1.0000 0.24483  0.86687  0.24447  Biso   1.000  C
  H143     1.0000 0.30033  0.91807  0.25967  Biso   1.000  H
  H144     1.0000 0.19623  0.87917  0.25257  Biso   1.000  H
  Zn1      1.0000 0.00000  0.00000  0.72463  Biso   1.000  Zn
  Zn2      1.0000 0.66667  0.33333  0.05796  Biso   1.000  Zn
  Zn3      1.0000 0.33333  0.66667  0.39130  Biso   1.000  Zn
  Zn4      1.0000 0.66667  0.33333  0.55502  Biso   1.000  Zn
  Zn5      1.0000 0.33333  0.66667  0.88835  Biso   1.000  Zn
  Zn6      1.0000 0.00000  0.00000  0.22169  Biso   1.000  Zn
