data_image0
_cell_length_a       15.205
_cell_length_b       18.005
_cell_length_c       21.5
_cell_angle_alpha    71.21
_cell_angle_beta     84.47
_cell_angle_gamma    67.15

_symmetry_space_group_name_H-M    P 1
_symmetry_int_tables_number       1

loop_
  _symmetry_equiv_pos_as_xyz
  'x, y, z'

loop_
  _atom_site_label
  _atom_site_occupancy
  _atom_site_fract_x
  _atom_site_fract_y
  _atom_site_fract_z
  _atom_site_thermal_displace_type
  _atom_site_B_iso_or_equiv
  _atom_site_type_symbol
  Co1      1.0000 0.52463  0.63577  0.73048  Biso   1.000  Co
  Co2      1.0000 0.23781  0.34905  0.51690  Biso   1.000  Co
  Co3      1.0000 0.14182  0.03117  0.60305  Biso   1.000  Co
  Co4      1.0000 0.21963  0.17517  0.52077  Biso   1.000  Co
  Co5      1.0000 0.63672  0.59260  0.60374  Biso   1.000  Co
  Co6      1.0000 0.90477  0.01579  0.85030  Biso   1.000  Co
  Co7      1.0000 0.69684  0.74029  0.06311  Biso   1.000  Co
  Co8      1.0000 0.80882  0.69777  0.93635  Biso   1.000  Co
  Co9      1.0000 0.44693  0.49087  0.81228  Biso   1.000  Co
  Co10     1.0000 0.88610  0.84225  0.85437  Biso   1.000  Co
  Co11     1.0000 0.02982  0.07364  0.72977  Biso   1.000  Co
  Co12     1.0000 0.57117  0.68248  0.18358  Biso   1.000  Co
  Co13     1.0000 0.33370  0.33328  0.66664  Biso   1.000  Co
  Co14     1.0000 0.33350  0.83340  0.66690  Biso   1.000  Co
  Co15     1.0000 0.66670  0.66663  0.83316  Biso   1.000  Co
  Co16     1.0000 0.66640  0.16668  0.83342  Biso   1.000  Co
  Co17     1.0000 0.47537  0.36423  0.26952  Biso   1.000  Co
  Co18     1.0000 0.76219  0.65095  0.48310  Biso   1.000  Co
  Co19     1.0000 0.85818  0.96883  0.39695  Biso   1.000  Co
  Co20     1.0000 0.78037  0.82483  0.47923  Biso   1.000  Co
  Co21     1.0000 0.36328  0.40740  0.39626  Biso   1.000  Co
  Co22     1.0000 0.09523  0.98421  0.14970  Biso   1.000  Co
  Co23     1.0000 0.30316  0.25971  0.93689  Biso   1.000  Co
  Co24     1.0000 0.19118  0.30223  0.06365  Biso   1.000  Co
  Co25     1.0000 0.55307  0.50913  0.18772  Biso   1.000  Co
  Co26     1.0000 0.11390  0.15775  0.14563  Biso   1.000  Co
  Co27     1.0000 0.97018  0.92636  0.27023  Biso   1.000  Co
  Co28     1.0000 0.42883  0.31752  0.81642  Biso   1.000  Co
  Co29     1.0000 0.66630  0.66672  0.33336  Biso   1.000  Co
  Co30     1.0000 0.66650  0.16660  0.33310  Biso   1.000  Co
  Co31     1.0000 0.33330  0.33337  0.16684  Biso   1.000  Co
  Co32     1.0000 0.33360  0.83332  0.16658  Biso   1.000  Co
  Co33     1.0000 0.00000  0.00000  0.00000  Biso   1.000  Co
  Co34     1.0000 0.00000  0.50000  0.00000  Biso   1.000  Co
  Co35     1.0000 0.00000  0.00000  0.50000  Biso   1.000  Co
  Co36     1.0000 0.00000  0.50000  0.50000  Biso   1.000  Co
  H1       1.0000 0.78970  0.61110  0.67740  Biso   1.000  H
  H2       1.0000 0.58380  0.55140  0.91780  Biso   1.000  H
  H3       1.0000 0.74840  0.78310  0.75070  Biso   1.000  H
  H4       1.0000 0.60830  0.35080  0.90750  Biso   1.000  H
  H5       1.0000 0.18370  0.80120  0.62080  Biso   1.000  H
  H6       1.0000 0.42390  0.68580  0.55710  Biso   1.000  H
  H7       1.0000 0.35420  0.53720  0.67660  Biso   1.000  H
  H8       1.0000 0.71440  0.99180  0.75920  Biso   1.000  H
  H9       1.0000 0.93500  0.31740  0.11430  Biso   1.000  H
  H10      1.0000 0.48530  0.86270  0.71820  Biso   1.000  H
  H11      1.0000 0.54420  0.72730  0.98630  Biso   1.000  H
  H12      1.0000 0.84230  0.46550  0.96280  Biso   1.000  H
  H13      1.0000 0.31380  0.12970  0.65890  Biso   1.000  H
  H14      1.0000 0.60940  0.23250  0.69730  Biso   1.000  H
  H15      1.0000 0.75460  0.55210  0.07930  Biso   1.000  H
  H16      1.0000 0.40060  0.01170  0.53900  Biso   1.000  H
  H17      1.0000 0.83870  0.23460  0.70670  Biso   1.000  H
  H18      1.0000 0.24740  0.96920  0.78070  Biso   1.000  H
  H19      1.0000 0.71690  0.93740  0.93260  Biso   1.000  H
  H20      1.0000 0.72260  0.10620  0.97170  Biso   1.000  H
  H21      1.0000 0.61190  0.39990  0.73160  Biso   1.000  H
  H22      1.0000 0.05690  0.43670  0.64010  Biso   1.000  H
  H23      1.0000 0.17700  0.56570  0.37890  Biso   1.000  H
  H24      1.0000 0.08750  0.88140  0.75050  Biso   1.000  H
  H25      1.0000 0.49630  0.09780  0.95740  Biso   1.000  H
  H26      1.0000 0.04750  0.26980  0.59680  Biso   1.000  H
  H27      1.0000 0.90570  0.64530  0.11170  Biso   1.000  H
  H28      1.0000 0.26230  0.65950  0.78310  Biso   1.000  H
  H29      1.0000 0.43290  0.21070  0.42100  Biso   1.000  H
  H30      1.0000 0.02130  0.20510  0.00850  Biso   1.000  H
  H31      1.0000 0.11090  0.06530  0.89730  Biso   1.000  H
  H32      1.0000 0.22650  0.26080  0.77180  Biso   1.000  H
  H33      1.0000 0.43520  0.41030  0.55980  Biso   1.000  H
  H34      1.0000 0.07340  0.12150  0.41810  Biso   1.000  H
  H35      1.0000 0.04730  0.31480  0.43050  Biso   1.000  H
  H36      1.0000 0.88070  0.05200  0.65430  Biso   1.000  H
  H37      1.0000 0.21030  0.38890  0.32260  Biso   1.000  H
  H38      1.0000 0.41620  0.44860  0.08220  Biso   1.000  H
  H39      1.0000 0.25160  0.21690  0.24930  Biso   1.000  H
  H40      1.0000 0.39170  0.64920  0.09250  Biso   1.000  H
  H41      1.0000 0.81630  0.19880  0.37920  Biso   1.000  H
  H42      1.0000 0.57610  0.31420  0.44290  Biso   1.000  H
  H43      1.0000 0.64580  0.46280  0.32340  Biso   1.000  H
  H44      1.0000 0.28560  0.00820  0.24080  Biso   1.000  H
  H45      1.0000 0.06500  0.68260  0.88570  Biso   1.000  H
  H46      1.0000 0.51470  0.13730  0.28180  Biso   1.000  H
  H47      1.0000 0.45580  0.27270  0.01370  Biso   1.000  H
  H48      1.0000 0.15770  0.53450  0.03720  Biso   1.000  H
  H49      1.0000 0.68620  0.87030  0.34110  Biso   1.000  H
  H50      1.0000 0.39060  0.76750  0.30270  Biso   1.000  H
  H51      1.0000 0.24540  0.44790  0.92070  Biso   1.000  H
  H52      1.0000 0.59940  0.98830  0.46100  Biso   1.000  H
  H53      1.0000 0.16130  0.76540  0.29330  Biso   1.000  H
  H54      1.0000 0.75260  0.03080  0.21930  Biso   1.000  H
  H55      1.0000 0.28310  0.06260  0.06740  Biso   1.000  H
  H56      1.0000 0.27740  0.89380  0.02830  Biso   1.000  H
  H57      1.0000 0.38810  0.60010  0.26840  Biso   1.000  H
  H58      1.0000 0.94310  0.56330  0.35990  Biso   1.000  H
  H59      1.0000 0.82300  0.43430  0.62110  Biso   1.000  H
  H60      1.0000 0.91250  0.11860  0.24950  Biso   1.000  H
  H61      1.0000 0.50370  0.90220  0.04260  Biso   1.000  H
  H62      1.0000 0.95250  0.73020  0.40320  Biso   1.000  H
  H63      1.0000 0.09430  0.35470  0.88830  Biso   1.000  H
  H64      1.0000 0.73770  0.34050  0.21690  Biso   1.000  H
  H65      1.0000 0.56710  0.78930  0.57900  Biso   1.000  H
  H66      1.0000 0.97870  0.79490  0.99150  Biso   1.000  H
  H67      1.0000 0.88910  0.93470  0.10270  Biso   1.000  H
  H68      1.0000 0.77350  0.73920  0.22820  Biso   1.000  H
  H69      1.0000 0.56480  0.58970  0.44020  Biso   1.000  H
  H70      1.0000 0.92660  0.87850  0.58190  Biso   1.000  H
  H71      1.0000 0.95270  0.68520  0.56950  Biso   1.000  H
  H72      1.0000 0.11930  0.94800  0.34570  Biso   1.000  H
  C1       1.0000 0.73890  0.61940  0.70560  Biso   1.000  C
  C2       1.0000 0.55800  0.55520  0.87890  Biso   1.000  C
  C3       1.0000 0.77470  0.77880  0.78960  Biso   1.000  C
  C4       1.0000 0.59290  0.32180  0.88420  Biso   1.000  C
  C5       1.0000 0.15450  0.85990  0.60420  Biso   1.000  C
  C6       1.0000 0.42540  0.70040  0.59470  Biso   1.000  C
  C7       1.0000 0.36100  0.48080  0.69440  Biso   1.000  C
  C8       1.0000 0.73410  0.01850  0.78250  Biso   1.000  C
  C9       1.0000 0.97980  0.34030  0.09470  Biso   1.000  C
  C10      1.0000 0.51650  0.80400  0.73160  Biso   1.000  C
  C11      1.0000 0.59630  0.71500  0.95960  Biso   1.000  C
  C12      1.0000 0.81890  0.52360  0.94150  Biso   1.000  C
  C13      1.0000 0.30680  0.18620  0.64090  Biso   1.000  C
  C14      1.0000 0.54850  0.25600  0.71230  Biso   1.000  C
  C15      1.0000 0.70620  0.56170  0.10920  Biso   1.000  C
  C16      1.0000 0.35930  0.99040  0.56670  Biso   1.000  C
  C17      1.0000 0.82510  0.19680  0.74360  Biso   1.000  C
  C18      1.0000 0.24520  0.96100  0.74040  Biso   1.000  C
  C19      1.0000 0.72630  0.88050  0.95120  Biso   1.000  C
  C20      1.0000 0.78290  0.07960  0.95740  Biso   1.000  C
  C21      1.0000 0.60490  0.45650  0.71420  Biso   1.000  C
  C22      1.0000 0.11730  0.41240  0.62480  Biso   1.000  C
  C23      1.0000 0.16150  0.52680  0.41380  Biso   1.000  C
  C24      1.0000 0.03760  0.89240  0.77910  Biso   1.000  C
  C25      1.0000 0.51010  0.13640  0.92130  Biso   1.000  C
  C26      1.0000 0.05880  0.21260  0.61650  Biso   1.000  C
  C27      1.0000 0.90490  0.63330  0.07280  Biso   1.000  C
  C28      1.0000 0.30860  0.67970  0.76210  Biso   1.000  C
  C29      1.0000 0.37800  0.22390  0.44520  Biso   1.000  C
  C30      1.0000 0.02750  0.14880  0.02650  Biso   1.000  C
  C31      1.0000 0.07060  0.06220  0.86910  Biso   1.000  C
  C32      1.0000 0.26480  0.26790  0.79900  Biso   1.000  C
  C33      1.0000 0.39970  0.40000  0.53300  Biso   1.000  C
  C34      1.0000 0.10540  0.11290  0.45610  Biso   1.000  C
  C35      1.0000 0.06730  0.34540  0.44960  Biso   1.000  C
  C36      1.0000 0.93020  0.04600  0.62500  Biso   1.000  C
  C37      1.0000 0.26110  0.38060  0.29440  Biso   1.000  C
  C38      1.0000 0.44200  0.44480  0.12110  Biso   1.000  C
  C39      1.0000 0.22530  0.22120  0.21040  Biso   1.000  C
  C40      1.0000 0.40710  0.67820  0.11580  Biso   1.000  C
  C41      1.0000 0.84550  0.14010  0.39580  Biso   1.000  C
  C42      1.0000 0.57460  0.29960  0.40530  Biso   1.000  C
  C43      1.0000 0.63900  0.51920  0.30560  Biso   1.000  C
  C44      1.0000 0.26590  0.98150  0.21750  Biso   1.000  C
  C45      1.0000 0.02020  0.65970  0.90530  Biso   1.000  C
  C46      1.0000 0.48350  0.19600  0.26840  Biso   1.000  C
  C47      1.0000 0.40370  0.28500  0.04040  Biso   1.000  C
  C48      1.0000 0.18110  0.47640  0.05850  Biso   1.000  C
  C49      1.0000 0.69320  0.81380  0.35910  Biso   1.000  C
  C50      1.0000 0.45150  0.74400  0.28770  Biso   1.000  C
  C51      1.0000 0.29380  0.43830  0.89080  Biso   1.000  C
  C52      1.0000 0.64070  0.00960  0.43330  Biso   1.000  C
  C53      1.0000 0.17490  0.80320  0.25640  Biso   1.000  C
  C54      1.0000 0.75480  0.03900  0.25960  Biso   1.000  C
  C55      1.0000 0.27370  0.11950  0.04880  Biso   1.000  C
  C56      1.0000 0.21710  0.92040  0.04260  Biso   1.000  C
  C57      1.0000 0.39510  0.54350  0.28580  Biso   1.000  C
  C58      1.0000 0.88270  0.58760  0.37520  Biso   1.000  C
  C59      1.0000 0.83850  0.47320  0.58620  Biso   1.000  C
  C60      1.0000 0.96240  0.10760  0.22090  Biso   1.000  C
  C61      1.0000 0.48990  0.86360  0.07870  Biso   1.000  C
  C62      1.0000 0.94120  0.78740  0.38350  Biso   1.000  C
  C63      1.0000 0.09510  0.36670  0.92720  Biso   1.000  C
  C64      1.0000 0.69140  0.32030  0.23790  Biso   1.000  C
  C65      1.0000 0.62200  0.77610  0.55480  Biso   1.000  C
  C66      1.0000 0.97250  0.85120  0.97350  Biso   1.000  C
  C67      1.0000 0.92940  0.93780  0.13090  Biso   1.000  C
  C68      1.0000 0.73520  0.73210  0.20100  Biso   1.000  C
  C69      1.0000 0.60030  0.60000  0.46700  Biso   1.000  C
  C70      1.0000 0.89460  0.88710  0.54390  Biso   1.000  C
  C71      1.0000 0.93270  0.65460  0.55040  Biso   1.000  C
  C72      1.0000 0.06980  0.95400  0.37500  Biso   1.000  C
  O1       1.0000 0.01330  0.42030  0.44500  Biso   1.000  O
  O2       1.0000 0.31140  0.90670  0.72840  Biso   1.000  O
  O3       1.0000 0.35440  0.76240  0.60200  Biso   1.000  O
  O4       1.0000 0.33050  0.45190  0.65970  Biso   1.000  O
  O5       1.0000 0.99700  0.11810  0.99400  Biso   1.000  O
  O6       1.0000 0.67920  0.08730  0.77910  Biso   1.000  O
  O7       1.0000 0.33690  0.21450  0.67550  Biso   1.000  O
  O8       1.0000 0.65240  0.24890  0.88830  Biso   1.000  O
  O9       1.0000 0.94850  0.42010  0.07030  Biso   1.000  O
  O10      1.0000 0.97600  0.57220  0.06190  Biso   1.000  O
  O11      1.0000 0.38890  0.91360  0.59680  Biso   1.000  O
  O12      1.0000 0.74990  0.62960  0.75770  Biso   1.000  O
  O13      1.0000 0.91300  0.03710  0.57510  Biso   1.000  O
  O14      1.0000 0.74940  0.22330  0.76710  Biso   1.000  O
  O15      1.0000 0.58210  0.70190  0.90820  Biso   1.000  O
  O16      1.0000 0.28110  0.75520  0.73780  Biso   1.000  O
  O17      1.0000 0.08280  0.55540  0.43500  Biso   1.000  O
  O18      1.0000 0.34620  0.29520  0.45620  Biso   1.000  O
  O19      1.0000 0.58560  0.11120  0.89870  Biso   1.000  O
  O20      1.0000 0.67150  0.50380  0.13350  Biso   1.000  O
  O21      1.0000 0.85190  0.04630  0.99740  Biso   1.000  O
  O22      1.0000 0.89040  0.12150  0.76370  Biso   1.000  O
  O23      1.0000 0.33850  0.16920  0.46570  Biso   1.000  O
  O24      1.0000 0.74910  0.55370  0.90200  Biso   1.000  O
  O25      1.0000 0.68970  0.85800  0.00680  Biso   1.000  O
  O26      1.0000 0.58650  0.78040  0.76310  Biso   1.000  O
  O27      1.0000 0.01500  0.96220  0.79060  Biso   1.000  O
  O28      1.0000 0.24840  0.24840  0.85800  Biso   1.000  O
  O29      1.0000 0.08100  0.88900  0.56780  Biso   1.000  O
  O30      1.0000 0.68060  0.62920  0.12220  Biso   1.000  O
  O31      1.0000 0.51130  0.50990  0.88240  Biso   1.000  O
  O32      1.0000 0.02140  0.19280  0.67080  Biso   1.000  O
  O33      1.0000 0.00420  0.83650  0.79960  Biso   1.000  O
  O34      1.0000 0.18570  0.37990  0.66400  Biso   1.000  O
  O35      1.0000 0.16940  0.01080  0.70310  Biso   1.000  O
  O36      1.0000 0.48170  0.28740  0.67060  Biso   1.000  O
  O37      1.0000 0.83380  0.67830  0.03410  Biso   1.000  O
  O38      1.0000 0.49880  0.65530  0.63260  Biso   1.000  O
  O39      1.0000 0.22530  0.45400  0.43070  Biso   1.000  O
  O40      1.0000 0.41780  0.41740  0.47530  Biso   1.000  O
  O41      1.0000 0.82030  0.82260  0.78530  Biso   1.000  O
  O42      1.0000 0.44340  0.21260  0.90150  Biso   1.000  O
  O43      1.0000 0.08510  0.08400  0.80950  Biso   1.000  O
  O44      1.0000 0.15500  0.15600  0.45190  Biso   1.000  O
  O45      1.0000 0.09520  0.05820  0.50850  Biso   1.000  O
  O46      1.0000 0.64310  0.47590  0.66200  Biso   1.000  O
  O47      1.0000 0.79050  0.07920  0.89680  Biso   1.000  O
  O48      1.0000 0.14800  0.30980  0.47940  Biso   1.000  O
  O49      1.0000 0.75940  0.72770  0.84190  Biso   1.000  O
  O50      1.0000 0.67120  0.71340  0.97890  Biso   1.000  O
  O51      1.0000 0.57250  0.60590  0.82600  Biso   1.000  O
  O52      1.0000 0.11040  0.16220  0.58620  Biso   1.000  O
  O53      1.0000 0.06840  0.10640  0.08540  Biso   1.000  O
  O54      1.0000 0.00740  0.04850  0.64460  Biso   1.000  O
  O55      1.0000 0.39350  0.62170  0.76370  Biso   1.000  O
  O56      1.0000 0.26760  0.22350  0.58410  Biso   1.000  O
  O57      1.0000 0.32860  0.29710  0.77010  Biso   1.000  O
  O58      1.0000 0.65960  0.61960  0.68820  Biso   1.000  O
  O59      1.0000 0.19320  0.90270  0.62090  Biso   1.000  O
  O60      1.0000 0.51680  0.35910  0.85310  Biso   1.000  O
  O61      1.0000 0.33830  0.36920  0.56220  Biso   1.000  O
  O62      1.0000 0.81620  0.97300  0.81250  Biso   1.000  O
  O63      1.0000 0.12300  0.41520  0.56410  Biso   1.000  O
  O64      1.0000 0.86060  0.56700  0.95470  Biso   1.000  O
  O65      1.0000 0.54430  0.25200  0.77180  Biso   1.000  O
  O66      1.0000 0.27470  0.04230  0.57170  Biso   1.000  O
  O67      1.0000 0.55770  0.50440  0.74670  Biso   1.000  O
  O68      1.0000 0.00390  0.03580  0.89500  Biso   1.000  O
  O69      1.0000 0.47270  0.76620  0.71130  Biso   1.000  O
  O70      1.0000 0.05910  0.29120  0.09570  Biso   1.000  O
  O71      1.0000 0.40040  0.44210  0.75110  Biso   1.000  O
  O72      1.0000 0.77610  0.82820  0.91900  Biso   1.000  O
  O73      1.0000 0.98670  0.57970  0.55500  Biso   1.000  O
  O74      1.0000 0.68860  0.09330  0.27160  Biso   1.000  O
  O75      1.0000 0.64560  0.23760  0.39800  Biso   1.000  O
  O76      1.0000 0.66950  0.54810  0.34030  Biso   1.000  O
  O77      1.0000 0.00300  0.88190  0.00600  Biso   1.000  O
  O78      1.0000 0.32080  0.91270  0.22090  Biso   1.000  O
  O79      1.0000 0.66310  0.78550  0.32450  Biso   1.000  O
  O80      1.0000 0.34760  0.75110  0.11170  Biso   1.000  O
  O81      1.0000 0.05150  0.57990  0.92970  Biso   1.000  O
  O82      1.0000 0.02400  0.42780  0.93810  Biso   1.000  O
  O83      1.0000 0.61110  0.08640  0.40320  Biso   1.000  O
  O84      1.0000 0.25010  0.37040  0.24230  Biso   1.000  O
  O85      1.0000 0.08700  0.96290  0.42490  Biso   1.000  O
  O86      1.0000 0.25060  0.77670  0.23290  Biso   1.000  O
  O87      1.0000 0.41790  0.29810  0.09180  Biso   1.000  O
  O88      1.0000 0.71890  0.24480  0.26220  Biso   1.000  O
  O89      1.0000 0.91720  0.44460  0.56500  Biso   1.000  O
  O90      1.0000 0.65380  0.70480  0.54380  Biso   1.000  O
  O91      1.0000 0.41440  0.88880  0.10130  Biso   1.000  O
  O92      1.0000 0.32850  0.49620  0.86650  Biso   1.000  O
  O93      1.0000 0.14810  0.95370  0.00260  Biso   1.000  O
  O94      1.0000 0.10960  0.87850  0.23630  Biso   1.000  O
  O95      1.0000 0.66150  0.83080  0.53430  Biso   1.000  O
  O96      1.0000 0.25090  0.44630  0.09800  Biso   1.000  O
  O97      1.0000 0.31030  0.14200  0.99320  Biso   1.000  O
  O98      1.0000 0.41350  0.21960  0.23690  Biso   1.000  O
  O99      1.0000 0.98500  0.03780  0.20940  Biso   1.000  O
  O100     1.0000 0.75160  0.75160  0.14200  Biso   1.000  O
  O101     1.0000 0.91900  0.11100  0.43220  Biso   1.000  O
  O102     1.0000 0.31940  0.37080  0.87780  Biso   1.000  O
  O103     1.0000 0.48870  0.49010  0.11760  Biso   1.000  O
  O104     1.0000 0.97860  0.80720  0.32920  Biso   1.000  O
  O105     1.0000 0.99580  0.16350  0.20040  Biso   1.000  O
  O106     1.0000 0.81430  0.62010  0.33600  Biso   1.000  O
  O107     1.0000 0.83060  0.98920  0.29690  Biso   1.000  O
  O108     1.0000 0.51830  0.71260  0.32940  Biso   1.000  O
  O109     1.0000 0.16620  0.32170  0.96590  Biso   1.000  O
  O110     1.0000 0.50120  0.34470  0.36740  Biso   1.000  O
  O111     1.0000 0.77470  0.54600  0.56930  Biso   1.000  O
  O112     1.0000 0.58220  0.58260  0.52470  Biso   1.000  O
  O113     1.0000 0.17970  0.17740  0.21470  Biso   1.000  O
  O114     1.0000 0.55660  0.78740  0.09850  Biso   1.000  O
  O115     1.0000 0.91490  0.91600  0.19050  Biso   1.000  O
  O116     1.0000 0.84500  0.84400  0.54810  Biso   1.000  O
  O117     1.0000 0.90480  0.94180  0.49150  Biso   1.000  O
  O118     1.0000 0.35690  0.52410  0.33800  Biso   1.000  O
  O119     1.0000 0.20950  0.92080  0.10320  Biso   1.000  O
  O120     1.0000 0.85200  0.69020  0.52060  Biso   1.000  O
  O121     1.0000 0.24060  0.27230  0.15810  Biso   1.000  O
  O122     1.0000 0.32880  0.28660  0.02110  Biso   1.000  O
  O123     1.0000 0.42750  0.39410  0.17400  Biso   1.000  O
  O124     1.0000 0.88960  0.83780  0.41380  Biso   1.000  O
  O125     1.0000 0.93160  0.89360  0.91460  Biso   1.000  O
  O126     1.0000 0.99260  0.95150  0.35540  Biso   1.000  O
  O127     1.0000 0.60650  0.37830  0.23630  Biso   1.000  O
  O128     1.0000 0.73240  0.77650  0.41590  Biso   1.000  O
  O129     1.0000 0.67140  0.70290  0.22990  Biso   1.000  O
  O130     1.0000 0.34040  0.38040  0.31180  Biso   1.000  O
  O131     1.0000 0.80680  0.09730  0.37910  Biso   1.000  O
  O132     1.0000 0.48320  0.64090  0.14690  Biso   1.000  O
  O133     1.0000 0.66170  0.63080  0.43780  Biso   1.000  O
  O134     1.0000 0.18380  0.02700  0.18750  Biso   1.000  O
  O135     1.0000 0.87700  0.58480  0.43590  Biso   1.000  O
  O136     1.0000 0.13940  0.43300  0.04530  Biso   1.000  O
  O137     1.0000 0.45570  0.74800  0.22820  Biso   1.000  O
  O138     1.0000 0.72530  0.95770  0.42830  Biso   1.000  O
  O139     1.0000 0.44230  0.49560  0.25330  Biso   1.000  O
  O140     1.0000 0.99610  0.96420  0.10500  Biso   1.000  O
  O141     1.0000 0.52730  0.23380  0.28870  Biso   1.000  O
  O142     1.0000 0.94090  0.70880  0.90430  Biso   1.000  O
  O143     1.0000 0.59960  0.55790  0.24890  Biso   1.000  O
  O144     1.0000 0.22390  0.17180  0.08100  Biso   1.000  O
