data_image0
_cell_length_a       17.0713
_cell_length_b       17.0713
_cell_length_c       17.0713
_cell_angle_alpha    105.83
_cell_angle_beta     105.83
_cell_angle_gamma    117.029

_symmetry_space_group_name_H-M    P 1
_symmetry_int_tables_number       1

loop_
  _symmetry_equiv_pos_as_xyz
  'x, y, z'

loop_
  _atom_site_label
  _atom_site_occupancy
  _atom_site_fract_x
  _atom_site_fract_y
  _atom_site_fract_z
  _atom_site_thermal_displace_type
  _atom_site_B_iso_or_equiv
  _atom_site_type_symbol
  Zn1      1.0000 0.16140  0.29871  0.62295  Biso   1.000  Zn
  Zn2      1.0000 0.67576  0.53845  0.37705  Biso   1.000  Zn
  Zn3      1.0000 0.53845  0.16140  0.86269  Biso   1.000  Zn
  Zn4      1.0000 0.29871  0.67576  0.13731  Biso   1.000  Zn
  Zn5      1.0000 0.17576  0.79871  0.13731  Biso   1.000  Zn
  Zn6      1.0000 0.66140  0.03845  0.86269  Biso   1.000  Zn
  Zn7      1.0000 0.79871  0.66140  0.62295  Biso   1.000  Zn
  Zn8      1.0000 0.03845  0.17576  0.37705  Biso   1.000  Zn
  Zn9      1.0000 0.92966  0.11582  0.50000  Biso   1.000  Zn
  Zn10     1.0000 0.61582  0.42966  0.50000  Biso   1.000  Zn
  Zn11     1.0000 0.42966  0.92966  0.81384  Biso   1.000  Zn
  Zn12     1.0000 0.11582  0.61582  0.18616  Biso   1.000  Zn
  H1       1.0000 0.94060  0.33290  0.96510  Biso   1.000  H
  H2       1.0000 0.85730  0.17150  0.69980  Biso   1.000  H
  H3       1.0000 0.12290  0.43580  0.85710  Biso   1.000  H
  H4       1.0000 0.36780  0.97550  0.03490  Biso   1.000  H
  H5       1.0000 0.47170  0.15750  0.30020  Biso   1.000  H
  H6       1.0000 0.57870  0.26580  0.14290  Biso   1.000  H
  H7       1.0000 0.97550  0.94060  0.60770  Biso   1.000  H
  H8       1.0000 0.15750  0.85730  0.68580  Biso   1.000  H
  H9       1.0000 0.26580  0.12290  0.68710  Biso   1.000  H
  H10      1.0000 0.33290  0.36780  0.39230  Biso   1.000  H
  H11      1.0000 0.17150  0.47170  0.31420  Biso   1.000  H
  H12      1.0000 0.43580  0.57870  0.31290  Biso   1.000  H
  H13      1.0000 0.86780  0.83290  0.39230  Biso   1.000  H
  H14      1.0000 0.97170  0.67150  0.31420  Biso   1.000  H
  H15      1.0000 0.07870  0.93580  0.31290  Biso   1.000  H
  H16      1.0000 0.44060  0.47550  0.60770  Biso   1.000  H
  H17      1.0000 0.35730  0.65750  0.68580  Biso   1.000  H
  H18      1.0000 0.62290  0.76580  0.68710  Biso   1.000  H
  H19      1.0000 0.83290  0.44060  0.96510  Biso   1.000  H
  H20      1.0000 0.67150  0.35730  0.69980  Biso   1.000  H
  H21      1.0000 0.93580  0.62290  0.85710  Biso   1.000  H
  H22      1.0000 0.47550  0.86780  0.03490  Biso   1.000  H
  H23      1.0000 0.65750  0.97170  0.30020  Biso   1.000  H
  H24      1.0000 0.76580  0.07870  0.14290  Biso   1.000  H
  C1       1.0000 0.04210  0.39990  0.92420  Biso   1.000  C
  C2       1.0000 0.95390  0.32550  0.91520  Biso   1.000  C
  C3       1.0000 0.88470  0.23900  0.83070  Biso   1.000  C
  C4       1.0000 0.90390  0.22800  0.75610  Biso   1.000  C
  C5       1.0000 0.99350  0.30210  0.76560  Biso   1.000  C
  C6       1.0000 0.06280  0.38730  0.85030  Biso   1.000  C
  C7       1.0000 0.97880  0.99310  0.37810  Biso   1.000  C
  C8       1.0000 0.79080  0.15510  0.82010  Biso   1.000  C
  C9       1.0000 0.01750  0.28450  0.68600  Biso   1.000  C
  C10      1.0000 0.47570  0.11790  0.07580  Biso   1.000  C
  C11      1.0000 0.41030  0.03870  0.08480  Biso   1.000  C
  C12      1.0000 0.40830  0.05400  0.16930  Biso   1.000  C
  C13      1.0000 0.47190  0.14780  0.24390  Biso   1.000  C
  C14      1.0000 0.53650  0.22790  0.23440  Biso   1.000  C
  C15      1.0000 0.53700  0.21250  0.14970  Biso   1.000  C
  C16      1.0000 0.61500  0.60070  0.62190  Biso   1.000  C
  C17      1.0000 0.33500  0.97070  0.17990  Biso   1.000  C
  C18      1.0000 0.59850  0.33150  0.31400  Biso   1.000  C
  C19      1.0000 0.11790  0.04210  0.64220  Biso   1.000  C
  C20      1.0000 0.03870  0.95390  0.62840  Biso   1.000  C
  C21      1.0000 0.05400  0.88470  0.64570  Biso   1.000  C
  C22      1.0000 0.14780  0.90390  0.67590  Biso   1.000  C
  C23      1.0000 0.22790  0.99350  0.69140  Biso   1.000  C
  C24      1.0000 0.21250  0.06280  0.67550  Biso   1.000  C
  C25      1.0000 0.60070  0.97880  0.98570  Biso   1.000  C
  C26      1.0000 0.97070  0.79080  0.63570  Biso   1.000  C
  C27      1.0000 0.33150  0.01750  0.73300  Biso   1.000  C
  C28      1.0000 0.39990  0.47570  0.35780  Biso   1.000  C
  C29      1.0000 0.32550  0.41030  0.37160  Biso   1.000  C
  C30      1.0000 0.23900  0.40830  0.35430  Biso   1.000  C
  C31      1.0000 0.22800  0.47190  0.32410  Biso   1.000  C
  C32      1.0000 0.30210  0.53650  0.30860  Biso   1.000  C
  C33      1.0000 0.38730  0.53700  0.32450  Biso   1.000  C
  C34      1.0000 0.99310  0.61500  0.01430  Biso   1.000  C
  C35      1.0000 0.15510  0.33500  0.36430  Biso   1.000  C
  C36      1.0000 0.28450  0.59850  0.26700  Biso   1.000  C
  C37      1.0000 0.97570  0.89990  0.35780  Biso   1.000  C
  C38      1.0000 0.91030  0.82550  0.37160  Biso   1.000  C
  C39      1.0000 0.90830  0.73900  0.35430  Biso   1.000  C
  C40      1.0000 0.97190  0.72800  0.32410  Biso   1.000  C
  C41      1.0000 0.03650  0.80210  0.30860  Biso   1.000  C
  C42      1.0000 0.03700  0.88730  0.32450  Biso   1.000  C
  C43      1.0000 0.11500  0.49310  0.01430  Biso   1.000  C
  C44      1.0000 0.83500  0.65510  0.36430  Biso   1.000  C
  C45      1.0000 0.09850  0.78450  0.26700  Biso   1.000  C
  C46      1.0000 0.54210  0.61790  0.64220  Biso   1.000  C
  C47      1.0000 0.45390  0.53870  0.62840  Biso   1.000  C
  C48      1.0000 0.38470  0.55400  0.64570  Biso   1.000  C
  C49      1.0000 0.40390  0.64780  0.67590  Biso   1.000  C
  C50      1.0000 0.49350  0.72790  0.69140  Biso   1.000  C
  C51      1.0000 0.56280  0.71250  0.67550  Biso   1.000  C
  C52      1.0000 0.47880  0.10070  0.98570  Biso   1.000  C
  C53      1.0000 0.29080  0.47070  0.63570  Biso   1.000  C
  C54      1.0000 0.51750  0.83150  0.73300  Biso   1.000  C
  C55      1.0000 0.89990  0.54210  0.92420  Biso   1.000  C
  C56      1.0000 0.82550  0.45390  0.91520  Biso   1.000  C
  C57      1.0000 0.73900  0.38470  0.83070  Biso   1.000  C
  C58      1.0000 0.72800  0.40390  0.75610  Biso   1.000  C
  C59      1.0000 0.80210  0.49350  0.76560  Biso   1.000  C
  C60      1.0000 0.88730  0.56280  0.85030  Biso   1.000  C
  C61      1.0000 0.49310  0.47880  0.37810  Biso   1.000  C
  C62      1.0000 0.65510  0.29080  0.82010  Biso   1.000  C
  C63      1.0000 0.78450  0.51750  0.68600  Biso   1.000  C
  C64      1.0000 0.61790  0.97570  0.07580  Biso   1.000  C
  C65      1.0000 0.53870  0.91030  0.08480  Biso   1.000  C
  C66      1.0000 0.55400  0.90830  0.16930  Biso   1.000  C
  C67      1.0000 0.64780  0.97190  0.24390  Biso   1.000  C
  C68      1.0000 0.72790  0.03650  0.23440  Biso   1.000  C
  C69      1.0000 0.71250  0.03700  0.14970  Biso   1.000  C
  C70      1.0000 0.10070  0.11500  0.62190  Biso   1.000  C
  C71      1.0000 0.47070  0.83500  0.17990  Biso   1.000  C
  C72      1.0000 0.83150  0.09850  0.31400  Biso   1.000  C
  C73      1.0000 0.78190  0.94570  0.50000  Biso   1.000  C
  C74      1.0000 0.67160  0.78960  0.50000  Biso   1.000  C
  C75      1.0000 0.63130  0.91030  0.50000  Biso   1.000  C
  C76      1.0000 0.44570  0.28190  0.50000  Biso   1.000  C
  C77      1.0000 0.28960  0.17160  0.50000  Biso   1.000  C
  C78      1.0000 0.41030  0.13130  0.50000  Biso   1.000  C
  C79      1.0000 0.28190  0.78190  0.83620  Biso   1.000  C
  C80      1.0000 0.17160  0.67160  0.88200  Biso   1.000  C
  C81      1.0000 0.13130  0.63130  0.72100  Biso   1.000  C
  C82      1.0000 0.94570  0.44570  0.16380  Biso   1.000  C
  C83      1.0000 0.78960  0.28960  0.11800  Biso   1.000  C
  C84      1.0000 0.91030  0.41030  0.27900  Biso   1.000  C
  N1       1.0000 0.69510  0.87970  0.50000  Biso   1.000  N
  N2       1.0000 0.37970  0.19510  0.50000  Biso   1.000  N
  N3       1.0000 0.19510  0.69510  0.81540  Biso   1.000  N
  N4       1.0000 0.87970  0.37970  0.18460  Biso   1.000  N
  O1       1.0000 0.04040  0.05830  0.36570  Biso   1.000  O
  O2       1.0000 0.91890  0.99860  0.40370  Biso   1.000  O
  O3       1.0000 0.78810  0.15340  0.89390  Biso   1.000  O
  O4       1.0000 0.72390  0.09330  0.74380  Biso   1.000  O
  O5       1.0000 0.94430  0.22520  0.60790  Biso   1.000  O
  O6       1.0000 0.10950  0.33040  0.70610  Biso   1.000  O
  O7       1.0000 0.02450  0.28710  0.42620  Biso   1.000  O
  O8       1.0000 0.69260  0.67470  0.63430  Biso   1.000  O
  O9       1.0000 0.59490  0.51520  0.59630  Biso   1.000  O
  O10      1.0000 0.25950  0.89420  0.10610  Biso   1.000  O
  O11      1.0000 0.34950  0.98010  0.25620  Biso   1.000  O
  O12      1.0000 0.61730  0.33640  0.39210  Biso   1.000  O
  O13      1.0000 0.62430  0.40340  0.29390  Biso   1.000  O
  O14      1.0000 0.86090  0.59830  0.57380  Biso   1.000  O
  O15      1.0000 0.67470  0.04040  0.98210  Biso   1.000  O
  O16      1.0000 0.51520  0.91890  0.92030  Biso   1.000  O
  O17      1.0000 0.89420  0.78810  0.63470  Biso   1.000  O
  O18      1.0000 0.98010  0.72390  0.63060  Biso   1.000  O
  O19      1.0000 0.33640  0.94430  0.71910  Biso   1.000  O
  O20      1.0000 0.40340  0.10950  0.77910  Biso   1.000  O
  O21      1.0000 0.59830  0.02450  0.73740  Biso   1.000  O
  O22      1.0000 0.05830  0.69260  0.01790  Biso   1.000  O
  O23      1.0000 0.99860  0.59490  0.07970  Biso   1.000  O
  O24      1.0000 0.15340  0.25950  0.36530  Biso   1.000  O
  O25      1.0000 0.09330  0.34950  0.36940  Biso   1.000  O
  O26      1.0000 0.22520  0.61730  0.28090  Biso   1.000  O
  O27      1.0000 0.33040  0.62430  0.22090  Biso   1.000  O
  O28      1.0000 0.28710  0.86090  0.26260  Biso   1.000  O
  O29      1.0000 0.19260  0.55830  0.01790  Biso   1.000  O
  O30      1.0000 0.09490  0.49860  0.07970  Biso   1.000  O
  O31      1.0000 0.75950  0.65340  0.36530  Biso   1.000  O
  O32      1.0000 0.84950  0.59330  0.36940  Biso   1.000  O
  O33      1.0000 0.11730  0.72520  0.28090  Biso   1.000  O
  O34      1.0000 0.12430  0.83040  0.22090  Biso   1.000  O
  O35      1.0000 0.36090  0.78710  0.26260  Biso   1.000  O
  O36      1.0000 0.54040  0.17470  0.98210  Biso   1.000  O
  O37      1.0000 0.41890  0.01520  0.92030  Biso   1.000  O
  O38      1.0000 0.28810  0.39420  0.63470  Biso   1.000  O
  O39      1.0000 0.22390  0.48010  0.63060  Biso   1.000  O
  O40      1.0000 0.44430  0.83640  0.71910  Biso   1.000  O
  O41      1.0000 0.60950  0.90340  0.77910  Biso   1.000  O
  O42      1.0000 0.52450  0.09830  0.73740  Biso   1.000  O
  O43      1.0000 0.55830  0.54040  0.36570  Biso   1.000  O
  O44      1.0000 0.49860  0.41890  0.40370  Biso   1.000  O
  O45      1.0000 0.65340  0.28810  0.89390  Biso   1.000  O
  O46      1.0000 0.59330  0.22390  0.74380  Biso   1.000  O
  O47      1.0000 0.72520  0.44430  0.60790  Biso   1.000  O
  O48      1.0000 0.83040  0.60950  0.70610  Biso   1.000  O
  O49      1.0000 0.78710  0.52450  0.42620  Biso   1.000  O
  O50      1.0000 0.17470  0.19260  0.63430  Biso   1.000  O
  O51      1.0000 0.01520  0.09490  0.59630  Biso   1.000  O
  O52      1.0000 0.39420  0.75950  0.10610  Biso   1.000  O
  O53      1.0000 0.48010  0.84950  0.25620  Biso   1.000  O
  O54      1.0000 0.83640  0.11730  0.39210  Biso   1.000  O
  O55      1.0000 0.90340  0.12430  0.29390  Biso   1.000  O
  O56      1.0000 0.09830  0.36090  0.57380  Biso   1.000  O
  O57      1.0000 0.05109  0.23111  0.50000  Biso   1.000  O
  O58      1.0000 0.80340  0.01660  0.50000  Biso   1.000  O
  O59      1.0000 0.73111  0.55109  0.50000  Biso   1.000  O
  O60      1.0000 0.51660  0.30340  0.50000  Biso   1.000  O
  O61      1.0000 0.55109  0.05109  0.81998  Biso   1.000  O
  O62      1.0000 0.30340  0.80340  0.78680  Biso   1.000  O
  O63      1.0000 0.23111  0.73111  0.18002  Biso   1.000  O
  O64      1.0000 0.01660  0.51660  0.21320  Biso   1.000  O
