data_image0
_cell_length_a       10.5573
_cell_length_b       14.4794
_cell_length_c       23.316
_cell_angle_alpha    107.316
_cell_angle_beta     90
_cell_angle_gamma    90

_symmetry_space_group_name_H-M    P 1
_symmetry_int_tables_number       1

loop_
  _symmetry_equiv_pos_as_xyz
  'x, y, z'

loop_
  _atom_site_label
  _atom_site_occupancy
  _atom_site_fract_x
  _atom_site_fract_y
  _atom_site_fract_z
  _atom_site_thermal_displace_type
  _atom_site_B_iso_or_equiv
  _atom_site_type_symbol
  Tb1      1.0000 0.04805  0.42591  0.76997  Biso   1.000  Tb
  Tb2      1.0000 0.04805  0.07409  0.73003  Biso   1.000  Tb
  Tb3      1.0000 0.95195  0.57409  0.23003  Biso   1.000  Tb
  Tb4      1.0000 0.95195  0.92591  0.26997  Biso   1.000  Tb
  P1       1.0000 0.83973  0.59847  0.87798  Biso   1.000  P
  P2       1.0000 0.83973  0.90153  0.62202  Biso   1.000  P
  P3       1.0000 0.16027  0.40153  0.12202  Biso   1.000  P
  P4       1.0000 0.16027  0.09847  0.37798  Biso   1.000  P
  H1       1.0000 0.70320  0.75000  0.84620  Biso   1.000  H
  H2       1.0000 0.71560  0.46270  0.78490  Biso   1.000  H
  H3       1.0000 0.86070  0.78220  0.96780  Biso   1.000  H
  H4       1.0000 0.88200  0.83330  0.07020  Biso   1.000  H
  H5       1.0000 0.85050  0.50810  0.97050  Biso   1.000  H
  H6       1.0000 0.51050  0.42170  0.75730  Biso   1.000  H
  H7       1.0000 0.38780  0.62050  0.90590  Biso   1.000  H
  H8       1.0000 0.59500  0.66280  0.93310  Biso   1.000  H
  H9       1.0000 0.06700  0.67940  0.85180  Biso   1.000  H
  H10      1.0000 0.12490  0.80990  0.82240  Biso   1.000  H
  H11      1.0000 0.76080  0.88120  0.81510  Biso   1.000  H
  H12      1.0000 0.87610  0.56030  0.07350  Biso   1.000  H
  H13      1.0000 0.70320  0.75000  0.65380  Biso   1.000  H
  H14      1.0000 0.71560  0.03730  0.71510  Biso   1.000  H
  H15      1.0000 0.86070  0.71780  0.53220  Biso   1.000  H
  H16      1.0000 0.88200  0.66670  0.42980  Biso   1.000  H
  H17      1.0000 0.85050  0.99190  0.52950  Biso   1.000  H
  H18      1.0000 0.51050  0.07830  0.74270  Biso   1.000  H
  H19      1.0000 0.38780  0.87950  0.59410  Biso   1.000  H
  H20      1.0000 0.59500  0.83720  0.56690  Biso   1.000  H
  H21      1.0000 0.06700  0.82060  0.64820  Biso   1.000  H
  H22      1.0000 0.12490  0.69010  0.67760  Biso   1.000  H
  H23      1.0000 0.76080  0.61880  0.68490  Biso   1.000  H
  H24      1.0000 0.87610  0.93970  0.42650  Biso   1.000  H
  H25      1.0000 0.29680  0.25000  0.15380  Biso   1.000  H
  H26      1.0000 0.28440  0.53730  0.21510  Biso   1.000  H
  H27      1.0000 0.13930  0.21780  0.03220  Biso   1.000  H
  H28      1.0000 0.11800  0.16670  0.92980  Biso   1.000  H
  H29      1.0000 0.14950  0.49190  0.02950  Biso   1.000  H
  H30      1.0000 0.48950  0.57830  0.24270  Biso   1.000  H
  H31      1.0000 0.61220  0.37950  0.09410  Biso   1.000  H
  H32      1.0000 0.40500  0.33720  0.06690  Biso   1.000  H
  H33      1.0000 0.93300  0.32060  0.14820  Biso   1.000  H
  H34      1.0000 0.87510  0.19010  0.17760  Biso   1.000  H
  H35      1.0000 0.23920  0.11880  0.18490  Biso   1.000  H
  H36      1.0000 0.12390  0.43970  0.92650  Biso   1.000  H
  H37      1.0000 0.29680  0.25000  0.34620  Biso   1.000  H
  H38      1.0000 0.28440  0.96270  0.28490  Biso   1.000  H
  H39      1.0000 0.13930  0.28220  0.46780  Biso   1.000  H
  H40      1.0000 0.11800  0.33330  0.57020  Biso   1.000  H
  H41      1.0000 0.14950  0.00810  0.47050  Biso   1.000  H
  H42      1.0000 0.48950  0.92170  0.25730  Biso   1.000  H
  H43      1.0000 0.61220  0.12050  0.40590  Biso   1.000  H
  H44      1.0000 0.40500  0.16280  0.43310  Biso   1.000  H
  H45      1.0000 0.93300  0.17940  0.35180  Biso   1.000  H
  H46      1.0000 0.87510  0.30990  0.32240  Biso   1.000  H
  H47      1.0000 0.23920  0.38120  0.31510  Biso   1.000  H
  H48      1.0000 0.12390  0.06030  0.57350  Biso   1.000  H
  H49      1.0000 0.73210  0.25000  0.75000  Biso   1.000  H
  H50      1.0000 0.26790  0.75000  0.25000  Biso   1.000  H
  C1       1.0000 0.87840  0.70010  0.85210  Biso   1.000  C
  C2       1.0000 0.78840  0.76150  0.84100  Biso   1.000  C
  C3       1.0000 0.67800  0.56790  0.86160  Biso   1.000  C
  C4       1.0000 0.64990  0.49510  0.80930  Biso   1.000  C
  C5       1.0000 0.85550  0.63970  0.95820  Biso   1.000  C
  C6       1.0000 0.86400  0.73690  0.98880  Biso   1.000  C
  C7       1.0000 0.87720  0.76740  0.05020  Biso   1.000  C
  C8       1.0000 0.85850  0.57390  0.99030  Biso   1.000  C
  C9       1.0000 0.52710  0.47020  0.79290  Biso   1.000  C
  C10      1.0000 0.42610  0.51670  0.82910  Biso   1.000  C
  C11      1.0000 0.45340  0.58860  0.88130  Biso   1.000  C
  C12      1.0000 0.57810  0.61420  0.89770  Biso   1.000  C
  C13      1.0000 0.29340  0.48670  0.80910  Biso   1.000  C
  C14      1.0000 0.00480  0.71990  0.84440  Biso   1.000  C
  C15      1.0000 0.03960  0.79720  0.82630  Biso   1.000  C
  C16      1.0000 0.94880  0.85690  0.81370  Biso   1.000  C
  C17      1.0000 0.82260  0.84010  0.82210  Biso   1.000  C
  C18      1.0000 0.98470  0.93950  0.78990  Biso   1.000  C
  C19      1.0000 0.87320  0.60520  0.05220  Biso   1.000  C
  C20      1.0000 0.88350  0.70250  0.08250  Biso   1.000  C
  C21      1.0000 0.90040  0.73810  0.14950  Biso   1.000  C
  C22      1.0000 0.87840  0.79990  0.64790  Biso   1.000  C
  C23      1.0000 0.78840  0.73850  0.65900  Biso   1.000  C
  C24      1.0000 0.67800  0.93210  0.63840  Biso   1.000  C
  C25      1.0000 0.64990  0.00490  0.69070  Biso   1.000  C
  C26      1.0000 0.85550  0.86030  0.54180  Biso   1.000  C
  C27      1.0000 0.86400  0.76310  0.51120  Biso   1.000  C
  C28      1.0000 0.87720  0.73260  0.44980  Biso   1.000  C
  C29      1.0000 0.85850  0.92610  0.50970  Biso   1.000  C
  C30      1.0000 0.52710  0.02980  0.70710  Biso   1.000  C
  C31      1.0000 0.42610  0.98330  0.67090  Biso   1.000  C
  C32      1.0000 0.45340  0.91140  0.61870  Biso   1.000  C
  C33      1.0000 0.57810  0.88580  0.60230  Biso   1.000  C
  C34      1.0000 0.29340  0.01330  0.69090  Biso   1.000  C
  C35      1.0000 0.00480  0.78010  0.65560  Biso   1.000  C
  C36      1.0000 0.03960  0.70280  0.67370  Biso   1.000  C
  C37      1.0000 0.94880  0.64310  0.68630  Biso   1.000  C
  C38      1.0000 0.82260  0.65990  0.67790  Biso   1.000  C
  C39      1.0000 0.98470  0.56050  0.71010  Biso   1.000  C
  C40      1.0000 0.87320  0.89480  0.44780  Biso   1.000  C
  C41      1.0000 0.88350  0.79750  0.41750  Biso   1.000  C
  C42      1.0000 0.90040  0.76190  0.35050  Biso   1.000  C
  C43      1.0000 0.12160  0.29990  0.14790  Biso   1.000  C
  C44      1.0000 0.21160  0.23850  0.15900  Biso   1.000  C
  C45      1.0000 0.32200  0.43210  0.13840  Biso   1.000  C
  C46      1.0000 0.35010  0.50490  0.19070  Biso   1.000  C
  C47      1.0000 0.14450  0.36030  0.04180  Biso   1.000  C
  C48      1.0000 0.13600  0.26310  0.01120  Biso   1.000  C
  C49      1.0000 0.12280  0.23260  0.94980  Biso   1.000  C
  C50      1.0000 0.14150  0.42610  0.00970  Biso   1.000  C
  C51      1.0000 0.47290  0.52980  0.20710  Biso   1.000  C
  C52      1.0000 0.57390  0.48330  0.17090  Biso   1.000  C
  C53      1.0000 0.54660  0.41140  0.11870  Biso   1.000  C
  C54      1.0000 0.42190  0.38580  0.10230  Biso   1.000  C
  C55      1.0000 0.70660  0.51330  0.19090  Biso   1.000  C
  C56      1.0000 0.99520  0.28010  0.15560  Biso   1.000  C
  C57      1.0000 0.96040  0.20280  0.17370  Biso   1.000  C
  C58      1.0000 0.05120  0.14310  0.18630  Biso   1.000  C
  C59      1.0000 0.17740  0.15990  0.17790  Biso   1.000  C
  C60      1.0000 0.01530  0.06050  0.21010  Biso   1.000  C
  C61      1.0000 0.12680  0.39480  0.94780  Biso   1.000  C
  C62      1.0000 0.11650  0.29750  0.91750  Biso   1.000  C
  C63      1.0000 0.09960  0.26190  0.85050  Biso   1.000  C
  C64      1.0000 0.12160  0.20010  0.35210  Biso   1.000  C
  C65      1.0000 0.21160  0.26150  0.34100  Biso   1.000  C
  C66      1.0000 0.32200  0.06790  0.36160  Biso   1.000  C
  C67      1.0000 0.35010  0.99510  0.30930  Biso   1.000  C
  C68      1.0000 0.14450  0.13970  0.45820  Biso   1.000  C
  C69      1.0000 0.13600  0.23690  0.48880  Biso   1.000  C
  C70      1.0000 0.12280  0.26740  0.55020  Biso   1.000  C
  C71      1.0000 0.14150  0.07390  0.49030  Biso   1.000  C
  C72      1.0000 0.47290  0.97020  0.29290  Biso   1.000  C
  C73      1.0000 0.57390  0.01670  0.32910  Biso   1.000  C
  C74      1.0000 0.54660  0.08860  0.38130  Biso   1.000  C
  C75      1.0000 0.42190  0.11420  0.39770  Biso   1.000  C
  C76      1.0000 0.70660  0.98670  0.30910  Biso   1.000  C
  C77      1.0000 0.99520  0.21990  0.34440  Biso   1.000  C
  C78      1.0000 0.96040  0.29720  0.32630  Biso   1.000  C
  C79      1.0000 0.05120  0.35690  0.31370  Biso   1.000  C
  C80      1.0000 0.17740  0.34010  0.32210  Biso   1.000  C
  C81      1.0000 0.01530  0.43950  0.28990  Biso   1.000  C
  C82      1.0000 0.12680  0.10520  0.55220  Biso   1.000  C
  C83      1.0000 0.11650  0.20250  0.58250  Biso   1.000  C
  C84      1.0000 0.09960  0.23810  0.64950  Biso   1.000  C
  C85      1.0000 0.82020  0.25000  0.75000  Biso   1.000  C
  C86      1.0000 0.17980  0.75000  0.25000  Biso   1.000  C
  O1       1.0000 0.92480  0.51390  0.85051  Biso   1.000  O
  O2       1.0000 0.20270  0.53000  0.84134  Biso   1.000  O
  O3       1.0000 0.27530  0.41940  0.76172  Biso   1.000  O
  O4       1.0000 0.09930  0.94960  0.77801  Biso   1.000  O
  O5       1.0000 0.90170  0.99370  0.77938  Biso   1.000  O
  O6       1.0000 0.90100  0.67790  0.17739  Biso   1.000  O
  O7       1.0000 0.91080  0.82700  0.17287  Biso   1.000  O
  O8       1.0000 0.86720  0.32670  0.75183  Biso   1.000  O
  O9       1.0000 0.92480  0.98610  0.64949  Biso   1.000  O
  O10      1.0000 0.20270  0.97000  0.65866  Biso   1.000  O
  O11      1.0000 0.27530  0.08060  0.73828  Biso   1.000  O
  O12      1.0000 0.09930  0.55040  0.72199  Biso   1.000  O
  O13      1.0000 0.90170  0.50630  0.72062  Biso   1.000  O
  O14      1.0000 0.90100  0.82210  0.32261  Biso   1.000  O
  O15      1.0000 0.91080  0.67300  0.32713  Biso   1.000  O
  O16      1.0000 0.86720  0.17330  0.74817  Biso   1.000  O
  O17      1.0000 0.07520  0.48610  0.14949  Biso   1.000  O
  O18      1.0000 0.79730  0.47000  0.15866  Biso   1.000  O
  O19      1.0000 0.72470  0.58060  0.23828  Biso   1.000  O
  O20      1.0000 0.90070  0.05040  0.22199  Biso   1.000  O
  O21      1.0000 0.09830  0.00630  0.22062  Biso   1.000  O
  O22      1.0000 0.09900  0.32210  0.82261  Biso   1.000  O
  O23      1.0000 0.08920  0.17300  0.82713  Biso   1.000  O
  O24      1.0000 0.13280  0.67330  0.24817  Biso   1.000  O
  O25      1.0000 0.07520  0.01390  0.35051  Biso   1.000  O
  O26      1.0000 0.79730  0.03000  0.34134  Biso   1.000  O
  O27      1.0000 0.72470  0.91940  0.26172  Biso   1.000  O
  O28      1.0000 0.90070  0.44960  0.27801  Biso   1.000  O
  O29      1.0000 0.09830  0.49370  0.27938  Biso   1.000  O
  O30      1.0000 0.09900  0.17790  0.67739  Biso   1.000  O
  O31      1.0000 0.08920  0.32700  0.67287  Biso   1.000  O
  O32      1.0000 0.13280  0.82670  0.25183  Biso   1.000  O
