data_image0
_cell_length_a       9.9817
_cell_length_b       16.6382
_cell_length_c       17.0675
_cell_angle_alpha    100.544
_cell_angle_beta     107.003
_cell_angle_gamma    90

_symmetry_space_group_name_H-M    P 1
_symmetry_int_tables_number       1

loop_
  _symmetry_equiv_pos_as_xyz
  'x, y, z'

loop_
  _atom_site_label
  _atom_site_occupancy
  _atom_site_fract_x
  _atom_site_fract_y
  _atom_site_fract_z
  _atom_site_thermal_displace_type
  _atom_site_B_iso_or_equiv
  _atom_site_type_symbol
  Cd1      1.0000 0.00000  0.00000  0.00000  Biso   1.000  Cd
  Cd2      1.0000 0.00000  0.50000  0.00000  Biso   1.000  Cd
  H1       1.0000 0.15180  0.83300  0.97380  Biso   1.000  H
  H2       1.0000 0.78080  0.86570  0.84800  Biso   1.000  H
  H3       1.0000 0.77500  0.75060  0.75140  Biso   1.000  H
  H4       1.0000 0.15610  0.71440  0.88580  Biso   1.000  H
  H5       1.0000 0.05240  0.45580  0.62740  Biso   1.000  H
  H6       1.0000 0.09830  0.51640  0.71360  Biso   1.000  H
  H7       1.0000 0.09450  0.58630  0.57620  Biso   1.000  H
  H8       1.0000 0.20100  0.60720  0.66600  Biso   1.000  H
  H9       1.0000 0.89470  0.56390  0.49180  Biso   1.000  H
  H10      1.0000 0.74250  0.58870  0.49020  Biso   1.000  H
  H11      1.0000 0.71940  0.49990  0.57040  Biso   1.000  H
  H12      1.0000 0.83430  0.44450  0.54720  Biso   1.000  H
  H13      1.0000 0.67240  0.49040  0.70160  Biso   1.000  H
  H14      1.0000 0.50410  0.60910  0.87440  Biso   1.000  H
  H15      1.0000 0.70820  0.59480  0.97300  Biso   1.000  H
  H16      1.0000 0.87450  0.48620  0.80820  Biso   1.000  H
  H17      1.0000 0.05240  0.62010  0.76880  Biso   1.000  H
  H18      1.0000 0.38100  0.59180  0.72880  Biso   1.000  H
  H19      1.0000 0.17800  0.66700  0.02620  Biso   1.000  H
  H20      1.0000 0.93280  0.63430  0.15200  Biso   1.000  H
  H21      1.0000 0.02360  0.74940  0.24860  Biso   1.000  H
  H22      1.0000 0.27030  0.78560  0.11420  Biso   1.000  H
  H23      1.0000 0.42500  0.04420  0.37260  Biso   1.000  H
  H24      1.0000 0.38470  0.98360  0.28640  Biso   1.000  H
  H25      1.0000 0.51830  0.91370  0.42380  Biso   1.000  H
  H26      1.0000 0.53500  0.89280  0.33400  Biso   1.000  H
  H27      1.0000 0.40290  0.93610  0.50820  Biso   1.000  H
  H28      1.0000 0.25230  0.91130  0.50980  Biso   1.000  H
  H29      1.0000 0.14900  0.00010  0.42960  Biso   1.000  H
  H30      1.0000 0.28710  0.05550  0.45280  Biso   1.000  H
  H31      1.0000 0.97080  0.00960  0.29840  Biso   1.000  H
  H32      1.0000 0.62970  0.89090  0.12560  Biso   1.000  H
  H33      1.0000 0.73520  0.90520  0.02700  Biso   1.000  H
  H34      1.0000 0.06630  0.01380  0.19180  Biso   1.000  H
  H35      1.0000 0.28360  0.87990  0.23120  Biso   1.000  H
  H36      1.0000 0.65220  0.90820  0.27120  Biso   1.000  H
  H37      1.0000 0.84820  0.16700  0.02620  Biso   1.000  H
  H38      1.0000 0.21920  0.13430  0.15200  Biso   1.000  H
  H39      1.0000 0.22500  0.24940  0.24860  Biso   1.000  H
  H40      1.0000 0.84390  0.28560  0.11420  Biso   1.000  H
  H41      1.0000 0.94760  0.54420  0.37260  Biso   1.000  H
  H42      1.0000 0.90170  0.48360  0.28640  Biso   1.000  H
  H43      1.0000 0.90550  0.41370  0.42380  Biso   1.000  H
  H44      1.0000 0.79900  0.39280  0.33400  Biso   1.000  H
  H45      1.0000 0.10530  0.43610  0.50820  Biso   1.000  H
  H46      1.0000 0.25750  0.41130  0.50980  Biso   1.000  H
  H47      1.0000 0.28060  0.50010  0.42960  Biso   1.000  H
  H48      1.0000 0.16570  0.55550  0.45280  Biso   1.000  H
  H49      1.0000 0.32760  0.50960  0.29840  Biso   1.000  H
  H50      1.0000 0.49590  0.39090  0.12560  Biso   1.000  H
  H51      1.0000 0.29180  0.40520  0.02700  Biso   1.000  H
  H52      1.0000 0.12550  0.51380  0.19180  Biso   1.000  H
  H53      1.0000 0.94760  0.37990  0.23120  Biso   1.000  H
  H54      1.0000 0.61900  0.40820  0.27120  Biso   1.000  H
  H55      1.0000 0.82200  0.33300  0.97380  Biso   1.000  H
  H56      1.0000 0.06720  0.36570  0.84800  Biso   1.000  H
  H57      1.0000 0.97640  0.25060  0.75140  Biso   1.000  H
  H58      1.0000 0.72970  0.21440  0.88580  Biso   1.000  H
  H59      1.0000 0.57500  0.95580  0.62740  Biso   1.000  H
  H60      1.0000 0.61530  0.01640  0.71360  Biso   1.000  H
  H61      1.0000 0.48170  0.08630  0.57620  Biso   1.000  H
  H62      1.0000 0.46500  0.10720  0.66600  Biso   1.000  H
  H63      1.0000 0.59710  0.06390  0.49180  Biso   1.000  H
  H64      1.0000 0.74770  0.08870  0.49020  Biso   1.000  H
  H65      1.0000 0.85100  0.99990  0.57040  Biso   1.000  H
  H66      1.0000 0.71290  0.94450  0.54720  Biso   1.000  H
  H67      1.0000 0.02920  0.99040  0.70160  Biso   1.000  H
  H68      1.0000 0.37030  0.10910  0.87440  Biso   1.000  H
  H69      1.0000 0.26480  0.09480  0.97300  Biso   1.000  H
  H70      1.0000 0.93370  0.98620  0.80820  Biso   1.000  H
  H71      1.0000 0.71640  0.12010  0.76880  Biso   1.000  H
  H72      1.0000 0.34780  0.09180  0.72880  Biso   1.000  H
  C1       1.0000 0.07350  0.81690  0.92780  Biso   1.000  C
  C2       1.0000 0.86100  0.83600  0.85500  Biso   1.000  C
  C3       1.0000 0.85480  0.76550  0.79700  Biso   1.000  C
  C4       1.0000 0.07700  0.74500  0.87480  Biso   1.000  C
  C5       1.0000 0.96737  0.71820  0.80734  Biso   1.000  C
  C6       1.0000 0.87883  0.61120  0.68046  Biso   1.000  C
  C7       1.0000 0.05671  0.51290  0.65402  Biso   1.000  C
  C8       1.0000 0.15204  0.56260  0.62168  Biso   1.000  C
  C9       1.0000 0.80177  0.54270  0.48754  Biso   1.000  C
  C10      1.0000 0.81084  0.50080  0.56128  Biso   1.000  C
  C11      1.0000 0.39110  0.50670  0.63700  Biso   1.000  C
  C12      1.0000 0.67675  0.51280  0.75650  Biso   1.000  C
  C13      1.0000 0.56324  0.54930  0.77508  Biso   1.000  C
  C14      1.0000 0.57700  0.58240  0.85900  Biso   1.000  C
  C15      1.0000 0.70100  0.57430  0.91740  Biso   1.000  C
  C16      1.0000 0.79789  0.51020  0.82158  Biso   1.000  C
  C17      1.0000 0.14570  0.68310  0.07220  Biso   1.000  C
  C18      1.0000 0.00600  0.66400  0.14500  Biso   1.000  C
  C19      1.0000 0.05780  0.73450  0.20300  Biso   1.000  C
  C20      1.0000 0.20220  0.75500  0.12520  Biso   1.000  C
  C21      1.0000 0.16003  0.78180  0.19266  Biso   1.000  C
  C22      1.0000 0.19837  0.88880  0.31954  Biso   1.000  C
  C23      1.0000 0.40269  0.98710  0.34598  Biso   1.000  C
  C24      1.0000 0.53036  0.93740  0.37832  Biso   1.000  C
  C25      1.0000 0.31423  0.95730  0.51246  Biso   1.000  C
  C26      1.0000 0.24956  0.99920  0.43872  Biso   1.000  C
  C27      1.0000 0.75410  0.99330  0.36300  Biso   1.000  C
  C28      1.0000 0.92025  0.98720  0.24350  Biso   1.000  C
  C29      1.0000 0.78816  0.95070  0.22492  Biso   1.000  C
  C30      1.0000 0.71800  0.91760  0.14100  Biso   1.000  C
  C31      1.0000 0.78360  0.92570  0.08260  Biso   1.000  C
  C32      1.0000 0.97631  0.98980  0.17842  Biso   1.000  C
  C33      1.0000 0.92650  0.18310  0.07220  Biso   1.000  C
  C34      1.0000 0.13900  0.16400  0.14500  Biso   1.000  C
  C35      1.0000 0.14520  0.23450  0.20300  Biso   1.000  C
  C36      1.0000 0.92300  0.25500  0.12520  Biso   1.000  C
  C37      1.0000 0.03263  0.28180  0.19266  Biso   1.000  C
  C38      1.0000 0.12117  0.38880  0.31954  Biso   1.000  C
  C39      1.0000 0.94329  0.48710  0.34598  Biso   1.000  C
  C40      1.0000 0.84796  0.43740  0.37832  Biso   1.000  C
  C41      1.0000 0.19823  0.45730  0.51246  Biso   1.000  C
  C42      1.0000 0.18916  0.49920  0.43872  Biso   1.000  C
  C43      1.0000 0.60890  0.49330  0.36300  Biso   1.000  C
  C44      1.0000 0.32325  0.48720  0.24350  Biso   1.000  C
  C45      1.0000 0.43676  0.45070  0.22492  Biso   1.000  C
  C46      1.0000 0.42300  0.41760  0.14100  Biso   1.000  C
  C47      1.0000 0.29900  0.42570  0.08260  Biso   1.000  C
  C48      1.0000 0.20211  0.48980  0.17842  Biso   1.000  C
  C49      1.0000 0.85430  0.31690  0.92780  Biso   1.000  C
  C50      1.0000 0.99400  0.33600  0.85500  Biso   1.000  C
  C51      1.0000 0.94220  0.26550  0.79700  Biso   1.000  C
  C52      1.0000 0.79780  0.24500  0.87480  Biso   1.000  C
  C53      1.0000 0.83997  0.21820  0.80734  Biso   1.000  C
  C54      1.0000 0.80163  0.11120  0.68046  Biso   1.000  C
  C55      1.0000 0.59731  0.01290  0.65402  Biso   1.000  C
  C56      1.0000 0.46964  0.06260  0.62168  Biso   1.000  C
  C57      1.0000 0.68577  0.04270  0.48754  Biso   1.000  C
  C58      1.0000 0.75044  0.00080  0.56128  Biso   1.000  C
  C59      1.0000 0.24590  0.00670  0.63700  Biso   1.000  C
  C60      1.0000 0.07975  0.01280  0.75650  Biso   1.000  C
  C61      1.0000 0.21184  0.04930  0.77508  Biso   1.000  C
  C62      1.0000 0.28200  0.08240  0.85900  Biso   1.000  C
  C63      1.0000 0.21640  0.07430  0.91740  Biso   1.000  C
  C64      1.0000 0.02369  0.01020  0.82158  Biso   1.000  C
  Br1      1.0000 0.28028  0.97159  0.09644  Biso   1.000  Br
  Br2      1.0000 0.18384  0.52841  0.90356  Biso   1.000  Br
  Br3      1.0000 0.71972  0.02841  0.90356  Biso   1.000  Br
  Br4      1.0000 0.81616  0.47159  0.09644  Biso   1.000  Br
  N1       1.0000 0.96891  0.86480  0.91862  Biso   1.000  N
  N2       1.0000 0.91435  0.54060  0.63870  Biso   1.000  N
  N3       1.0000 0.97714  0.64580  0.75408  Biso   1.000  N
  N4       1.0000 0.81167  0.53930  0.90074  Biso   1.000  N
  N5       1.0000 0.25467  0.51280  0.59274  Biso   1.000  N
  N6       1.0000 0.43571  0.55530  0.71562  Biso   1.000  N
  N7       1.0000 0.05029  0.63520  0.08138  Biso   1.000  N
  N8       1.0000 0.27565  0.95940  0.36130  Biso   1.000  N
  N9       1.0000 0.22306  0.85420  0.24592  Biso   1.000  N
  N10      1.0000 0.91093  0.96070  0.09926  Biso   1.000  N
  N11      1.0000 0.66193  0.98720  0.40726  Biso   1.000  N
  N12      1.0000 0.72009  0.94470  0.28438  Biso   1.000  N
  N13      1.0000 0.03109  0.13520  0.08138  Biso   1.000  N
  N14      1.0000 0.08565  0.45940  0.36130  Biso   1.000  N
  N15      1.0000 0.02286  0.35420  0.24592  Biso   1.000  N
  N16      1.0000 0.18833  0.46070  0.09926  Biso   1.000  N
  N17      1.0000 0.74533  0.48720  0.40726  Biso   1.000  N
  N18      1.0000 0.56429  0.44470  0.28438  Biso   1.000  N
  N19      1.0000 0.94971  0.36480  0.91862  Biso   1.000  N
  N20      1.0000 0.72435  0.04060  0.63870  Biso   1.000  N
  N21      1.0000 0.77694  0.14580  0.75408  Biso   1.000  N
  N22      1.0000 0.08907  0.03930  0.90074  Biso   1.000  N
  N23      1.0000 0.33807  0.01280  0.59274  Biso   1.000  N
  N24      1.0000 0.27991  0.05530  0.71562  Biso   1.000  N
  O1       1.0000 0.76735  0.64150  0.65470  Biso   1.000  O
  O2       1.0000 0.46734  0.46000  0.60948  Biso   1.000  O
  O3       1.0000 0.11265  0.85850  0.34530  Biso   1.000  O
  O4       1.0000 0.85786  0.04000  0.39052  Biso   1.000  O
  O5       1.0000 0.23265  0.35850  0.34530  Biso   1.000  O
  O6       1.0000 0.53266  0.54000  0.39052  Biso   1.000  O
  O7       1.0000 0.88735  0.14150  0.65470  Biso   1.000  O
  O8       1.0000 0.14214  0.96000  0.60948  Biso   1.000  O
