data_image0
_cell_length_a       9.84632
_cell_length_b       16.8512
_cell_length_c       17.2543
_cell_angle_alpha    101.219
_cell_angle_beta     106.579
_cell_angle_gamma    90

_symmetry_space_group_name_H-M    P 1
_symmetry_int_tables_number       1

loop_
  _symmetry_equiv_pos_as_xyz
  'x, y, z'

loop_
  _atom_site_label
  _atom_site_occupancy
  _atom_site_fract_x
  _atom_site_fract_y
  _atom_site_fract_z
  _atom_site_thermal_displace_type
  _atom_site_B_iso_or_equiv
  _atom_site_type_symbol
  Cd1      1.0000 0.00000  0.50000  0.00000  Biso   1.000  Cd
  Cd2      1.0000 0.00000  0.00000  0.00000  Biso   1.000  Cd
  H1       1.0000 0.28620  0.87700  0.23380  Biso   1.000  H
  H2       1.0000 0.66000  0.90820  0.27320  Biso   1.000  H
  H3       1.0000 0.42600  0.04160  0.37380  Biso   1.000  H
  H4       1.0000 0.38680  0.98060  0.28880  Biso   1.000  H
  H5       1.0000 0.52360  0.91410  0.42500  Biso   1.000  H
  H6       1.0000 0.54110  0.89260  0.33580  Biso   1.000  H
  H7       1.0000 0.14490  0.99770  0.43000  Biso   1.000  H
  H8       1.0000 0.28470  0.05290  0.45380  Biso   1.000  H
  H9       1.0000 0.75220  0.08920  0.49100  Biso   1.000  H
  H10      1.0000 0.59920  0.06430  0.49180  Biso   1.000  H
  H11      1.0000 0.92950  0.63500  0.15400  Biso   1.000  H
  H12      1.0000 0.01560  0.75030  0.24740  Biso   1.000  H
  H13      1.0000 0.26670  0.78520  0.11580  Biso   1.000  H
  H14      1.0000 0.16340  0.66970  0.02480  Biso   1.000  H
  H15      1.0000 0.07180  0.02130  0.19180  Biso   1.000  H
  H16      1.0000 0.97910  0.01460  0.29840  Biso   1.000  H
  H17      1.0000 0.64250  0.88600  0.13200  Biso   1.000  H
  H18      1.0000 0.74470  0.89790  0.03220  Biso   1.000  H
  H19      1.0000 0.05240  0.62300  0.76620  Biso   1.000  H
  H20      1.0000 0.38680  0.59180  0.72680  Biso   1.000  H
  H21      1.0000 0.05220  0.45840  0.62620  Biso   1.000  H
  H22      1.0000 0.09800  0.51940  0.71120  Biso   1.000  H
  H23      1.0000 0.09860  0.58590  0.57500  Biso   1.000  H
  H24      1.0000 0.20530  0.60740  0.66420  Biso   1.000  H
  H25      1.0000 0.71490  0.50230  0.57000  Biso   1.000  H
  H26      1.0000 0.83090  0.44710  0.54620  Biso   1.000  H
  H27      1.0000 0.26120  0.41080  0.50900  Biso   1.000  H
  H28      1.0000 0.10740  0.43570  0.50820  Biso   1.000  H
  H29      1.0000 0.77550  0.86500  0.84600  Biso   1.000  H
  H30      1.0000 0.76820  0.74970  0.75260  Biso   1.000  H
  H31      1.0000 0.15090  0.71480  0.88420  Biso   1.000  H
  H32      1.0000 0.13860  0.83030  0.97520  Biso   1.000  H
  H33      1.0000 0.88000  0.47870  0.80820  Biso   1.000  H
  H34      1.0000 0.68070  0.48540  0.70160  Biso   1.000  H
  H35      1.0000 0.51050  0.61400  0.86800  Biso   1.000  H
  H36      1.0000 0.71250  0.60210  0.96780  Biso   1.000  H
  H37      1.0000 0.71380  0.12300  0.76620  Biso   1.000  H
  H38      1.0000 0.34000  0.09180  0.72680  Biso   1.000  H
  H39      1.0000 0.57400  0.95840  0.62620  Biso   1.000  H
  H40      1.0000 0.61320  0.01940  0.71120  Biso   1.000  H
  H41      1.0000 0.47640  0.08590  0.57500  Biso   1.000  H
  H42      1.0000 0.45890  0.10740  0.66420  Biso   1.000  H
  H43      1.0000 0.85510  0.00230  0.57000  Biso   1.000  H
  H44      1.0000 0.71530  0.94710  0.54620  Biso   1.000  H
  H45      1.0000 0.24780  0.91080  0.50900  Biso   1.000  H
  H46      1.0000 0.40080  0.93570  0.50820  Biso   1.000  H
  H47      1.0000 0.07050  0.36500  0.84600  Biso   1.000  H
  H48      1.0000 0.98440  0.24970  0.75260  Biso   1.000  H
  H49      1.0000 0.73330  0.21480  0.88420  Biso   1.000  H
  H50      1.0000 0.83660  0.33030  0.97520  Biso   1.000  H
  H51      1.0000 0.92820  0.97870  0.80820  Biso   1.000  H
  H52      1.0000 0.02090  0.98540  0.70160  Biso   1.000  H
  H53      1.0000 0.35750  0.11400  0.86800  Biso   1.000  H
  H54      1.0000 0.25530  0.10210  0.96780  Biso   1.000  H
  H55      1.0000 0.94760  0.37700  0.23380  Biso   1.000  H
  H56      1.0000 0.61320  0.40820  0.27320  Biso   1.000  H
  H57      1.0000 0.94780  0.54160  0.37380  Biso   1.000  H
  H58      1.0000 0.90200  0.48060  0.28880  Biso   1.000  H
  H59      1.0000 0.90140  0.41410  0.42500  Biso   1.000  H
  H60      1.0000 0.79470  0.39260  0.33580  Biso   1.000  H
  H61      1.0000 0.28510  0.49770  0.43000  Biso   1.000  H
  H62      1.0000 0.16910  0.55290  0.45380  Biso   1.000  H
  H63      1.0000 0.73880  0.58920  0.49100  Biso   1.000  H
  H64      1.0000 0.89260  0.56430  0.49180  Biso   1.000  H
  H65      1.0000 0.22450  0.13500  0.15400  Biso   1.000  H
  H66      1.0000 0.23180  0.25030  0.24740  Biso   1.000  H
  H67      1.0000 0.84910  0.28520  0.11580  Biso   1.000  H
  H68      1.0000 0.86140  0.16970  0.02480  Biso   1.000  H
  H69      1.0000 0.12000  0.52130  0.19180  Biso   1.000  H
  H70      1.0000 0.31930  0.51460  0.29840  Biso   1.000  H
  H71      1.0000 0.48950  0.38600  0.13200  Biso   1.000  H
  H72      1.0000 0.28750  0.39790  0.03220  Biso   1.000  H
  C1       1.0000 0.40475  0.98490  0.34770  Biso   1.000  C
  C2       1.0000 0.53526  0.93700  0.37972  Biso   1.000  C
  C3       1.0000 0.24688  0.99710  0.43956  Biso   1.000  C
  C4       1.0000 0.68951  0.04360  0.48802  Biso   1.000  C
  C5       1.0000 0.19612  0.88770  0.32084  Biso   1.000  C
  C6       1.0000 0.00230  0.66490  0.14640  Biso   1.000  C
  C7       1.0000 0.05310  0.73480  0.20340  Biso   1.000  C
  C8       1.0000 0.15802  0.78120  0.19504  Biso   1.000  C
  C9       1.0000 0.19770  0.75540  0.12700  Biso   1.000  C
  C10      1.0000 0.13590  0.68380  0.07280  Biso   1.000  C
  C11      1.0000 0.76008  0.99470  0.36396  Biso   1.000  C
  C12      1.0000 0.98376  0.99410  0.17972  Biso   1.000  C
  C13      1.0000 0.92879  0.99060  0.24458  Biso   1.000  C
  C14      1.0000 0.79737  0.95080  0.22754  Biso   1.000  C
  C15      1.0000 0.72967  0.91470  0.14594  Biso   1.000  C
  C16      1.0000 0.79260  0.92180  0.08660  Biso   1.000  C
  C17      1.0000 0.05705  0.51510  0.65230  Biso   1.000  C
  C18      1.0000 0.15554  0.56300  0.62028  Biso   1.000  C
  C19      1.0000 0.80732  0.50290  0.56044  Biso   1.000  C
  C20      1.0000 0.20149  0.45640  0.51198  Biso   1.000  C
  C21      1.0000 0.87528  0.61230  0.67916  Biso   1.000  C
  C22      1.0000 0.85590  0.83510  0.85360  Biso   1.000  C
  C23      1.0000 0.84970  0.76520  0.79660  Biso   1.000  C
  C24      1.0000 0.96298  0.71880  0.80496  Biso   1.000  C
  C25      1.0000 0.07070  0.74460  0.87300  Biso   1.000  C
  C26      1.0000 0.06310  0.81620  0.92720  Biso   1.000  C
  C27      1.0000 0.39612  0.50530  0.63604  Biso   1.000  C
  C28      1.0000 0.80404  0.50590  0.82028  Biso   1.000  C
  C29      1.0000 0.68421  0.50940  0.75542  Biso   1.000  C
  C30      1.0000 0.56983  0.54920  0.77246  Biso   1.000  C
  C31      1.0000 0.58373  0.58530  0.85406  Biso   1.000  C
  C32      1.0000 0.70600  0.57820  0.91340  Biso   1.000  C
  C33      1.0000 0.59525  0.01510  0.65230  Biso   1.000  C
  C34      1.0000 0.46474  0.06300  0.62028  Biso   1.000  C
  C35      1.0000 0.75312  0.00290  0.56044  Biso   1.000  C
  C36      1.0000 0.31049  0.95640  0.51198  Biso   1.000  C
  C37      1.0000 0.80388  0.11230  0.67916  Biso   1.000  C
  C38      1.0000 0.99770  0.33510  0.85360  Biso   1.000  C
  C39      1.0000 0.94690  0.26520  0.79660  Biso   1.000  C
  C40      1.0000 0.84198  0.21880  0.80496  Biso   1.000  C
  C41      1.0000 0.80230  0.24460  0.87300  Biso   1.000  C
  C42      1.0000 0.86410  0.31620  0.92720  Biso   1.000  C
  C43      1.0000 0.23992  0.00530  0.63604  Biso   1.000  C
  C44      1.0000 0.01624  0.00590  0.82028  Biso   1.000  C
  C45      1.0000 0.07121  0.00940  0.75542  Biso   1.000  C
  C46      1.0000 0.20263  0.04920  0.77246  Biso   1.000  C
  C47      1.0000 0.27033  0.08530  0.85406  Biso   1.000  C
  C48      1.0000 0.20740  0.07820  0.91340  Biso   1.000  C
  C49      1.0000 0.94295  0.48490  0.34770  Biso   1.000  C
  C50      1.0000 0.84446  0.43700  0.37972  Biso   1.000  C
  C51      1.0000 0.19268  0.49710  0.43956  Biso   1.000  C
  C52      1.0000 0.79851  0.54360  0.48802  Biso   1.000  C
  C53      1.0000 0.12472  0.38770  0.32084  Biso   1.000  C
  C54      1.0000 0.14410  0.16490  0.14640  Biso   1.000  C
  C55      1.0000 0.15030  0.23480  0.20340  Biso   1.000  C
  C56      1.0000 0.03702  0.28120  0.19504  Biso   1.000  C
  C57      1.0000 0.92930  0.25540  0.12700  Biso   1.000  C
  C58      1.0000 0.93690  0.18380  0.07280  Biso   1.000  C
  C59      1.0000 0.60388  0.49470  0.36396  Biso   1.000  C
  C60      1.0000 0.19596  0.49410  0.17972  Biso   1.000  C
  C61      1.0000 0.31579  0.49060  0.24458  Biso   1.000  C
  C62      1.0000 0.43017  0.45080  0.22754  Biso   1.000  C
  C63      1.0000 0.41627  0.41470  0.14594  Biso   1.000  C
  C64      1.0000 0.29400  0.42180  0.08660  Biso   1.000  C
  I1       1.0000 0.21223  0.53031  0.90638  Biso   1.000  I
  I2       1.0000 0.30585  0.96969  0.09362  Biso   1.000  I
  I3       1.0000 0.78777  0.46969  0.09362  Biso   1.000  I
  I4       1.0000 0.69415  0.03031  0.90638  Biso   1.000  I
  N1       1.0000 0.27583  0.95680  0.36326  Biso   1.000  N
  N2       1.0000 0.66754  0.98780  0.40808  Biso   1.000  N
  N3       1.0000 0.22320  0.85250  0.24780  Biso   1.000  N
  N4       1.0000 0.04596  0.63620  0.08252  Biso   1.000  N
  N5       1.0000 0.72769  0.94500  0.28618  Biso   1.000  N
  N6       1.0000 0.91832  0.96090  0.10104  Biso   1.000  N
  N7       1.0000 0.91257  0.54320  0.63674  Biso   1.000  N
  N8       1.0000 0.25946  0.51220  0.59192  Biso   1.000  N
  N9       1.0000 0.97540  0.64750  0.75220  Biso   1.000  N
  N10      1.0000 0.96344  0.86380  0.91748  Biso   1.000  N
  N11      1.0000 0.44151  0.55500  0.71382  Biso   1.000  N
  N12      1.0000 0.81728  0.53910  0.89896  Biso   1.000  N
  N13      1.0000 0.72417  0.04320  0.63674  Biso   1.000  N
  N14      1.0000 0.33246  0.01220  0.59192  Biso   1.000  N
  N15      1.0000 0.77680  0.14750  0.75220  Biso   1.000  N
  N16      1.0000 0.95404  0.36380  0.91748  Biso   1.000  N
  N17      1.0000 0.27231  0.05500  0.71382  Biso   1.000  N
  N18      1.0000 0.08168  0.03910  0.89896  Biso   1.000  N
  N19      1.0000 0.08743  0.45680  0.36326  Biso   1.000  N
  N20      1.0000 0.74054  0.48780  0.40808  Biso   1.000  N
  N21      1.0000 0.02460  0.35250  0.24780  Biso   1.000  N
  N22      1.0000 0.03656  0.13620  0.08252  Biso   1.000  N
  N23      1.0000 0.55849  0.44500  0.28618  Biso   1.000  N
  N24      1.0000 0.18272  0.46090  0.10104  Biso   1.000  N
  O1       1.0000 0.10647  0.85920  0.34494  Biso   1.000  O
  O2       1.0000 0.86343  0.04220  0.39126  Biso   1.000  O
  O3       1.0000 0.76153  0.64080  0.65506  Biso   1.000  O
  O4       1.0000 0.47217  0.45780  0.60874  Biso   1.000  O
  O5       1.0000 0.89353  0.14080  0.65506  Biso   1.000  O
  O6       1.0000 0.13657  0.95780  0.60874  Biso   1.000  O
  O7       1.0000 0.23847  0.35920  0.34494  Biso   1.000  O
  O8       1.0000 0.52783  0.54220  0.39126  Biso   1.000  O
