data_image0
_cell_length_a       17.656
_cell_length_b       19.4084
_cell_length_c       20.504
_cell_angle_alpha    106.261
_cell_angle_beta     90
_cell_angle_gamma    117.055

_symmetry_space_group_name_H-M    P 1
_symmetry_int_tables_number       1

loop_
  _symmetry_equiv_pos_as_xyz
  'x, y, z'

loop_
  _atom_site_label
  _atom_site_occupancy
  _atom_site_fract_x
  _atom_site_fract_y
  _atom_site_fract_z
  _atom_site_thermal_displace_type
  _atom_site_B_iso_or_equiv
  _atom_site_type_symbol
  Mn1      1.0000 0.54667  0.88530  0.97626  Biso   1.000  Mn
  Mn2      1.0000 0.33863  0.88530  0.47626  Biso   1.000  Mn
  H1       1.0000 0.51640  0.00220  0.80960  Biso   1.000  H
  H2       1.0000 0.36960  0.75580  0.74940  Biso   1.000  H
  H3       1.0000 0.34700  0.75800  0.63960  Biso   1.000  H
  H4       1.0000 0.46420  0.68800  0.88280  Biso   1.000  H
  H5       1.0000 0.70720  0.86780  0.90230  Biso   1.000  H
  H6       1.0000 0.71140  0.73940  0.85430  Biso   1.000  H
  H7       1.0000 0.66390  0.60160  0.81340  Biso   1.000  H
  H8       1.0000 0.60930  0.46640  0.74660  Biso   1.000  H
  H9       1.0000 0.36860  0.43680  0.75300  Biso   1.000  H
  H10      1.0000 0.42360  0.57260  0.81790  Biso   1.000  H
  H11      1.0000 0.54710  0.32600  0.72220  Biso   1.000  H
  H12      1.0000 0.48130  0.19220  0.64790  Biso   1.000  H
  H13      1.0000 0.26630  0.20720  0.61020  Biso   1.000  H
  H14      1.0000 0.33920  0.34200  0.66760  Biso   1.000  H
  H15      1.0000 0.43430  0.08620  0.54920  Biso   1.000  H
  H16      1.0000 0.20020  0.06280  0.57210  Biso   1.000  H
  H17      1.0000 0.18040  0.93080  0.50890  Biso   1.000  H
  H18      1.0000 0.53400  0.07040  0.73540  Biso   1.000  H
  H19      1.0000 0.49940  0.03240  0.66070  Biso   1.000  H
  H20      1.0000 0.48580  0.00220  0.30960  Biso   1.000  H
  H21      1.0000 0.38620  0.75580  0.24940  Biso   1.000  H
  H22      1.0000 0.41100  0.75800  0.13960  Biso   1.000  H
  H23      1.0000 0.22380  0.68800  0.38280  Biso   1.000  H
  H24      1.0000 0.16060  0.86780  0.40230  Biso   1.000  H
  H25      1.0000 0.02800  0.73940  0.35430  Biso   1.000  H
  H26      1.0000 0.93770  0.60160  0.31340  Biso   1.000  H
  H27      1.0000 0.85710  0.46640  0.24660  Biso   1.000  H
  H28      1.0000 0.06820  0.43680  0.25300  Biso   1.000  H
  H29      1.0000 0.14900  0.57260  0.31790  Biso   1.000  H
  H30      1.0000 0.77890  0.32600  0.22220  Biso   1.000  H
  H31      1.0000 0.71090  0.19220  0.14790  Biso   1.000  H
  H32      1.0000 0.94090  0.20720  0.11020  Biso   1.000  H
  H33      1.0000 0.00280  0.34200  0.16760  Biso   1.000  H
  H34      1.0000 0.65190  0.08620  0.04920  Biso   1.000  H
  H35      1.0000 0.86260  0.06280  0.07210  Biso   1.000  H
  H36      1.0000 0.75040  0.93080  0.00890  Biso   1.000  H
  H37      1.0000 0.53640  0.07040  0.23540  Biso   1.000  H
  H38      1.0000 0.53300  0.03240  0.16070  Biso   1.000  H
  C1       1.0000 0.41670  0.87720  0.65768  Biso   1.000  C
  C2       1.0000 0.46895  0.95210  0.70880  Biso   1.000  C
  C3       1.0000 0.48312  0.95284  0.77540  Biso   1.000  C
  C4       1.0000 0.44767  0.87954  0.79210  Biso   1.000  C
  C5       1.0000 0.39467  0.80474  0.73960  Biso   1.000  C
  C6       1.0000 0.38150  0.80680  0.67410  Biso   1.000  C
  C7       1.0000 0.39108  0.87636  0.58700  Biso   1.000  C
  C8       1.0000 0.47194  0.88028  0.86162  Biso   1.000  C
  C9       1.0000 0.52305  0.71610  0.88250  Biso   1.000  C
  C10      1.0000 0.66012  0.81624  0.89330  Biso   1.000  C
  C11      1.0000 0.66323  0.74526  0.86560  Biso   1.000  C
  C12      1.0000 0.54944  0.60048  0.82300  Biso   1.000  C
  C13      1.0000 0.60474  0.56848  0.80120  Biso   1.000  C
  C14      1.0000 0.57215  0.48750  0.76140  Biso   1.000  C
  C15      1.0000 0.48356  0.43792  0.74380  Biso   1.000  C
  C16      1.0000 0.42775  0.46990  0.76500  Biso   1.000  C
  C17      1.0000 0.46065  0.55110  0.80420  Biso   1.000  C
  C18      1.0000 0.44975  0.35070  0.70510  Biso   1.000  C
  C19      1.0000 0.49239  0.30358  0.69790  Biso   1.000  C
  C20      1.0000 0.45270  0.22320  0.65410  Biso   1.000  C
  C21      1.0000 0.37011  0.19002  0.62000  Biso   1.000  C
  C22      1.0000 0.32386  0.23192  0.62900  Biso   1.000  C
  C23      1.0000 0.36670  0.31080  0.66670  Biso   1.000  C
  C24      1.0000 0.37484  0.06468  0.54580  Biso   1.000  C
  C25      1.0000 0.24436  0.05072  0.55930  Biso   1.000  C
  C26      1.0000 0.23310  0.97800  0.52310  Biso   1.000  C
  C27      1.0000 0.46050  0.87720  0.15768  Biso   1.000  C
  C28      1.0000 0.48315  0.95210  0.20880  Biso   1.000  C
  C29      1.0000 0.46972  0.95284  0.27540  Biso   1.000  C
  C30      1.0000 0.43187  0.87954  0.29210  Biso   1.000  C
  C31      1.0000 0.41007  0.80474  0.23960  Biso   1.000  C
  C32      1.0000 0.42530  0.80680  0.17410  Biso   1.000  C
  C33      1.0000 0.48528  0.87636  0.08700  Biso   1.000  C
  C34      1.0000 0.40834  0.88028  0.36162  Biso   1.000  C
  C35      1.0000 0.19305  0.71610  0.38250  Biso   1.000  C
  C36      1.0000 0.15612  0.81624  0.39330  Biso   1.000  C
  C37      1.0000 0.08203  0.74526  0.36560  Biso   1.000  C
  C38      1.0000 0.05104  0.60048  0.32300  Biso   1.000  C
  C39      1.0000 0.96374  0.56848  0.30120  Biso   1.000  C
  C40      1.0000 0.91535  0.48750  0.26140  Biso   1.000  C
  C41      1.0000 0.95436  0.43792  0.24380  Biso   1.000  C
  C42      1.0000 0.04215  0.46990  0.26500  Biso   1.000  C
  C43      1.0000 0.09045  0.55110  0.30420  Biso   1.000  C
  C44      1.0000 0.90095  0.35070  0.20510  Biso   1.000  C
  C45      1.0000 0.81119  0.30358  0.19790  Biso   1.000  C
  C46      1.0000 0.77050  0.22320  0.15410  Biso   1.000  C
  C47      1.0000 0.81991  0.19002  0.12000  Biso   1.000  C
  C48      1.0000 0.90806  0.23192  0.12900  Biso   1.000  C
  C49      1.0000 0.94410  0.31080  0.16670  Biso   1.000  C
  C50      1.0000 0.68984  0.06468  0.04580  Biso   1.000  C
  C51      1.0000 0.80636  0.05072  0.05930  Biso   1.000  C
  C52      1.0000 0.74490  0.97800  0.02310  Biso   1.000  C
  N1       1.0000 0.50534  0.02768  0.70060  Biso   1.000  N
  N2       1.0000 0.57484  0.80168  0.90690  Biso   1.000  N
  N3       1.0000 0.57597  0.68054  0.85750  Biso   1.000  N
  N4       1.0000 0.33310  0.10780  0.57590  Biso   1.000  N
  N5       1.0000 0.31501  0.98322  0.50920  Biso   1.000  N
  N6       1.0000 0.52234  0.02768  0.20060  Biso   1.000  N
  N7       1.0000 0.22684  0.80168  0.40690  Biso   1.000  N
  N8       1.0000 0.10457  0.68054  0.35750  Biso   1.000  N
  N9       1.0000 0.77470  0.10780  0.07590  Biso   1.000  N
  N10      1.0000 0.66821  0.98322  0.00920  Biso   1.000  N
  O1       1.0000 0.32740  0.81676  0.54865  Biso   1.000  O
  O2       1.0000 0.43985  0.93968  0.57318  Biso   1.000  O
  O3       1.0000 0.52894  0.94218  0.90223  Biso   1.000  O
  O4       1.0000 0.43692  0.81844  0.88105  Biso   1.000  O
  O5       1.0000 0.48936  0.81676  0.04865  Biso   1.000  O
  O6       1.0000 0.49983  0.93968  0.07318  Biso   1.000  O
  O7       1.0000 0.41324  0.94218  0.40223  Biso   1.000  O
  O8       1.0000 0.38152  0.81844  0.38105  Biso   1.000  O
  Mn3      1.0000 0.98330  0.16838  0.92295  Biso   1.000  Mn
  Mn4      1.0000 0.18508  0.16838  0.42295  Biso   1.000  Mn
  H39      1.0000 0.10410  0.27900  0.75390  Biso   1.000  H
  H40      1.0000 0.00940  0.03600  0.68850  Biso   1.000  H
  H41      1.0000 0.03860  0.03980  0.57860  Biso   1.000  H
  H42      1.0000 0.87250  0.96960  0.82900  Biso   1.000  H
  H43      1.0000 0.77310  0.11880  0.92170  Biso   1.000  H
  H44      1.0000 0.65150  0.97680  0.86540  Biso   1.000  H
  H45      1.0000 0.58640  0.83940  0.81680  Biso   1.000  H
  H46      1.0000 0.52100  0.70560  0.77610  Biso   1.000  H
  H47      1.0000 0.73430  0.70460  0.70990  Biso   1.000  H
  H48      1.0000 0.80450  0.84200  0.75890  Biso   1.000  H
  H49      1.0000 0.44690  0.61440  0.69190  Biso   1.000  H
  H50      1.0000 0.36280  0.49180  0.60740  Biso   1.000  H
  H51      1.0000 0.56280  0.44740  0.58600  Biso   1.000  H
  H52      1.0000 0.64860  0.56940  0.67110  Biso   1.000  H
  H53      1.0000 0.29050  0.36360  0.53430  Biso   1.000  H
  H54      1.0000 0.50610  0.35380  0.48200  Biso   1.000  H
  H55      1.0000 0.38100  0.23420  0.39720  Biso   1.000  H
  H56      1.0000 0.16790  0.35400  0.68290  Biso   1.000  H
  H57      1.0000 0.16570  0.31720  0.60820  Biso   1.000  H
  H58      1.0000 0.17490  0.27900  0.25390  Biso   1.000  H
  H59      1.0000 0.02660  0.03600  0.18850  Biso   1.000  H
  H60      1.0000 0.00120  0.03980  0.07860  Biso   1.000  H
  H61      1.0000 0.09710  0.96960  0.32900  Biso   1.000  H
  H62      1.0000 0.34570  0.11880  0.42170  Biso   1.000  H
  H63      1.0000 0.32530  0.97680  0.36540  Biso   1.000  H
  H64      1.0000 0.25300  0.83940  0.31680  Biso   1.000  H
  H65      1.0000 0.18460  0.70560  0.27610  Biso   1.000  H
  H66      1.0000 0.97030  0.70460  0.20990  Biso   1.000  H
  H67      1.0000 0.03750  0.84200  0.25890  Biso   1.000  H
  H68      1.0000 0.16750  0.61440  0.19190  Biso   1.000  H
  H69      1.0000 0.12900  0.49180  0.10740  Biso   1.000  H
  H70      1.0000 0.88460  0.44740  0.08600  Biso   1.000  H
  H71      1.0000 0.92080  0.56940  0.17110  Biso   1.000  H
  H72      1.0000 0.07310  0.36360  0.03430  Biso   1.000  H
  H73      1.0000 0.84770  0.35380  0.98200  Biso   1.000  H
  H74      1.0000 0.85320  0.23420  0.89720  Biso   1.000  H
  H75      1.0000 0.18610  0.35400  0.18290  Biso   1.000  H
  H76      1.0000 0.15150  0.31720  0.10820  Biso   1.000  H
  C53      1.0000 0.09037  0.16194  0.60020  Biso   1.000  C
  C54      1.0000 0.10863  0.23446  0.65410  Biso   1.000  C
  C55      1.0000 0.09091  0.23102  0.71880  Biso   1.000  C
  C56      1.0000 0.05383  0.15766  0.73303  Biso   1.000  C
  C57      1.0000 0.03446  0.08572  0.67974  Biso   1.000  C
  C58      1.0000 0.05221  0.08782  0.61361  Biso   1.000  C
  C59      1.0000 0.11477  0.16254  0.53350  Biso   1.000  C
  C60      1.0000 0.03634  0.15408  0.80310  Biso   1.000  C
  C61      1.0000 0.83400  0.98900  0.84380  Biso   1.000  C
  C62      1.0000 0.77852  0.07384  0.89630  Biso   1.000  C
  C63      1.0000 0.70968  0.99276  0.86478  Biso   1.000  C
  C64      1.0000 0.70326  0.85792  0.79250  Biso   1.000  C
  C65      1.0000 0.61680  0.81300  0.79570  Biso   1.000  C
  C66      1.0000 0.57772  0.73364  0.76910  Biso   1.000  C
  C67      1.0000 0.61448  0.68656  0.73040  Biso   1.000  C
  C68      1.0000 0.70401  0.73142  0.73030  Biso   1.000  C
  C69      1.0000 0.74587  0.81374  0.76000  Biso   1.000  C
  C70      1.0000 0.55686  0.60432  0.68900  Biso   1.000  C
  C71      1.0000 0.47033  0.58106  0.67050  Biso   1.000  C
  C72      1.0000 0.42045  0.50790  0.61990  Biso   1.000  C
  C73      1.0000 0.45457  0.45814  0.58760  Biso   1.000  C
  C74      1.0000 0.53989  0.48118  0.60710  Biso   1.000  C
  C75      1.0000 0.59139  0.55418  0.65800  Biso   1.000  C
  C76      1.0000 0.32732  0.34664  0.51110  Biso   1.000  C
  C77      1.0000 0.44886  0.34192  0.48177  Biso   1.000  C
  C78      1.0000 0.37838  0.27336  0.43430  Biso   1.000  C
  C79      1.0000 0.07157  0.16194  0.10020  Biso   1.000  C
  C80      1.0000 0.12583  0.23446  0.15410  Biso   1.000  C
  C81      1.0000 0.14011  0.23102  0.21880  Biso   1.000  C
  C82      1.0000 0.10383  0.15766  0.23303  Biso   1.000  C
  C83      1.0000 0.05126  0.08572  0.17974  Biso   1.000  C
  C84      1.0000 0.03561  0.08782  0.11361  Biso   1.000  C
  C85      1.0000 0.04777  0.16254  0.03350  Biso   1.000  C
  C86      1.0000 0.11774  0.15408  0.30310  Biso   1.000  C
  C87      1.0000 0.15500  0.98900  0.34380  Biso   1.000  C
  C88      1.0000 0.29532  0.07384  0.39630  Biso   1.000  C
  C89      1.0000 0.28308  0.99276  0.36478  Biso   1.000  C
  C90      1.0000 0.15466  0.85792  0.29250  Biso   1.000  C
  C91      1.0000 0.19620  0.81300  0.29570  Biso   1.000  C
  C92      1.0000 0.15592  0.73364  0.26910  Biso   1.000  C
  C93      1.0000 0.07208  0.68656  0.23040  Biso   1.000  C
  C94      1.0000 0.02741  0.73142  0.23030  Biso   1.000  C
  C95      1.0000 0.06787  0.81374  0.26000  Biso   1.000  C
  C96      1.0000 0.04746  0.60432  0.18900  Biso   1.000  C
  C97      1.0000 0.11073  0.58106  0.17050  Biso   1.000  C
  C98      1.0000 0.08745  0.50790  0.11990  Biso   1.000  C
  C99      1.0000 0.00357  0.45814  0.08760  Biso   1.000  C
  C100     1.0000 0.94129  0.48118  0.10710  Biso   1.000  C
  C101     1.0000 0.96279  0.55418  0.15800  Biso   1.000  C
  C102     1.0000 0.01932  0.34664  0.01110  Biso   1.000  C
  C103     1.0000 0.89306  0.34192  0.98177  Biso   1.000  C
  C104     1.0000 0.89498  0.27336  0.93430  Biso   1.000  C
  N11      1.0000 0.15299  0.31164  0.64757  Biso   1.000  N
  N12      1.0000 0.85599  0.07238  0.88135  Biso   1.000  N
  N13      1.0000 0.74338  0.94256  0.83360  Biso   1.000  N
  N14      1.0000 0.41905  0.38810  0.52755  Biso   1.000  N
  N15      1.0000 0.30218  0.27716  0.45539  Biso   1.000  N
  N16      1.0000 0.15865  0.31164  0.14757  Biso   1.000  N
  N17      1.0000 0.21639  0.07238  0.38135  Biso   1.000  N
  N18      1.0000 0.19918  0.94256  0.33360  Biso   1.000  N
  N19      1.0000 0.96905  0.38810  0.02755  Biso   1.000  N
  N20      1.0000 0.97498  0.27716  0.95539  Biso   1.000  N
  O9       1.0000 0.10453  0.09914  0.48913  Biso   1.000  O
  O10      1.0000 0.14367  0.22486  0.51711  Biso   1.000  O
  O11      1.0000 0.04054  0.21734  0.84252  Biso   1.000  O
  O12      1.0000 0.02352  0.09886  0.82602  Biso   1.000  O
  O13      1.0000 0.99461  0.09914  0.98913  Biso   1.000  O
  O14      1.0000 0.08119  0.22486  0.01711  Biso   1.000  O
  O15      1.0000 0.17680  0.21734  0.34252  Biso   1.000  O
  O16      1.0000 0.07534  0.09886  0.32602  Biso   1.000  O
  Mn5      1.0000 0.71832  0.23158  0.75022  Biso   1.000  Mn
  Mn6      1.0000 0.51326  0.23158  0.25022  Biso   1.000  Mn
  H77      1.0000 0.69720  0.35380  0.58700  Biso   1.000  H
  H78      1.0000 0.56130  0.11060  0.52270  Biso   1.000  H
  H79      1.0000 0.52940  0.11020  0.41290  Biso   1.000  H
  H80      1.0000 0.64570  0.04600  0.61910  Biso   1.000  H
  H81      1.0000 0.84850  0.15080  0.77090  Biso   1.000  H
  H82      1.0000 0.82650  0.01380  0.71120  Biso   1.000  H
  H83      1.0000 0.57650  0.90700  0.56110  Biso   1.000  H
  H84      1.0000 0.51930  0.77420  0.48790  Biso   1.000  H
  H85      1.0000 0.72620  0.76120  0.55170  Biso   1.000  H
  H86      1.0000 0.78340  0.89400  0.62490  Biso   1.000  H
  H87      1.0000 0.47120  0.64660  0.48250  Biso   1.000  H
  H88      1.0000 0.40060  0.51640  0.40360  Biso   1.000  H
  H89      1.0000 0.63100  0.52940  0.37450  Biso   1.000  H
  H90      1.0000 0.70110  0.66340  0.44530  Biso   1.000  H
  H91      1.0000 0.56240  0.39540  0.33130  Biso   1.000  H
  H92      1.0000 0.33410  0.38960  0.30190  Biso   1.000  H
  H93      1.0000 0.31690  0.25440  0.23720  Biso   1.000  H
  H94      1.0000 0.67760  0.39160  0.44440  Biso   1.000  H
  H95      1.0000 0.71740  0.42780  0.52060  Biso   1.000  H
  H96      1.0000 0.65660  0.35380  0.08700  Biso   1.000  H
  H97      1.0000 0.54930  0.11060  0.02270  Biso   1.000  H
  H98      1.0000 0.58080  0.11020  0.91290  Biso   1.000  H
  H99      1.0000 0.40030  0.04600  0.11910  Biso   1.000  H
  H100     1.0000 0.30230  0.15080  0.27090  Biso   1.000  H
  H101     1.0000 0.18730  0.01380  0.21120  Biso   1.000  H
  H102     1.0000 0.33050  0.90700  0.06110  Biso   1.000  H
  H103     1.0000 0.25490  0.77420  0.98790  Biso   1.000  H
  H104     1.0000 0.03500  0.76120  0.05170  Biso   1.000  H
  H105     1.0000 0.11060  0.89400  0.12490  Biso   1.000  H
  H106     1.0000 0.17540  0.64660  0.98250  Biso   1.000  H
  H107     1.0000 0.11580  0.51640  0.90360  Biso   1.000  H
  H108     1.0000 0.89840  0.52940  0.87450  Biso   1.000  H
  H109     1.0000 0.96230  0.66340  0.94530  Biso   1.000  H
  H110     1.0000 0.83300  0.39540  0.83130  Biso   1.000  H
  H111     1.0000 0.05550  0.38960  0.80190  Biso   1.000  H
  H112     1.0000 0.93750  0.25440  0.73720  Biso   1.000  H
  H113     1.0000 0.71400  0.39160  0.94440  Biso   1.000  H
  H114     1.0000 0.71040  0.42780  0.02060  Biso   1.000  H
  C105     1.0000 0.59873  0.23426  0.43400  Biso   1.000  C
  C106     1.0000 0.64819  0.30518  0.48483  Biso   1.000  C
  C107     1.0000 0.66310  0.30520  0.55240  Biso   1.000  C
  C108     1.0000 0.62699  0.23298  0.56650  Biso   1.000  C
  C109     1.0000 0.58071  0.15962  0.51350  Biso   1.000  C
  C110     1.0000 0.56339  0.15898  0.44750  Biso   1.000  C
  C111     1.0000 0.57396  0.23392  0.36310  Biso   1.000  C
  C112     1.0000 0.64610  0.22940  0.63640  Biso   1.000  C
  C113     1.0000 0.69143  0.05506  0.64880  Biso   1.000  C
  C114     1.0000 0.80557  0.11294  0.73420  Biso   1.000  C
  C115     1.0000 0.79430  0.03720  0.70070  Biso   1.000  C
  C116     1.0000 0.68566  0.91372  0.60030  Biso   1.000  C
  C117     1.0000 0.60651  0.87782  0.55920  Biso   1.000  C
  C118     1.0000 0.57223  0.79826  0.51530  Biso   1.000  C
  C119     1.0000 0.61709  0.75458  0.51250  Biso   1.000  C
  C120     1.0000 0.69623  0.79046  0.55360  Biso   1.000  C
  C121     1.0000 0.73052  0.87004  0.59740  Biso   1.000  C
  C122     1.0000 0.58994  0.66948  0.46970  Biso   1.000  C
  C123     1.0000 0.50353  0.62406  0.45860  Biso   1.000  C
  C124     1.0000 0.46023  0.54506  0.41310  Biso   1.000  C
  C125     1.0000 0.51181  0.51122  0.38260  Biso   1.000  C
  C126     1.0000 0.59902  0.55424  0.39520  Biso   1.000  C
  C127     1.0000 0.64134  0.63388  0.43770  Biso   1.000  C
  C128     1.0000 0.50487  0.37774  0.31650  Biso   1.000  C
  C129     1.0000 0.37706  0.37432  0.30040  Biso   1.000  C
  C130     1.0000 0.36751  0.29842  0.26328  Biso   1.000  C
  C131     1.0000 0.63553  0.23426  0.93400  Biso   1.000  C
  C132     1.0000 0.65699  0.30518  0.98483  Biso   1.000  C
  C133     1.0000 0.64210  0.30520  0.05240  Biso   1.000  C
  C134     1.0000 0.60599  0.23298  0.06650  Biso   1.000  C
  C135     1.0000 0.57891  0.15962  0.01350  Biso   1.000  C
  C136     1.0000 0.59559  0.15898  0.94750  Biso   1.000  C
  C137     1.0000 0.65996  0.23392  0.86310  Biso   1.000  C
  C138     1.0000 0.58330  0.22940  0.13640  Biso   1.000  C
  C139     1.0000 0.36363  0.05506  0.14880  Biso   1.000  C
  C140     1.0000 0.30737  0.11294  0.23420  Biso   1.000  C
  C141     1.0000 0.24290  0.03720  0.20070  Biso   1.000  C
  C142     1.0000 0.22806  0.91372  0.10030  Biso   1.000  C
  C143     1.0000 0.27131  0.87782  0.05920  Biso   1.000  C
  C144     1.0000 0.22603  0.79826  0.01530  Biso   1.000  C
  C145     1.0000 0.13749  0.75458  0.01250  Biso   1.000  C
  C146     1.0000 0.09423  0.79046  0.05360  Biso   1.000  C
  C147     1.0000 0.13952  0.87004  0.09740  Biso   1.000  C
  C148     1.0000 0.07954  0.66948  0.96970  Biso   1.000  C
  C149     1.0000 0.12053  0.62406  0.95860  Biso   1.000  C
  C150     1.0000 0.08483  0.54506  0.91310  Biso   1.000  C
  C151     1.0000 0.99941  0.51122  0.88260  Biso   1.000  C
  C152     1.0000 0.95522  0.55424  0.89520  Biso   1.000  C
  C153     1.0000 0.99254  0.63388  0.93770  Biso   1.000  C
  C154     1.0000 0.87287  0.37774  0.81650  Biso   1.000  C
  C155     1.0000 0.99726  0.37432  0.80040  Biso   1.000  C
  C156     1.0000 0.93091  0.29842  0.76328  Biso   1.000  C
  N21      1.0000 0.68533  0.38346  0.48438  Biso   1.000  N
  N22      1.0000 0.73993  0.12626  0.70421  Biso   1.000  N
  N23      1.0000 0.72360  0.99970  0.64576  Biso   1.000  N
  N24      1.0000 0.46108  0.42456  0.33508  Biso   1.000  N
  N25      1.0000 0.44622  0.29924  0.27155  Biso   1.000  N
  N26      1.0000 0.69813  0.38346  0.98438  Biso   1.000  N
  N27      1.0000 0.38633  0.12626  0.20421  Biso   1.000  N
  N28      1.0000 0.27610  0.99970  0.14576  Biso   1.000  N
  N29      1.0000 0.96348  0.42456  0.83508  Biso   1.000  N
  N30      1.0000 0.85302  0.29924  0.77155  Biso   1.000  N
  O17      1.0000 0.51512  0.17092  0.31942  Biso   1.000  O
  O18      1.0000 0.61570  0.29626  0.34906  Biso   1.000  O
  O19      1.0000 0.70337  0.29402  0.67642  Biso   1.000  O
  O20      1.0000 0.61511  0.17120  0.66039  Biso   1.000  O
  O21      1.0000 0.65580  0.17092  0.81942  Biso   1.000  O
  O22      1.0000 0.68056  0.29626  0.84906  Biso   1.000  O
  O23      1.0000 0.59065  0.29402  0.17642  Biso   1.000  O
  O24      1.0000 0.55609  0.17120  0.16039  Biso   1.000  O
  Mn7      1.0000 0.00966  0.81442  0.64789  Biso   1.000  Mn
  Mn8      1.0000 0.80476  0.81442  0.14789  Biso   1.000  Mn
  H115     1.0000 0.98600  0.91860  0.47900  Biso   1.000  H
  H116     1.0000 0.84430  0.67680  0.41110  Biso   1.000  H
  H117     1.0000 0.81710  0.68000  0.30170  Biso   1.000  H
  H118     1.0000 0.91410  0.60620  0.57860  Biso   1.000  H
  H119     1.0000 0.15490  0.77280  0.56890  Biso   1.000  H
  H120     1.0000 0.13190  0.63340  0.50010  Biso   1.000  H
  H121     1.0000 0.08530  0.50300  0.46580  Biso   1.000  H
  H122     1.0000 0.02800  0.36640  0.40630  Biso   1.000  H
  H123     1.0000 0.79010  0.33560  0.43080  Biso   1.000  H
  H124     1.0000 0.84770  0.47340  0.49000  Biso   1.000  H
  H125     1.0000 0.97370  0.23300  0.38460  Biso   1.000  H
  H126     1.0000 0.91080  0.09680  0.31960  Biso   1.000  H
  H127     1.0000 0.68860  0.09580  0.28150  Biso   1.000  H
  H128     1.0000 0.74990  0.23220  0.34330  Biso   1.000  H
  H129     1.0000 0.85630  0.98080  0.23670  Biso   1.000  H
  H130     1.0000 0.61590  0.95340  0.25590  Biso   1.000  H
  H131     1.0000 0.60300  0.81900  0.18200  Biso   1.000  H
  H132     1.0000 0.96380  0.95540  0.32930  Biso   1.000  H
  H133     1.0000 0.00650  0.99200  0.40210  Biso   1.000  H
  H134     1.0000 0.93260  0.91860  0.97900  Biso   1.000  H
  H135     1.0000 0.83250  0.67680  0.91110  Biso   1.000  H
  H136     1.0000 0.86290  0.68000  0.80170  Biso   1.000  H
  H137     1.0000 0.69210  0.60620  0.07860  Biso   1.000  H
  H138     1.0000 0.61790  0.77280  0.06890  Biso   1.000  H
  H139     1.0000 0.50150  0.63340  0.00010  Biso   1.000  H
  H140     1.0000 0.41770  0.50300  0.96580  Biso   1.000  H
  H141     1.0000 0.33840  0.36640  0.90630  Biso   1.000  H
  H142     1.0000 0.54550  0.33560  0.93080  Biso   1.000  H
  H143     1.0000 0.62570  0.47340  0.99000  Biso   1.000  H
  H144     1.0000 0.25930  0.23300  0.88460  Biso   1.000  H
  H145     1.0000 0.18600  0.09680  0.81960  Biso   1.000  H
  H146     1.0000 0.40720  0.09580  0.78150  Biso   1.000  H
  H147     1.0000 0.48230  0.23220  0.84330  Biso   1.000  H
  H148     1.0000 0.12450  0.98080  0.73670  Biso   1.000  H
  H149     1.0000 0.33750  0.95340  0.75590  Biso   1.000  H
  H150     1.0000 0.21600  0.81900  0.68200  Biso   1.000  H
  H151     1.0000 0.99160  0.95540  0.82930  Biso   1.000  H
  H152     1.0000 0.98550  0.99200  0.90210  Biso   1.000  H
  C157     1.0000 0.88762  0.80304  0.32270  Biso   1.000  C
  C158     1.0000 0.93965  0.87330  0.37506  Biso   1.000  C
  C159     1.0000 0.95319  0.87058  0.44340  Biso   1.000  C
  C160     1.0000 0.91753  0.79726  0.45570  Biso   1.000  C
  C161     1.0000 0.86768  0.72656  0.40269  Biso   1.000  C
  C162     1.0000 0.85163  0.72826  0.33660  Biso   1.000  C
  C163     1.0000 0.87020  0.80580  0.25660  Biso   1.000  C
  C164     1.0000 0.93239  0.79638  0.52683  Biso   1.000  C
  C165     1.0000 0.96928  0.62936  0.56730  Biso   1.000  C
  C166     1.0000 0.10501  0.72382  0.56230  Biso   1.000  C
  C167     1.0000 0.09190  0.64500  0.52350  Biso   1.000  C
  C168     1.0000 0.97204  0.50228  0.48380  Biso   1.000  C
  C169     1.0000 0.02609  0.46958  0.45860  Biso   1.000  C
  C170     1.0000 0.99168  0.38776  0.42320  Biso   1.000  C
  C171     1.0000 0.90325  0.33670  0.41230  Biso   1.000  C
  C172     1.0000 0.84933  0.36926  0.43770  Biso   1.000  C
  C173     1.0000 0.88394  0.45188  0.47320  Biso   1.000  C
  C174     1.0000 0.86741  0.24782  0.37270  Biso   1.000  C
  C175     1.0000 0.91648  0.20596  0.36440  Biso   1.000  C
  C176     1.0000 0.87827  0.12414  0.32580  Biso   1.000  C
  C177     1.0000 0.79412  0.08304  0.29690  Biso   1.000  C
  C178     1.0000 0.74557  0.12354  0.30270  Biso   1.000  C
  C179     1.0000 0.78236  0.20512  0.33990  Biso   1.000  C
  C180     1.0000 0.79671  0.95782  0.23220  Biso   1.000  C
  C181     1.0000 0.66082  0.94244  0.24308  Biso   1.000  C
  C182     1.0000 0.65414  0.86668  0.20150  Biso   1.000  C
  C183     1.0000 0.91542  0.80304  0.82270  Biso   1.000  C
  C184     1.0000 0.93365  0.87330  0.87506  Biso   1.000  C
  C185     1.0000 0.91739  0.87058  0.94340  Biso   1.000  C
  C186     1.0000 0.87973  0.79726  0.95570  Biso   1.000  C
  C187     1.0000 0.85888  0.72656  0.90269  Biso   1.000  C
  C188     1.0000 0.87663  0.72826  0.83660  Biso   1.000  C
  C189     1.0000 0.93560  0.80580  0.75660  Biso   1.000  C
  C190     1.0000 0.86399  0.79638  0.02683  Biso   1.000  C
  C191     1.0000 0.66008  0.62936  0.06730  Biso   1.000  C
  C192     1.0000 0.61881  0.72382  0.06230  Biso   1.000  C
  C193     1.0000 0.55310  0.64500  0.02350  Biso   1.000  C
  C194     1.0000 0.53024  0.50228  0.98380  Biso   1.000  C
  C195     1.0000 0.44349  0.46958  0.95860  Biso   1.000  C
  C196     1.0000 0.39608  0.38776  0.92320  Biso   1.000  C
  C197     1.0000 0.43345  0.33670  0.91230  Biso   1.000  C
  C198     1.0000 0.51993  0.36926  0.93770  Biso   1.000  C
  C199     1.0000 0.56794  0.45188  0.97320  Biso   1.000  C
  C200     1.0000 0.38041  0.24782  0.87270  Biso   1.000  C
  C201     1.0000 0.28948  0.20596  0.86440  Biso   1.000  C
  C202     1.0000 0.24587  0.12414  0.82580  Biso   1.000  C
  C203     1.0000 0.28892  0.08304  0.79690  Biso   1.000  C
  C204     1.0000 0.37797  0.12354  0.80270  Biso   1.000  C
  C205     1.0000 0.42276  0.20512  0.83990  Biso   1.000  C
  C206     1.0000 0.16111  0.95782  0.73220  Biso   1.000  C
  C207     1.0000 0.28162  0.94244  0.74308  Biso   1.000  C
  C208     1.0000 0.21254  0.86668  0.70150  Biso   1.000  C
  N31      1.0000 0.97433  0.94980  0.36793  Biso   1.000  N
  N32      1.0000 0.02851  0.71362  0.58875  Biso   1.000  N
  N33      1.0000 0.00677  0.58654  0.52663  Biso   1.000  N
  N34      1.0000 0.74958  0.99696  0.26046  Biso   1.000  N
  N35      1.0000 0.73622  0.87580  0.19513  Biso   1.000  N
  N36      1.0000 0.97547  0.94980  0.86793  Biso   1.000  N
  N37      1.0000 0.68511  0.71362  0.08875  Biso   1.000  N
  N38      1.0000 0.57977  0.58654  0.02663  Biso   1.000  N
  N39      1.0000 0.24738  0.99696  0.76046  Biso   1.000  N
  N40      1.0000 0.13958  0.87580  0.69513  Biso   1.000  N
  O25      1.0000 0.81498  0.74164  0.21065  Biso   1.000  O
  O26      1.0000 0.90374  0.86742  0.23835  Biso   1.000  O
  O27      1.0000 0.99288  0.86010  0.56647  Biso   1.000  O
  O28      1.0000 0.89149  0.73966  0.54928  Biso   1.000  O
  O29      1.0000 0.92666  0.74164  0.71065  Biso   1.000  O
  O30      1.0000 0.96368  0.86742  0.73835  Biso   1.000  O
  O31      1.0000 0.86722  0.86010  0.06647  Biso   1.000  O
  O32      1.0000 0.84817  0.73966  0.04928  Biso   1.000  O
  Mn9      1.0000 0.34729  0.51092  0.19396  Biso   1.000  Mn
  Mn10     1.0000 0.16363  0.51092  0.69396  Biso   1.000  Mn
  H153     1.0000 0.33890  0.63840  0.03220  Biso   1.000  H
  H154     1.0000 0.19500  0.39700  0.97380  Biso   1.000  H
  H155     1.0000 0.17830  0.39380  0.86040  Biso   1.000  H
  H156     1.0000 0.27150  0.33120  0.07240  Biso   1.000  H
  H157     1.0000 0.49570  0.44880  0.20250  Biso   1.000  H
  H158     1.0000 0.48500  0.31760  0.12110  Biso   1.000  H
  H159     1.0000 0.44450  0.22300  0.00590  Biso   1.000  H
  H160     1.0000 0.38810  0.09420  0.93380  Biso   1.000  H
  H161     1.0000 0.14840  0.04500  0.97570  Biso   1.000  H
  H162     1.0000 0.20520  0.17940  0.04480  Biso   1.000  H
  H163     1.0000 0.34470  0.97520  0.88620  Biso   1.000  H
  H164     1.0000 0.29250  0.84040  0.81730  Biso   1.000  H
  H165     1.0000 0.05100  0.80340  0.82820  Biso   1.000  H
  H166     1.0000 0.10190  0.93640  0.89780  Biso   1.000  H
  H167     1.0000 0.23660  0.70220  0.78480  Biso   1.000  H
  H168     1.0000 0.00950  0.69440  0.73490  Biso   1.000  H
  H169     1.0000 0.00370  0.56180  0.66080  Biso   1.000  H
  H170     1.0000 0.36800  0.70700  0.95650  Biso   1.000  H
  H171     1.0000 0.33270  0.66940  0.88200  Biso   1.000  H
  H172     1.0000 0.29950  0.63840  0.53220  Biso   1.000  H
  H173     1.0000 0.20200  0.39700  0.47380  Biso   1.000  H
  H174     1.0000 0.21550  0.39380  0.36040  Biso   1.000  H
  H175     1.0000 0.05970  0.33120  0.57240  Biso   1.000  H
  H176     1.0000 0.95310  0.44880  0.70250  Biso   1.000  H
  H177     1.0000 0.83260  0.31760  0.62110  Biso   1.000  H
  H178     1.0000 0.77850  0.22300  0.50590  Biso   1.000  H
  H179     1.0000 0.70610  0.09420  0.43380  Biso   1.000  H
  H180     1.0000 0.89660  0.04500  0.47570  Biso   1.000  H
  H181     1.0000 0.97420  0.17940  0.54480  Biso   1.000  H
  H182     1.0000 0.63050  0.97520  0.38620  Biso   1.000  H
  H183     1.0000 0.54790  0.84040  0.31730  Biso   1.000  H
  H184     1.0000 0.75240  0.80340  0.32820  Biso   1.000  H
  H185     1.0000 0.83450  0.93640  0.39780  Biso   1.000  H
  H186     1.0000 0.46560  0.70220  0.28480  Biso   1.000  H
  H187     1.0000 0.68490  0.69440  0.23490  Biso   1.000  H
  H188     1.0000 0.55810  0.56180  0.16080  Biso   1.000  H
  H189     1.0000 0.33900  0.70700  0.45650  Biso   1.000  H
  H190     1.0000 0.33670  0.66940  0.38200  Biso   1.000  H
  C209     1.0000 0.24523  0.51466  0.87970  Biso   1.000  C
  C210     1.0000 0.29481  0.59062  0.93100  Biso   1.000  C
  C211     1.0000 0.30582  0.58964  0.99730  Biso   1.000  C
  C212     1.0000 0.26856  0.51752  0.01240  Biso   1.000  C
  C213     1.0000 0.22044  0.44508  0.96260  Biso   1.000  C
  C214     1.0000 0.20960  0.44320  0.89500  Biso   1.000  C
  C215     1.0000 0.23070  0.51620  0.80780  Biso   1.000  C
  C216     1.0000 0.28355  0.51770  0.08350  Biso   1.000  C
  C217     1.0000 0.32368  0.34296  0.09502  Biso   1.000  C
  C218     1.0000 0.45027  0.40994  0.16790  Biso   1.000  C
  C219     1.0000 0.44386  0.33512  0.12210  Biso   1.000  C
  C220     1.0000 0.32901  0.21302  0.03540  Biso   1.000  C
  C221     1.0000 0.38585  0.18770  0.99980  Biso   1.000  C
  C222     1.0000 0.35170  0.11140  0.95750  Biso   1.000  C
  C223     1.0000 0.26245  0.05490  0.94660  Biso   1.000  C
  C224     1.0000 0.20686  0.08052  0.98110  Biso   1.000  C
  C225     1.0000 0.24180  0.16060  0.02360  Biso   1.000  C
  C226     1.0000 0.22863  0.96966  0.89957  Biso   1.000  C
  C227     1.0000 0.28572  0.94064  0.87490  Biso   1.000  C
  C228     1.0000 0.25445  0.85990  0.83330  Biso   1.000  C
  C229     1.0000 0.16634  0.80868  0.81570  Biso   1.000  C
  C230     1.0000 0.10994  0.83768  0.84000  Biso   1.000  C
  C231     1.0000 0.14046  0.91752  0.88170  Biso   1.000  C
  C232     1.0000 0.18126  0.68412  0.76400  Biso   1.000  C
  C233     1.0000 0.05299  0.67998  0.73500  Biso   1.000  C
  C234     1.0000 0.04887  0.60394  0.69400  Biso   1.000  C
  C235     1.0000 0.26943  0.51466  0.37970  Biso   1.000  C
  C236     1.0000 0.29581  0.59062  0.43100  Biso   1.000  C
  C237     1.0000 0.28382  0.58964  0.49730  Biso   1.000  C
  C238     1.0000 0.24896  0.51752  0.51240  Biso   1.000  C
  C239     1.0000 0.22464  0.44508  0.46260  Biso   1.000  C
  C240     1.0000 0.23360  0.44320  0.39500  Biso   1.000  C
  C241     1.0000 0.28550  0.51620  0.30780  Biso   1.000  C
  C242     1.0000 0.23415  0.51770  0.58350  Biso   1.000  C
  C243     1.0000 0.01928  0.34296  0.59502  Biso   1.000  C
  C244     1.0000 0.95967  0.40994  0.66790  Biso   1.000  C
  C245     1.0000 0.89126  0.33512  0.62210  Biso   1.000  C
  C246     1.0000 0.88401  0.21302  0.53540  Biso   1.000  C
  C247     1.0000 0.80185  0.18770  0.49980  Biso   1.000  C
  C248     1.0000 0.75970  0.11140  0.45750  Biso   1.000  C
  C249     1.0000 0.79245  0.05490  0.44660  Biso   1.000  C
  C250     1.0000 0.87366  0.08052  0.48110  Biso   1.000  C
  C251     1.0000 0.91880  0.16060  0.52360  Biso   1.000  C
  C252     1.0000 0.74103  0.96966  0.39957  Biso   1.000  C
  C253     1.0000 0.65492  0.94064  0.37490  Biso   1.000  C
  C254     1.0000 0.60545  0.85990  0.33330  Biso   1.000  C
  C255     1.0000 0.64234  0.80868  0.31570  Biso   1.000  C
  C256     1.0000 0.72774  0.83768  0.34000  Biso   1.000  C
  C257     1.0000 0.77706  0.91752  0.38170  Biso   1.000  C
  C258     1.0000 0.50286  0.68412  0.26400  Biso   1.000  C
  C259     1.0000 0.62699  0.67998  0.23500  Biso   1.000  C
  C260     1.0000 0.55507  0.60394  0.19400  Biso   1.000  C
  N41      1.0000 0.33693  0.66466  0.92210  Biso   1.000  N
  N42      1.0000 0.37522  0.41304  0.15041  Biso   1.000  N
  N43      1.0000 0.36413  0.29386  0.07953  Biso   1.000  N
  N44      1.0000 0.13548  0.72816  0.77530  Biso   1.000  N
  N45      1.0000 0.12787  0.60634  0.71460  Biso   1.000  N
  N46      1.0000 0.32773  0.66466  0.42210  Biso   1.000  N
  N47      1.0000 0.03782  0.41304  0.65041  Biso   1.000  N
  N48      1.0000 0.92973  0.29386  0.57953  Biso   1.000  N
  N49      1.0000 0.59268  0.72816  0.27530  Biso   1.000  N
  N50      1.0000 0.47847  0.60634  0.21460  Biso   1.000  N
  O33      1.0000 0.17987  0.45290  0.76486  Biso   1.000  O
  O34      1.0000 0.27248  0.57884  0.79036  Biso   1.000  O
  O35      1.0000 0.34107  0.58418  0.12419  Biso   1.000  O
  O36      1.0000 0.24840  0.46120  0.10751  Biso   1.000  O
  O37      1.0000 0.27303  0.45290  0.26486  Biso   1.000  O
  O38      1.0000 0.30636  0.57884  0.29036  Biso   1.000  O
  O39      1.0000 0.24311  0.58418  0.62419  Biso   1.000  O
  O40      1.0000 0.21280  0.46120  0.60751  Biso   1.000  O
