data_image0
_cell_length_a       11.367
_cell_length_b       24.373
_cell_length_c       36.596
_cell_angle_alpha    97.685
_cell_angle_beta     90
_cell_angle_gamma    90

_symmetry_space_group_name_H-M    P 1
_symmetry_int_tables_number       1

loop_
  _symmetry_equiv_pos_as_xyz
  'x, y, z'

loop_
  _atom_site_label
  _atom_site_occupancy
  _atom_site_fract_x
  _atom_site_fract_y
  _atom_site_fract_z
  _atom_site_thermal_displace_type
  _atom_site_B_iso_or_equiv
  _atom_site_type_symbol
  Cd1      1.0000 0.35686  0.67245  0.84208  Biso   1.000  Cd
  Cd2      1.0000 0.63271  0.71630  0.88137  Biso   1.000  Cd
  Cd3      1.0000 0.08209  0.29894  0.09142  Biso   1.000  Cd
  Cd4      1.0000 0.85686  0.32755  0.65792  Biso   1.000  Cd
  Cd5      1.0000 0.13271  0.28370  0.61863  Biso   1.000  Cd
  Cd6      1.0000 0.58209  0.70106  0.40858  Biso   1.000  Cd
  Cd7      1.0000 0.64314  0.32755  0.15792  Biso   1.000  Cd
  Cd8      1.0000 0.36729  0.28370  0.11863  Biso   1.000  Cd
  Cd9      1.0000 0.91791  0.70106  0.90858  Biso   1.000  Cd
  Cd10     1.0000 0.14314  0.67245  0.34208  Biso   1.000  Cd
  Cd11     1.0000 0.86729  0.71630  0.38137  Biso   1.000  Cd
  Cd12     1.0000 0.41791  0.29894  0.59142  Biso   1.000  Cd
  H1       1.0000 0.37470  0.75450  0.13420  Biso   1.000  H
  H2       1.0000 0.41770  0.74540  0.17380  Biso   1.000  H
  H3       1.0000 0.58620  0.72180  0.08920  Biso   1.000  H
  H4       1.0000 0.56520  0.65740  0.08200  Biso   1.000  H
  H5       1.0000 0.39340  0.64700  0.16300  Biso   1.000  H
  H6       1.0000 0.34210  0.65110  0.12350  Biso   1.000  H
  H7       1.0000 0.65420  0.65100  0.14170  Biso   1.000  H
  H8       1.0000 0.66710  0.71570  0.15170  Biso   1.000  H
  H9       1.0000 0.42880  0.84490  0.17870  Biso   1.000  H
  H10      1.0000 0.43140  0.85310  0.13680  Biso   1.000  H
  H11      1.0000 0.72990  0.90400  0.13620  Biso   1.000  H
  H12      1.0000 0.70430  0.83990  0.13060  Biso   1.000  H
  H13      1.0000 0.48730  0.94850  0.14660  Biso   1.000  H
  H14      1.0000 0.47350  0.94750  0.18930  Biso   1.000  H
  H15      1.0000 0.68070  0.83760  0.19650  Biso   1.000  H
  H16      1.0000 0.71000  0.90120  0.20450  Biso   1.000  H
  H17      1.0000 0.24980  0.71720  0.03680  Biso   1.000  H
  H18      1.0000 0.22290  0.70580  0.97370  Biso   1.000  H
  H19      1.0000 0.56170  0.66500  0.95940  Biso   1.000  H
  H20      1.0000 0.58750  0.67390  0.02220  Biso   1.000  H
  H21      1.0000 0.24770  0.58150  0.14570  Biso   1.000  H
  H22      1.0000 0.14460  0.49920  0.14150  Biso   1.000  H
  H23      1.0000 0.43280  0.41580  0.10300  Biso   1.000  H
  H24      1.0000 0.53370  0.49790  0.10550  Biso   1.000  H
  H25      1.0000 0.81570  0.68770  0.18400  Biso   1.000  H
  H26      1.0000 0.95270  0.68200  0.23000  Biso   1.000  H
  H27      1.0000 0.69730  0.65010  0.29870  Biso   1.000  H
  H28      1.0000 0.55880  0.65990  0.25450  Biso   1.000  H
  H29      1.0000 0.48320  0.86230  0.04280  Biso   1.000  H
  H30      1.0000 0.53000  0.81420  0.98660  Biso   1.000  H
  H31      1.0000 0.85550  0.79010  0.02110  Biso   1.000  H
  H32      1.0000 0.80610  0.83750  0.08010  Biso   1.000  H
  H33      1.0000 0.76960  0.05600  0.17630  Biso   1.000  H
  H34      1.0000 0.74900  0.14620  0.16690  Biso   1.000  H
  H35      1.0000 0.40200  0.12490  0.15760  Biso   1.000  H
  H36      1.0000 0.42240  0.03520  0.16890  Biso   1.000  H
  H37      1.0000 0.40210  0.84590  0.26600  Biso   1.000  H
  H38      1.0000 0.41370  0.79270  0.31390  Biso   1.000  H
  H39      1.0000 0.76540  0.79350  0.30840  Biso   1.000  H
  H40      1.0000 0.75450  0.84360  0.25830  Biso   1.000  H
  H41      1.0000 0.20310  0.58010  0.86690  Biso   1.000  H
  H42      1.0000 0.35580  0.48520  0.80900  Biso   1.000  H
  H43      1.0000 0.24410  0.44870  0.79860  Biso   1.000  H
  H44      1.0000 0.32570  0.43600  0.83100  Biso   1.000  H
  H45      1.0000 0.08490  0.51480  0.87950  Biso   1.000  H
  H46      1.0000 0.14370  0.45650  0.87880  Biso   1.000  H
  H47      1.0000 0.06290  0.46860  0.84610  Biso   1.000  H
  H48      1.0000 0.87470  0.24550  0.36580  Biso   1.000  H
  H49      1.0000 0.91770  0.25460  0.32620  Biso   1.000  H
  H50      1.0000 0.08620  0.27820  0.41080  Biso   1.000  H
  H51      1.0000 0.06520  0.34260  0.41800  Biso   1.000  H
  H52      1.0000 0.89340  0.35300  0.33700  Biso   1.000  H
  H53      1.0000 0.84210  0.34890  0.37650  Biso   1.000  H
  H54      1.0000 0.15420  0.34900  0.35830  Biso   1.000  H
  H55      1.0000 0.16710  0.28430  0.34830  Biso   1.000  H
  H56      1.0000 0.92880  0.15510  0.32130  Biso   1.000  H
  H57      1.0000 0.93140  0.14690  0.36320  Biso   1.000  H
  H58      1.0000 0.22990  0.09600  0.36380  Biso   1.000  H
  H59      1.0000 0.20430  0.16010  0.36940  Biso   1.000  H
  H60      1.0000 0.98730  0.05150  0.35340  Biso   1.000  H
  H61      1.0000 0.97350  0.05250  0.31070  Biso   1.000  H
  H62      1.0000 0.18070  0.16240  0.30350  Biso   1.000  H
  H63      1.0000 0.21000  0.09880  0.29550  Biso   1.000  H
  H64      1.0000 0.74980  0.28280  0.46320  Biso   1.000  H
  H65      1.0000 0.72290  0.29420  0.52630  Biso   1.000  H
  H66      1.0000 0.06170  0.33500  0.54060  Biso   1.000  H
  H67      1.0000 0.08750  0.32610  0.47780  Biso   1.000  H
  H68      1.0000 0.74770  0.41850  0.35430  Biso   1.000  H
  H69      1.0000 0.64460  0.50080  0.35850  Biso   1.000  H
  H70      1.0000 0.93280  0.58420  0.39700  Biso   1.000  H
  H71      1.0000 0.03370  0.50210  0.39450  Biso   1.000  H
  H72      1.0000 0.31570  0.31230  0.31600  Biso   1.000  H
  H73      1.0000 0.45270  0.31800  0.27000  Biso   1.000  H
  H74      1.0000 0.19730  0.34990  0.20130  Biso   1.000  H
  H75      1.0000 0.05880  0.34010  0.24550  Biso   1.000  H
  H76      1.0000 0.98320  0.13770  0.45720  Biso   1.000  H
  H77      1.0000 0.03000  0.18580  0.51340  Biso   1.000  H
  H78      1.0000 0.35550  0.20990  0.47890  Biso   1.000  H
  H79      1.0000 0.30610  0.16250  0.41990  Biso   1.000  H
  H80      1.0000 0.26960  0.94400  0.32370  Biso   1.000  H
  H81      1.0000 0.24900  0.85380  0.33310  Biso   1.000  H
  H82      1.0000 0.90200  0.87510  0.34240  Biso   1.000  H
  H83      1.0000 0.92240  0.96480  0.33110  Biso   1.000  H
  H84      1.0000 0.90210  0.15410  0.23400  Biso   1.000  H
  H85      1.0000 0.91370  0.20730  0.18610  Biso   1.000  H
  H86      1.0000 0.26540  0.20650  0.19160  Biso   1.000  H
  H87      1.0000 0.25450  0.15640  0.24170  Biso   1.000  H
  H88      1.0000 0.70310  0.41990  0.63310  Biso   1.000  H
  H89      1.0000 0.85580  0.51480  0.69100  Biso   1.000  H
  H90      1.0000 0.74410  0.55130  0.70140  Biso   1.000  H
  H91      1.0000 0.82570  0.56400  0.66900  Biso   1.000  H
  H92      1.0000 0.58490  0.48520  0.62050  Biso   1.000  H
  H93      1.0000 0.64370  0.54350  0.62120  Biso   1.000  H
  H94      1.0000 0.56290  0.53140  0.65390  Biso   1.000  H
  H95      1.0000 0.62530  0.24550  0.86580  Biso   1.000  H
  H96      1.0000 0.58230  0.25460  0.82620  Biso   1.000  H
  H97      1.0000 0.41380  0.27820  0.91080  Biso   1.000  H
  H98      1.0000 0.43480  0.34260  0.91800  Biso   1.000  H
  H99      1.0000 0.60660  0.35300  0.83700  Biso   1.000  H
  H100     1.0000 0.65790  0.34890  0.87650  Biso   1.000  H
  H101     1.0000 0.34580  0.34900  0.85830  Biso   1.000  H
  H102     1.0000 0.33290  0.28430  0.84830  Biso   1.000  H
  H103     1.0000 0.57120  0.15510  0.82130  Biso   1.000  H
  H104     1.0000 0.56860  0.14690  0.86320  Biso   1.000  H
  H105     1.0000 0.27010  0.09600  0.86380  Biso   1.000  H
  H106     1.0000 0.29570  0.16010  0.86940  Biso   1.000  H
  H107     1.0000 0.51270  0.05150  0.85340  Biso   1.000  H
  H108     1.0000 0.52650  0.05250  0.81070  Biso   1.000  H
  H109     1.0000 0.31930  0.16240  0.80350  Biso   1.000  H
  H110     1.0000 0.29000  0.09880  0.79550  Biso   1.000  H
  H111     1.0000 0.75020  0.28280  0.96320  Biso   1.000  H
  H112     1.0000 0.77710  0.29420  0.02630  Biso   1.000  H
  H113     1.0000 0.43830  0.33500  0.04060  Biso   1.000  H
  H114     1.0000 0.41250  0.32610  0.97780  Biso   1.000  H
  H115     1.0000 0.75230  0.41850  0.85430  Biso   1.000  H
  H116     1.0000 0.85540  0.50080  0.85850  Biso   1.000  H
  H117     1.0000 0.56720  0.58420  0.89700  Biso   1.000  H
  H118     1.0000 0.46630  0.50210  0.89450  Biso   1.000  H
  H119     1.0000 0.18430  0.31230  0.81600  Biso   1.000  H
  H120     1.0000 0.04730  0.31800  0.77000  Biso   1.000  H
  H121     1.0000 0.30270  0.34990  0.70130  Biso   1.000  H
  H122     1.0000 0.44120  0.34010  0.74550  Biso   1.000  H
  H123     1.0000 0.51680  0.13770  0.95720  Biso   1.000  H
  H124     1.0000 0.47000  0.18580  0.01340  Biso   1.000  H
  H125     1.0000 0.14450  0.20990  0.97890  Biso   1.000  H
  H126     1.0000 0.19390  0.16250  0.91990  Biso   1.000  H
  H127     1.0000 0.23040  0.94400  0.82370  Biso   1.000  H
  H128     1.0000 0.25100  0.85380  0.83310  Biso   1.000  H
  H129     1.0000 0.59800  0.87510  0.84240  Biso   1.000  H
  H130     1.0000 0.57760  0.96480  0.83110  Biso   1.000  H
  H131     1.0000 0.59790  0.15410  0.73400  Biso   1.000  H
  H132     1.0000 0.58630  0.20730  0.68610  Biso   1.000  H
  H133     1.0000 0.23460  0.20650  0.69160  Biso   1.000  H
  H134     1.0000 0.24550  0.15640  0.74170  Biso   1.000  H
  H135     1.0000 0.79690  0.41990  0.13310  Biso   1.000  H
  H136     1.0000 0.64420  0.51480  0.19100  Biso   1.000  H
  H137     1.0000 0.75590  0.55130  0.20140  Biso   1.000  H
  H138     1.0000 0.67430  0.56400  0.16900  Biso   1.000  H
  H139     1.0000 0.91510  0.48520  0.12050  Biso   1.000  H
  H140     1.0000 0.85630  0.54350  0.12120  Biso   1.000  H
  H141     1.0000 0.93710  0.53140  0.15390  Biso   1.000  H
  H142     1.0000 0.12530  0.75450  0.63420  Biso   1.000  H
  H143     1.0000 0.08230  0.74540  0.67380  Biso   1.000  H
  H144     1.0000 0.91380  0.72180  0.58920  Biso   1.000  H
  H145     1.0000 0.93480  0.65740  0.58200  Biso   1.000  H
  H146     1.0000 0.10660  0.64700  0.66300  Biso   1.000  H
  H147     1.0000 0.15790  0.65110  0.62350  Biso   1.000  H
  H148     1.0000 0.84580  0.65100  0.64170  Biso   1.000  H
  H149     1.0000 0.83290  0.71570  0.65170  Biso   1.000  H
  H150     1.0000 0.07120  0.84490  0.67870  Biso   1.000  H
  H151     1.0000 0.06860  0.85310  0.63680  Biso   1.000  H
  H152     1.0000 0.77010  0.90400  0.63620  Biso   1.000  H
  H153     1.0000 0.79570  0.83990  0.63060  Biso   1.000  H
  H154     1.0000 0.01270  0.94850  0.64660  Biso   1.000  H
  H155     1.0000 0.02650  0.94750  0.68930  Biso   1.000  H
  H156     1.0000 0.81930  0.83760  0.69650  Biso   1.000  H
  H157     1.0000 0.79000  0.90120  0.70450  Biso   1.000  H
  H158     1.0000 0.25020  0.71720  0.53680  Biso   1.000  H
  H159     1.0000 0.27710  0.70580  0.47370  Biso   1.000  H
  H160     1.0000 0.93830  0.66500  0.45940  Biso   1.000  H
  H161     1.0000 0.91250  0.67390  0.52220  Biso   1.000  H
  H162     1.0000 0.25230  0.58150  0.64570  Biso   1.000  H
  H163     1.0000 0.35540  0.49920  0.64150  Biso   1.000  H
  H164     1.0000 0.06720  0.41580  0.60300  Biso   1.000  H
  H165     1.0000 0.96630  0.49790  0.60550  Biso   1.000  H
  H166     1.0000 0.68430  0.68770  0.68400  Biso   1.000  H
  H167     1.0000 0.54730  0.68200  0.73000  Biso   1.000  H
  H168     1.0000 0.80270  0.65010  0.79870  Biso   1.000  H
  H169     1.0000 0.94120  0.65990  0.75450  Biso   1.000  H
  H170     1.0000 0.01680  0.86230  0.54280  Biso   1.000  H
  H171     1.0000 0.97000  0.81420  0.48660  Biso   1.000  H
  H172     1.0000 0.64450  0.79010  0.52110  Biso   1.000  H
  H173     1.0000 0.69390  0.83750  0.58010  Biso   1.000  H
  H174     1.0000 0.73040  0.05600  0.67630  Biso   1.000  H
  H175     1.0000 0.75100  0.14620  0.66690  Biso   1.000  H
  H176     1.0000 0.09800  0.12490  0.65760  Biso   1.000  H
  H177     1.0000 0.07760  0.03520  0.66890  Biso   1.000  H
  H178     1.0000 0.09790  0.84590  0.76600  Biso   1.000  H
  H179     1.0000 0.08630  0.79270  0.81390  Biso   1.000  H
  H180     1.0000 0.73460  0.79350  0.80840  Biso   1.000  H
  H181     1.0000 0.74550  0.84360  0.75830  Biso   1.000  H
  H182     1.0000 0.29690  0.58010  0.36690  Biso   1.000  H
  H183     1.0000 0.14420  0.48520  0.30900  Biso   1.000  H
  H184     1.0000 0.25590  0.44870  0.29860  Biso   1.000  H
  H185     1.0000 0.17430  0.43600  0.33100  Biso   1.000  H
  H186     1.0000 0.41510  0.51480  0.37950  Biso   1.000  H
  H187     1.0000 0.35630  0.45650  0.37880  Biso   1.000  H
  H188     1.0000 0.43710  0.46860  0.34610  Biso   1.000  H
  C1       1.0000 0.44310  0.74730  0.14870  Biso   1.000  C
  C2       1.0000 0.50000  0.69270  0.13261  Biso   1.000  C
  C3       1.0000 0.53050  0.69260  0.09204  Biso   1.000  C
  C4       1.0000 0.41360  0.64610  0.13720  Biso   1.000  C
  C5       1.0000 0.61480  0.68450  0.15280  Biso   1.000  C
  C6       1.0000 0.47860  0.84350  0.15710  Biso   1.000  C
  C7       1.0000 0.58090  0.88410  0.16470  Biso   1.000  C
  C8       1.0000 0.66830  0.87630  0.13250  Biso   1.000  C
  C9       1.0000 0.52880  0.94270  0.16890  Biso   1.000  C
  C10      1.0000 0.64690  0.87440  0.19950  Biso   1.000  C
  C11      1.0000 0.41980  0.69470  0.03590  Biso   1.000  C
  C12      1.0000 0.31230  0.70560  0.02120  Biso   1.000  C
  C13      1.0000 0.29670  0.69940  0.98330  Biso   1.000  C
  C14      1.0000 0.38880  0.68390  0.95945  Biso   1.000  C
  C15      1.0000 0.49800  0.67490  0.97489  Biso   1.000  C
  C16      1.0000 0.51380  0.68010  0.01250  Biso   1.000  C
  C17      1.0000 0.37110  0.67860  0.91900  Biso   1.000  C
  C18      1.0000 0.39880  0.54880  0.12430  Biso   1.000  C
  C19      1.0000 0.28420  0.54850  0.13630  Biso   1.000  C
  C20      1.0000 0.22310  0.49880  0.13420  Biso   1.000  C
  C21      1.0000 0.27680  0.44830  0.12150  Biso   1.000  C
  C22      1.0000 0.39460  0.44890  0.11110  Biso   1.000  C
  C23      1.0000 0.45500  0.49820  0.11250  Biso   1.000  C
  C24      1.0000 0.20970  0.39640  0.11800  Biso   1.000  C
  C25      1.0000 0.67330  0.67570  0.21502  Biso   1.000  C
  C26      1.0000 0.79150  0.68120  0.20732  Biso   1.000  C
  C27      1.0000 0.87340  0.67690  0.23470  Biso   1.000  C
  C28      1.0000 0.83930  0.66520  0.26900  Biso   1.000  C
  C29      1.0000 0.72110  0.65850  0.27578  Biso   1.000  C
  C30      1.0000 0.63820  0.66400  0.24936  Biso   1.000  C
  C31      1.0000 0.92920  0.66270  0.29863  Biso   1.000  C
  C32      1.0000 0.64010  0.85370  0.06720  Biso   1.000  C
  C33      1.0000 0.55820  0.84740  0.03880  Biso   1.000  C
  C34      1.0000 0.58710  0.81920  0.00500  Biso   1.000  C
  C35      1.0000 0.69800  0.79800  0.99740  Biso   1.000  C
  C36      1.0000 0.78020  0.80440  0.02540  Biso   1.000  C
  C37      1.0000 0.75050  0.83310  0.06130  Biso   1.000  C
  C38      1.0000 0.72730  0.76690  0.96040  Biso   1.000  C
  C39      1.0000 0.59920  0.03640  0.17170  Biso   1.000  C
  C40      1.0000 0.69520  0.07000  0.17220  Biso   1.000  C
  C41      1.0000 0.68260  0.12390  0.16670  Biso   1.000  C
  C42      1.0000 0.57280  0.14620  0.16100  Biso   1.000  C
  C43      1.0000 0.47670  0.11130  0.16150  Biso   1.000  C
  C44      1.0000 0.48850  0.05740  0.16760  Biso   1.000  C
  C45      1.0000 0.55620  0.20480  0.15370  Biso   1.000  C
  C46      1.0000 0.57940  0.84910  0.25740  Biso   1.000  C
  C47      1.0000 0.47470  0.83470  0.27410  Biso   1.000  C
  C48      1.0000 0.48230  0.80340  0.30290  Biso   1.000  C
  C49      1.0000 0.58910  0.78780  0.31558  Biso   1.000  C
  C50      1.0000 0.69280  0.80320  0.29950  Biso   1.000  C
  C51      1.0000 0.68600  0.83380  0.26970  Biso   1.000  C
  C52      1.0000 0.59530  0.75440  0.34772  Biso   1.000  C
  C53      1.0000 0.25000  0.55690  0.85080  Biso   1.000  C
  C54      1.0000 0.29320  0.46480  0.81860  Biso   1.000  C
  C55      1.0000 0.11960  0.48420  0.86400  Biso   1.000  C
  C56      1.0000 0.94310  0.25270  0.35130  Biso   1.000  C
  C57      1.0000 0.00000  0.30730  0.36739  Biso   1.000  C
  C58      1.0000 0.03050  0.30740  0.40796  Biso   1.000  C
  C59      1.0000 0.91360  0.35390  0.36280  Biso   1.000  C
  C60      1.0000 0.11480  0.31550  0.34720  Biso   1.000  C
  C61      1.0000 0.97860  0.15650  0.34290  Biso   1.000  C
  C62      1.0000 0.08090  0.11590  0.33530  Biso   1.000  C
  C63      1.0000 0.16830  0.12370  0.36750  Biso   1.000  C
  C64      1.0000 0.02880  0.05730  0.33110  Biso   1.000  C
  C65      1.0000 0.14690  0.12560  0.30050  Biso   1.000  C
  C66      1.0000 0.91980  0.30530  0.46410  Biso   1.000  C
  C67      1.0000 0.81230  0.29440  0.47880  Biso   1.000  C
  C68      1.0000 0.79670  0.30060  0.51670  Biso   1.000  C
  C69      1.0000 0.88880  0.31610  0.54055  Biso   1.000  C
  C70      1.0000 0.99800  0.32510  0.52511  Biso   1.000  C
  C71      1.0000 0.01380  0.31990  0.48750  Biso   1.000  C
  C72      1.0000 0.87110  0.32140  0.58100  Biso   1.000  C
  C73      1.0000 0.89880  0.45120  0.37570  Biso   1.000  C
  C74      1.0000 0.78420  0.45150  0.36370  Biso   1.000  C
  C75      1.0000 0.72310  0.50120  0.36580  Biso   1.000  C
  C76      1.0000 0.77680  0.55170  0.37850  Biso   1.000  C
  C77      1.0000 0.89460  0.55110  0.38890  Biso   1.000  C
  C78      1.0000 0.95500  0.50180  0.38750  Biso   1.000  C
  C79      1.0000 0.70970  0.60360  0.38200  Biso   1.000  C
  C80      1.0000 0.17330  0.32430  0.28498  Biso   1.000  C
  C81      1.0000 0.29150  0.31880  0.29268  Biso   1.000  C
  C82      1.0000 0.37340  0.32310  0.26530  Biso   1.000  C
  C83      1.0000 0.33930  0.33480  0.23100  Biso   1.000  C
  C84      1.0000 0.22110  0.34150  0.22422  Biso   1.000  C
  C85      1.0000 0.13820  0.33600  0.25064  Biso   1.000  C
  C86      1.0000 0.42920  0.33730  0.20137  Biso   1.000  C
  C87      1.0000 0.14010  0.14630  0.43280  Biso   1.000  C
  C88      1.0000 0.05820  0.15260  0.46120  Biso   1.000  C
  C89      1.0000 0.08710  0.18080  0.49500  Biso   1.000  C
  C90      1.0000 0.19800  0.20200  0.50260  Biso   1.000  C
  C91      1.0000 0.28020  0.19560  0.47460  Biso   1.000  C
  C92      1.0000 0.25050  0.16690  0.43870  Biso   1.000  C
  C93      1.0000 0.22730  0.23310  0.53960  Biso   1.000  C
  C94      1.0000 0.09920  0.96360  0.32830  Biso   1.000  C
  C95      1.0000 0.19520  0.93000  0.32780  Biso   1.000  C
  C96      1.0000 0.18260  0.87610  0.33330  Biso   1.000  C
  C97      1.0000 0.07280  0.85380  0.33900  Biso   1.000  C
  C98      1.0000 0.97670  0.88870  0.33850  Biso   1.000  C
  C99      1.0000 0.98850  0.94260  0.33240  Biso   1.000  C
  C100     1.0000 0.05620  0.79520  0.34630  Biso   1.000  C
  C101     1.0000 0.07940  0.15090  0.24260  Biso   1.000  C
  C102     1.0000 0.97470  0.16530  0.22590  Biso   1.000  C
  C103     1.0000 0.98230  0.19660  0.19710  Biso   1.000  C
  C104     1.0000 0.08910  0.21220  0.18442  Biso   1.000  C
  C105     1.0000 0.19280  0.19680  0.20050  Biso   1.000  C
  C106     1.0000 0.18600  0.16620  0.23030  Biso   1.000  C
  C107     1.0000 0.09530  0.24560  0.15228  Biso   1.000  C
  C108     1.0000 0.75000  0.44310  0.64920  Biso   1.000  C
  C109     1.0000 0.79320  0.53520  0.68140  Biso   1.000  C
  C110     1.0000 0.61960  0.51580  0.63600  Biso   1.000  C
  C111     1.0000 0.55690  0.25270  0.85130  Biso   1.000  C
  C112     1.0000 0.50000  0.30730  0.86739  Biso   1.000  C
  C113     1.0000 0.46950  0.30740  0.90796  Biso   1.000  C
  C114     1.0000 0.58640  0.35390  0.86280  Biso   1.000  C
  C115     1.0000 0.38520  0.31550  0.84720  Biso   1.000  C
  C116     1.0000 0.52140  0.15650  0.84290  Biso   1.000  C
  C117     1.0000 0.41910  0.11590  0.83530  Biso   1.000  C
  C118     1.0000 0.33170  0.12370  0.86750  Biso   1.000  C
  C119     1.0000 0.47120  0.05730  0.83110  Biso   1.000  C
  C120     1.0000 0.35310  0.12560  0.80050  Biso   1.000  C
  C121     1.0000 0.58020  0.30530  0.96410  Biso   1.000  C
  C122     1.0000 0.68770  0.29440  0.97880  Biso   1.000  C
  C123     1.0000 0.70330  0.30060  0.01670  Biso   1.000  C
  C124     1.0000 0.61120  0.31610  0.04055  Biso   1.000  C
  C125     1.0000 0.50200  0.32510  0.02511  Biso   1.000  C
  C126     1.0000 0.48620  0.31990  0.98750  Biso   1.000  C
  C127     1.0000 0.62890  0.32140  0.08100  Biso   1.000  C
  C128     1.0000 0.60120  0.45120  0.87570  Biso   1.000  C
  C129     1.0000 0.71580  0.45150  0.86370  Biso   1.000  C
  C130     1.0000 0.77690  0.50120  0.86580  Biso   1.000  C
  C131     1.0000 0.72320  0.55170  0.87850  Biso   1.000  C
  C132     1.0000 0.60540  0.55110  0.88890  Biso   1.000  C
  C133     1.0000 0.54500  0.50180  0.88750  Biso   1.000  C
  C134     1.0000 0.79030  0.60360  0.88200  Biso   1.000  C
  C135     1.0000 0.32670  0.32430  0.78498  Biso   1.000  C
  C136     1.0000 0.20850  0.31880  0.79268  Biso   1.000  C
  C137     1.0000 0.12660  0.32310  0.76530  Biso   1.000  C
  C138     1.0000 0.16070  0.33480  0.73100  Biso   1.000  C
  C139     1.0000 0.27890  0.34150  0.72422  Biso   1.000  C
  C140     1.0000 0.36180  0.33600  0.75064  Biso   1.000  C
  C141     1.0000 0.07080  0.33730  0.70137  Biso   1.000  C
  C142     1.0000 0.35990  0.14630  0.93280  Biso   1.000  C
  C143     1.0000 0.44180  0.15260  0.96120  Biso   1.000  C
  C144     1.0000 0.41290  0.18080  0.99500  Biso   1.000  C
  C145     1.0000 0.30200  0.20200  0.00260  Biso   1.000  C
  C146     1.0000 0.21980  0.19560  0.97460  Biso   1.000  C
  C147     1.0000 0.24950  0.16690  0.93870  Biso   1.000  C
  C148     1.0000 0.27270  0.23310  0.03960  Biso   1.000  C
  C149     1.0000 0.40080  0.96360  0.82830  Biso   1.000  C
  C150     1.0000 0.30480  0.93000  0.82780  Biso   1.000  C
  C151     1.0000 0.31740  0.87610  0.83330  Biso   1.000  C
  C152     1.0000 0.42720  0.85380  0.83900  Biso   1.000  C
  C153     1.0000 0.52330  0.88870  0.83850  Biso   1.000  C
  C154     1.0000 0.51150  0.94260  0.83240  Biso   1.000  C
  C155     1.0000 0.44380  0.79520  0.84630  Biso   1.000  C
  C156     1.0000 0.42060  0.15090  0.74260  Biso   1.000  C
  C157     1.0000 0.52530  0.16530  0.72590  Biso   1.000  C
  C158     1.0000 0.51770  0.19660  0.69710  Biso   1.000  C
  C159     1.0000 0.41090  0.21220  0.68442  Biso   1.000  C
  C160     1.0000 0.30720  0.19680  0.70050  Biso   1.000  C
  C161     1.0000 0.31400  0.16620  0.73030  Biso   1.000  C
  C162     1.0000 0.40470  0.24560  0.65228  Biso   1.000  C
  C163     1.0000 0.75000  0.44310  0.14920  Biso   1.000  C
  C164     1.0000 0.70680  0.53520  0.18140  Biso   1.000  C
  C165     1.0000 0.88040  0.51580  0.13600  Biso   1.000  C
  C166     1.0000 0.05690  0.74730  0.64870  Biso   1.000  C
  C167     1.0000 0.00000  0.69270  0.63261  Biso   1.000  C
  C168     1.0000 0.96950  0.69260  0.59204  Biso   1.000  C
  C169     1.0000 0.08640  0.64610  0.63720  Biso   1.000  C
  C170     1.0000 0.88520  0.68450  0.65280  Biso   1.000  C
  C171     1.0000 0.02140  0.84350  0.65710  Biso   1.000  C
  C172     1.0000 0.91910  0.88410  0.66470  Biso   1.000  C
  C173     1.0000 0.83170  0.87630  0.63250  Biso   1.000  C
  C174     1.0000 0.97120  0.94270  0.66890  Biso   1.000  C
  C175     1.0000 0.85310  0.87440  0.69950  Biso   1.000  C
  C176     1.0000 0.08020  0.69470  0.53590  Biso   1.000  C
  C177     1.0000 0.18770  0.70560  0.52120  Biso   1.000  C
  C178     1.0000 0.20330  0.69940  0.48330  Biso   1.000  C
  C179     1.0000 0.11120  0.68390  0.45945  Biso   1.000  C
  C180     1.0000 0.00200  0.67490  0.47489  Biso   1.000  C
  C181     1.0000 0.98620  0.68010  0.51250  Biso   1.000  C
  C182     1.0000 0.12890  0.67860  0.41900  Biso   1.000  C
  C183     1.0000 0.10120  0.54880  0.62430  Biso   1.000  C
  C184     1.0000 0.21580  0.54850  0.63630  Biso   1.000  C
  C185     1.0000 0.27690  0.49880  0.63420  Biso   1.000  C
  C186     1.0000 0.22320  0.44830  0.62150  Biso   1.000  C
  C187     1.0000 0.10540  0.44890  0.61110  Biso   1.000  C
  C188     1.0000 0.04500  0.49820  0.61250  Biso   1.000  C
  C189     1.0000 0.29030  0.39640  0.61800  Biso   1.000  C
  C190     1.0000 0.82670  0.67570  0.71502  Biso   1.000  C
  C191     1.0000 0.70850  0.68120  0.70732  Biso   1.000  C
  C192     1.0000 0.62660  0.67690  0.73470  Biso   1.000  C
  C193     1.0000 0.66070  0.66520  0.76900  Biso   1.000  C
  C194     1.0000 0.77890  0.65850  0.77578  Biso   1.000  C
  C195     1.0000 0.86180  0.66400  0.74936  Biso   1.000  C
  C196     1.0000 0.57080  0.66270  0.79863  Biso   1.000  C
  C197     1.0000 0.85990  0.85370  0.56720  Biso   1.000  C
  C198     1.0000 0.94180  0.84740  0.53880  Biso   1.000  C
  C199     1.0000 0.91290  0.81920  0.50500  Biso   1.000  C
  C200     1.0000 0.80200  0.79800  0.49740  Biso   1.000  C
  C201     1.0000 0.71980  0.80440  0.52540  Biso   1.000  C
  C202     1.0000 0.74950  0.83310  0.56130  Biso   1.000  C
  C203     1.0000 0.77270  0.76690  0.46040  Biso   1.000  C
  C204     1.0000 0.90080  0.03640  0.67170  Biso   1.000  C
  C205     1.0000 0.80480  0.07000  0.67220  Biso   1.000  C
  C206     1.0000 0.81740  0.12390  0.66670  Biso   1.000  C
  C207     1.0000 0.92720  0.14620  0.66100  Biso   1.000  C
  C208     1.0000 0.02330  0.11130  0.66150  Biso   1.000  C
  C209     1.0000 0.01150  0.05740  0.66760  Biso   1.000  C
  C210     1.0000 0.94380  0.20480  0.65370  Biso   1.000  C
  C211     1.0000 0.92060  0.84910  0.75740  Biso   1.000  C
  C212     1.0000 0.02530  0.83470  0.77410  Biso   1.000  C
  C213     1.0000 0.01770  0.80340  0.80290  Biso   1.000  C
  C214     1.0000 0.91090  0.78780  0.81558  Biso   1.000  C
  C215     1.0000 0.80720  0.80320  0.79950  Biso   1.000  C
  C216     1.0000 0.81400  0.83380  0.76970  Biso   1.000  C
  C217     1.0000 0.90470  0.75440  0.84772  Biso   1.000  C
  C218     1.0000 0.25000  0.55690  0.35080  Biso   1.000  C
  C219     1.0000 0.20680  0.46480  0.31860  Biso   1.000  C
  C220     1.0000 0.38040  0.48420  0.36400  Biso   1.000  C
  N1       1.0000 0.22100  0.50320  0.84530  Biso   1.000  N
  N2       1.0000 0.72100  0.49680  0.65470  Biso   1.000  N
  N3       1.0000 0.77900  0.49680  0.15470  Biso   1.000  N
  N4       1.0000 0.27900  0.50320  0.34530  Biso   1.000  N
  O1       1.0000 0.52590  0.78990  0.14811  Biso   1.000  O
  O2       1.0000 0.94220  0.35070  0.07050  Biso   1.000  O
  O3       1.0000 0.17190  0.67360  0.81857  Biso   1.000  O
  O4       1.0000 0.42370  0.70130  0.07356  Biso   1.000  O
  O5       1.0000 0.46590  0.59468  0.12380  Biso   1.000  O
  O6       1.0000 0.58420  0.68010  0.19004  Biso   1.000  O
  O7       1.0000 0.60380  0.88180  0.09959  Biso   1.000  O
  O8       1.0000 0.62260  0.98160  0.17570  Biso   1.000  O
  O9       1.0000 0.56400  0.88040  0.22909  Biso   1.000  O
  O10      1.0000 0.27030  0.67690  0.90570  Biso   1.000  O
  O11      1.0000 0.45950  0.67610  0.89793  Biso   1.000  O
  O12      1.0000 0.25240  0.35290  0.09876  Biso   1.000  O
  O13      1.0000 0.10700  0.39700  0.13070  Biso   1.000  O
  O14      1.0000 0.03580  0.66630  0.29013  Biso   1.000  O
  O15      1.0000 0.89380  0.65540  0.33032  Biso   1.000  O
  O16      1.0000 0.65340  0.76700  0.93573  Biso   1.000  O
  O17      1.0000 0.82600  0.74390  0.95737  Biso   1.000  O
  O18      1.0000 0.45410  0.21970  0.14705  Biso   1.000  O
  O19      1.0000 0.64740  0.23470  0.15437  Biso   1.000  O
  O20      1.0000 0.68890  0.75230  0.36422  Biso   1.000  O
  O21      1.0000 0.50300  0.73250  0.35727  Biso   1.000  O
  O22      1.0000 0.33140  0.57800  0.83675  Biso   1.000  O
  O23      1.0000 0.02590  0.21010  0.35189  Biso   1.000  O
  O24      1.0000 0.44220  0.64930  0.42950  Biso   1.000  O
  O25      1.0000 0.67190  0.32640  0.68143  Biso   1.000  O
  O26      1.0000 0.92370  0.29870  0.42644  Biso   1.000  O
  O27      1.0000 0.96590  0.40532  0.37620  Biso   1.000  O
  O28      1.0000 0.08420  0.31990  0.30996  Biso   1.000  O
  O29      1.0000 0.10380  0.11820  0.40041  Biso   1.000  O
  O30      1.0000 0.12260  0.01840  0.32430  Biso   1.000  O
  O31      1.0000 0.06400  0.11960  0.27091  Biso   1.000  O
  O32      1.0000 0.77030  0.32310  0.59430  Biso   1.000  O
  O33      1.0000 0.95950  0.32390  0.60207  Biso   1.000  O
  O34      1.0000 0.75240  0.64710  0.40124  Biso   1.000  O
  O35      1.0000 0.60700  0.60300  0.36930  Biso   1.000  O
  O36      1.0000 0.53580  0.33370  0.20987  Biso   1.000  O
  O37      1.0000 0.39380  0.34460  0.16968  Biso   1.000  O
  O38      1.0000 0.15340  0.23300  0.56427  Biso   1.000  O
  O39      1.0000 0.32600  0.25610  0.54263  Biso   1.000  O
  O40      1.0000 0.95410  0.78030  0.35295  Biso   1.000  O
  O41      1.0000 0.14740  0.76530  0.34563  Biso   1.000  O
  O42      1.0000 0.18890  0.24770  0.13578  Biso   1.000  O
  O43      1.0000 0.00300  0.26750  0.14273  Biso   1.000  O
  O44      1.0000 0.83140  0.42200  0.66325  Biso   1.000  O
  O45      1.0000 0.47410  0.21010  0.85189  Biso   1.000  O
  O46      1.0000 0.05780  0.64930  0.92950  Biso   1.000  O
  O47      1.0000 0.82810  0.32640  0.18143  Biso   1.000  O
  O48      1.0000 0.57630  0.29870  0.92644  Biso   1.000  O
  O49      1.0000 0.53410  0.40532  0.87620  Biso   1.000  O
  O50      1.0000 0.41580  0.31990  0.80996  Biso   1.000  O
  O51      1.0000 0.39620  0.11820  0.90041  Biso   1.000  O
  O52      1.0000 0.37740  0.01840  0.82430  Biso   1.000  O
  O53      1.0000 0.43600  0.11960  0.77091  Biso   1.000  O
  O54      1.0000 0.72970  0.32310  0.09430  Biso   1.000  O
  O55      1.0000 0.54050  0.32390  0.10207  Biso   1.000  O
  O56      1.0000 0.74760  0.64710  0.90124  Biso   1.000  O
  O57      1.0000 0.89300  0.60300  0.86930  Biso   1.000  O
  O58      1.0000 0.96420  0.33370  0.70987  Biso   1.000  O
  O59      1.0000 0.10620  0.34460  0.66968  Biso   1.000  O
  O60      1.0000 0.34660  0.23300  0.06427  Biso   1.000  O
  O61      1.0000 0.17400  0.25610  0.04263  Biso   1.000  O
  O62      1.0000 0.54590  0.78030  0.85295  Biso   1.000  O
  O63      1.0000 0.35260  0.76530  0.84563  Biso   1.000  O
  O64      1.0000 0.31110  0.24770  0.63578  Biso   1.000  O
  O65      1.0000 0.49700  0.26750  0.64273  Biso   1.000  O
  O66      1.0000 0.66860  0.42200  0.16325  Biso   1.000  O
  O67      1.0000 0.97410  0.78990  0.64811  Biso   1.000  O
  O68      1.0000 0.55780  0.35070  0.57050  Biso   1.000  O
  O69      1.0000 0.32810  0.67360  0.31857  Biso   1.000  O
  O70      1.0000 0.07630  0.70130  0.57356  Biso   1.000  O
  O71      1.0000 0.03410  0.59468  0.62380  Biso   1.000  O
  O72      1.0000 0.91580  0.68010  0.69004  Biso   1.000  O
  O73      1.0000 0.89620  0.88180  0.59959  Biso   1.000  O
  O74      1.0000 0.87740  0.98160  0.67570  Biso   1.000  O
  O75      1.0000 0.93600  0.88040  0.72909  Biso   1.000  O
  O76      1.0000 0.22970  0.67690  0.40570  Biso   1.000  O
  O77      1.0000 0.04050  0.67610  0.39793  Biso   1.000  O
  O78      1.0000 0.24760  0.35290  0.59876  Biso   1.000  O
  O79      1.0000 0.39300  0.39700  0.63070  Biso   1.000  O
  O80      1.0000 0.46420  0.66630  0.79013  Biso   1.000  O
  O81      1.0000 0.60620  0.65540  0.83032  Biso   1.000  O
  O82      1.0000 0.84660  0.76700  0.43573  Biso   1.000  O
  O83      1.0000 0.67400  0.74390  0.45737  Biso   1.000  O
  O84      1.0000 0.04590  0.21970  0.64705  Biso   1.000  O
  O85      1.0000 0.85260  0.23470  0.65437  Biso   1.000  O
  O86      1.0000 0.81110  0.75230  0.86422  Biso   1.000  O
  O87      1.0000 0.99700  0.73250  0.85727  Biso   1.000  O
  O88      1.0000 0.16860  0.57800  0.33675  Biso   1.000  O
