data_image0
_cell_length_a       11.567
_cell_length_b       11.8393
_cell_length_c       14.227
_cell_angle_alpha    112.497
_cell_angle_beta     90
_cell_angle_gamma    119.242

_symmetry_space_group_name_H-M    P 1
_symmetry_int_tables_number       1

loop_
  _symmetry_equiv_pos_as_xyz
  'x, y, z'

loop_
  _atom_site_label
  _atom_site_occupancy
  _atom_site_fract_x
  _atom_site_fract_y
  _atom_site_fract_z
  _atom_site_thermal_displace_type
  _atom_site_B_iso_or_equiv
  _atom_site_type_symbol
  Zn1      1.0000 0.34514  0.71626  0.75624  Biso   1.000  Zn
  Zn2      1.0000 0.37112  0.71626  0.25624  Biso   1.000  Zn
  H1       1.0000 0.53080  0.42180  0.14610  Biso   1.000  H
  H2       1.0000 0.16080  0.18640  0.96830  Biso   1.000  H
  H3       1.0000 0.18970  0.00680  0.87010  Biso   1.000  H
  H4       1.0000 0.41850  0.55380  0.54770  Biso   1.000  H
  H5       1.0000 0.55000  0.97380  0.70830  Biso   1.000  H
  H6       1.0000 0.65670  0.94160  0.55350  Biso   1.000  H
  H7       1.0000 0.61350  0.70320  0.38150  Biso   1.000  H
  H8       1.0000 0.53690  0.55740  0.39080  Biso   1.000  H
  H9       1.0000 0.66590  0.52860  0.51930  Biso   1.000  H
  H10      1.0000 0.87880  0.58020  0.58380  Biso   1.000  H
  H11      1.0000 0.05590  0.90520  0.50120  Biso   1.000  H
  H12      1.0000 0.84300  0.85360  0.43670  Biso   1.000  H
  H13      1.0000 0.13590  0.76300  0.64660  Biso   1.000  H
  H14      1.0000 0.19550  0.89660  0.62040  Biso   1.000  H
  H15      1.0000 0.31500  0.88580  0.46220  Biso   1.000  H
  H16      1.0000 0.17480  0.45660  0.31780  Biso   1.000  H
  H17      1.0000 0.07120  0.49740  0.47360  Biso   1.000  H
  H18      1.0000 0.63970  0.20940  0.99600  Biso   1.000  H
  H19      1.0000 0.67870  0.34260  0.09230  Biso   1.000  H
  H20      1.0000 0.89100  0.42180  0.64610  Biso   1.000  H
  H21      1.0000 0.02560  0.18640  0.46830  Biso   1.000  H
  H22      1.0000 0.81710  0.00680  0.37010  Biso   1.000  H
  H23      1.0000 0.13530  0.55380  0.04770  Biso   1.000  H
  H24      1.0000 0.42380  0.97380  0.20830  Biso   1.000  H
  H25      1.0000 0.28490  0.94160  0.05350  Biso   1.000  H
  H26      1.0000 0.08970  0.70320  0.88150  Biso   1.000  H
  H27      1.0000 0.02050  0.55740  0.89080  Biso   1.000  H
  H28      1.0000 0.86270  0.52860  0.01930  Biso   1.000  H
  H29      1.0000 0.70140  0.58020  0.08380  Biso   1.000  H
  H30      1.0000 0.84930  0.90520  0.00120  Biso   1.000  H
  H31      1.0000 0.01060  0.85360  0.93670  Biso   1.000  H
  H32      1.0000 0.62710  0.76300  0.14660  Biso   1.000  H
  H33      1.0000 0.70110  0.89660  0.12040  Biso   1.000  H
  H34      1.0000 0.57080  0.88580  0.96220  Biso   1.000  H
  H35      1.0000 0.28180  0.45660  0.81780  Biso   1.000  H
  H36      1.0000 0.42620  0.49740  0.97360  Biso   1.000  H
  H37      1.0000 0.56970  0.20940  0.49600  Biso   1.000  H
  H38      1.0000 0.66390  0.34260  0.59230  Biso   1.000  H
  C1       1.0000 0.40410  0.98340  0.88200  Biso   1.000  C
  C2       1.0000 0.38960  0.11000  0.94600  Biso   1.000  C
  C3       1.0000 0.49620  0.23280  0.02790  Biso   1.000  C
  C4       1.0000 0.46430  0.33900  0.08910  Biso   1.000  C
  C5       1.0000 0.33980  0.32300  0.06700  Biso   1.000  C
  C6       1.0000 0.24490  0.19780  0.98420  Biso   1.000  C
  C7       1.0000 0.26030  0.09040  0.92400  Biso   1.000  C
  C8       1.0000 0.30490  0.43160  0.12980  Biso   1.000  C
  C9       1.0000 0.46040  0.65160  0.56630  Biso   1.000  C
  C10      1.0000 0.53480  0.88720  0.65710  Biso   1.000  C
  C11      1.0000 0.59470  0.86880  0.57020  Biso   1.000  C
  C12      1.0000 0.60110  0.66020  0.42960  Biso   1.000  C
  C13      1.0000 0.73340  0.68600  0.47160  Biso   1.000  C
  C14      1.0000 0.74410  0.60400  0.51560  Biso   1.000  C
  C15      1.0000 0.87170  0.63500  0.55430  Biso   1.000  C
  C16      1.0000 0.98850  0.74780  0.54890  Biso   1.000  C
  C17      1.0000 0.97780  0.82980  0.50480  Biso   1.000  C
  C18      1.0000 0.85020  0.79880  0.46620  Biso   1.000  C
  C19      1.0000 0.13360  0.79320  0.59250  Biso   1.000  C
  C20      1.0000 0.26550  0.78740  0.44340  Biso   1.000  C
  C21      1.0000 0.18690  0.54440  0.36390  Biso   1.000  C
  C22      1.0000 0.12640  0.56600  0.45110  Biso   1.000  C
  C23      1.0000 0.57930  0.98340  0.38200  Biso   1.000  C
  C24      1.0000 0.72040  0.11000  0.44600  Biso   1.000  C
  C25      1.0000 0.73660  0.23280  0.52790  Biso   1.000  C
  C26      1.0000 0.87470  0.33900  0.58910  Biso   1.000  C
  C27      1.0000 0.98320  0.32300  0.56700  Biso   1.000  C
  C28      1.0000 0.95290  0.19780  0.48420  Biso   1.000  C
  C29      1.0000 0.83010  0.09040  0.42400  Biso   1.000  C
  C30      1.0000 0.12670  0.43160  0.62980  Biso   1.000  C
  C31      1.0000 0.19120  0.65160  0.06630  Biso   1.000  C
  C32      1.0000 0.35240  0.88720  0.15710  Biso   1.000  C
  C33      1.0000 0.27410  0.86880  0.07020  Biso   1.000  C
  C34      1.0000 0.05910  0.66020  0.92960  Biso   1.000  C
  C35      1.0000 0.95260  0.68600  0.97160  Biso   1.000  C
  C36      1.0000 0.85990  0.60400  0.01560  Biso   1.000  C
  C37      1.0000 0.76330  0.63500  0.05430  Biso   1.000  C
  C38      1.0000 0.75930  0.74780  0.04890  Biso   1.000  C
  C39      1.0000 0.85200  0.82980  0.00480  Biso   1.000  C
  C40      1.0000 0.94860  0.79880  0.96620  Biso   1.000  C
  C41      1.0000 0.65960  0.79320  0.09250  Biso   1.000  C
  C42      1.0000 0.52190  0.78740  0.94340  Biso   1.000  C
  C43      1.0000 0.35750  0.54440  0.86390  Biso   1.000  C
  C44      1.0000 0.43960  0.56600  0.95110  Biso   1.000  C
  N1       1.0000 0.44820  0.74980  0.65120  Biso   1.000  N
  N2       1.0000 0.54420  0.72200  0.51400  Biso   1.000  N
  N3       1.0000 0.27010  0.67960  0.35790  Biso   1.000  N
  N4       1.0000 0.16750  0.71460  0.49740  Biso   1.000  N
  N5       1.0000 0.61760  0.26500  0.04000  Biso   1.000  N
  N6       1.0000 0.30160  0.74980  0.15120  Biso   1.000  N
  N7       1.0000 0.17780  0.72200  0.01400  Biso   1.000  N
  N8       1.0000 0.40950  0.67960  0.85790  Biso   1.000  N
  N9       1.0000 0.54710  0.71460  0.99740  Biso   1.000  N
  N10      1.0000 0.64740  0.26500  0.54000  Biso   1.000  N
  O1       1.0000 0.52540  0.01140  0.89610  Biso   1.000  O
  O2       1.0000 0.30200  0.86620  0.82200  Biso   1.000  O
  O3       1.0000 0.40670  0.54800  0.19070  Biso   1.000  O
  O4       1.0000 0.18800  0.41760  0.12060  Biso   1.000  O
  O5       1.0000 0.48600  0.01140  0.39610  Biso   1.000  O
  O6       1.0000 0.56420  0.86620  0.32200  Biso   1.000  O
  O7       1.0000 0.14130  0.54800  0.69070  Biso   1.000  O
  O8       1.0000 0.22960  0.41760  0.62060  Biso   1.000  O
