data_image0
_cell_length_a       15.1675
_cell_length_b       15.1675
_cell_length_c       11.9197
_cell_angle_alpha    90
_cell_angle_beta     90
_cell_angle_gamma    90

_symmetry_space_group_name_H-M    "P 1"
_symmetry_int_tables_number       1

loop_
  _symmetry_equiv_pos_as_xyz
  'x, y, z'

loop_
  _atom_site_label
  _atom_site_occupancy
  _atom_site_fract_x
  _atom_site_fract_y
  _atom_site_fract_z
  _atom_site_thermal_displace_type
  _atom_site_B_iso_or_equiv
  _atom_site_type_symbol
  O1       1.0000 0.09990  0.28670  0.99850  Biso   1.000  O
  O2       1.0000 0.12520  0.11990  0.10680  Biso   1.000  O
  C1       1.0000 0.09210  0.36000  0.04880  Biso   1.000  C
  C2       1.0000 0.04080  0.43100  0.99010  Biso   1.000  C
  C3       1.0000 0.03900  0.43100  0.87150  Biso   1.000  C
  H1       1.0000 0.06420  0.38440  0.83220  Biso   1.000  H
  O3       1.0000 0.59990  0.78670  0.49850  Biso   1.000  O
  O4       1.0000 0.62520  0.61990  0.60680  Biso   1.000  O
  C4       1.0000 0.59210  0.86000  0.54880  Biso   1.000  C
  C5       1.0000 0.54080  0.93100  0.49010  Biso   1.000  C
  C6       1.0000 0.53900  0.93100  0.37150  Biso   1.000  C
  H2       1.0000 0.56420  0.88440  0.33220  Biso   1.000  H
  O5       1.0000 0.40010  0.21330  0.49850  Biso   1.000  O
  O6       1.0000 0.37480  0.38010  0.60680  Biso   1.000  O
  C7       1.0000 0.40790  0.14000  0.54880  Biso   1.000  C
  C8       1.0000 0.45920  0.06900  0.49010  Biso   1.000  C
  C9       1.0000 0.46100  0.06900  0.37150  Biso   1.000  C
  H3       1.0000 0.43580  0.11560  0.33220  Biso   1.000  H
  O7       1.0000 0.90010  0.71330  0.99850  Biso   1.000  O
  O8       1.0000 0.87480  0.88010  0.10680  Biso   1.000  O
  C10      1.0000 0.90790  0.64000  0.04880  Biso   1.000  C
  C11      1.0000 0.95920  0.56900  0.99010  Biso   1.000  C
  C12      1.0000 0.96100  0.56900  0.87150  Biso   1.000  C
  H4       1.0000 0.93580  0.61560  0.83220  Biso   1.000  H
  O9       1.0000 0.71330  0.59990  0.24850  Biso   1.000  O
  O10      1.0000 0.88010  0.62520  0.35680  Biso   1.000  O
  C13      1.0000 0.64000  0.59210  0.29880  Biso   1.000  C
  C14      1.0000 0.56900  0.54080  0.24010  Biso   1.000  C
  C15      1.0000 0.56900  0.53900  0.12150  Biso   1.000  C
  H5       1.0000 0.61560  0.56420  0.08220  Biso   1.000  H
  O11      1.0000 0.21330  0.09990  0.74850  Biso   1.000  O
  O12      1.0000 0.38010  0.12520  0.85680  Biso   1.000  O
  C16      1.0000 0.14000  0.09210  0.79880  Biso   1.000  C
  C17      1.0000 0.06900  0.04080  0.74010  Biso   1.000  C
  C18      1.0000 0.06900  0.03900  0.62150  Biso   1.000  C
  H6       1.0000 0.11560  0.06420  0.58220  Biso   1.000  H
  O13      1.0000 0.78670  0.90010  0.74850  Biso   1.000  O
  O14      1.0000 0.61990  0.87480  0.85680  Biso   1.000  O
  C19      1.0000 0.86000  0.90790  0.79880  Biso   1.000  C
  C20      1.0000 0.93100  0.95920  0.74010  Biso   1.000  C
  C21      1.0000 0.93100  0.96100  0.62150  Biso   1.000  C
  H7       1.0000 0.88440  0.93580  0.58220  Biso   1.000  H
  O15      1.0000 0.28670  0.40010  0.24850  Biso   1.000  O
  O16      1.0000 0.11990  0.37480  0.35680  Biso   1.000  O
  C22      1.0000 0.36000  0.40790  0.29880  Biso   1.000  C
  C23      1.0000 0.43100  0.45920  0.24010  Biso   1.000  C
  C24      1.0000 0.43100  0.46100  0.12150  Biso   1.000  C
  H8       1.0000 0.38440  0.43580  0.08220  Biso   1.000  H
  O17      1.0000 0.40010  0.28670  0.75150  Biso   1.000  O
  O18      1.0000 0.37480  0.11990  0.64320  Biso   1.000  O
  C25      1.0000 0.40790  0.36000  0.70120  Biso   1.000  C
  C26      1.0000 0.45920  0.43100  0.75990  Biso   1.000  C
  C27      1.0000 0.46100  0.43100  0.87850  Biso   1.000  C
  H9       1.0000 0.43580  0.38440  0.91780  Biso   1.000  H
  O19      1.0000 0.90010  0.78670  0.25150  Biso   1.000  O
  O20      1.0000 0.87480  0.61990  0.14320  Biso   1.000  O
  C28      1.0000 0.90790  0.86000  0.20120  Biso   1.000  C
  C29      1.0000 0.95920  0.93100  0.25990  Biso   1.000  C
  C30      1.0000 0.96100  0.93100  0.37850  Biso   1.000  C
  H10      1.0000 0.93580  0.88440  0.41780  Biso   1.000  H
  O21      1.0000 0.09990  0.21330  0.25150  Biso   1.000  O
  O22      1.0000 0.12520  0.38010  0.14320  Biso   1.000  O
  C31      1.0000 0.09210  0.14000  0.20120  Biso   1.000  C
  C32      1.0000 0.04080  0.06900  0.25990  Biso   1.000  C
  C33      1.0000 0.03900  0.06900  0.37850  Biso   1.000  C
  H11      1.0000 0.06420  0.11560  0.41780  Biso   1.000  H
  O23      1.0000 0.59990  0.71330  0.75150  Biso   1.000  O
  O24      1.0000 0.62520  0.88010  0.64320  Biso   1.000  O
  C34      1.0000 0.59210  0.64000  0.70120  Biso   1.000  C
  C35      1.0000 0.54080  0.56900  0.75990  Biso   1.000  C
  C36      1.0000 0.53900  0.56900  0.87850  Biso   1.000  C
  H12      1.0000 0.56420  0.61560  0.91780  Biso   1.000  H
  O25      1.0000 0.78670  0.59990  0.50150  Biso   1.000  O
  O26      1.0000 0.61990  0.62520  0.39320  Biso   1.000  O
  C37      1.0000 0.86000  0.59210  0.45120  Biso   1.000  C
  C38      1.0000 0.93100  0.54080  0.50990  Biso   1.000  C
  C39      1.0000 0.93100  0.53900  0.62850  Biso   1.000  C
  H13      1.0000 0.88440  0.56420  0.66780  Biso   1.000  H
  O27      1.0000 0.28670  0.09990  0.00150  Biso   1.000  O
  O28      1.0000 0.11990  0.12520  0.89320  Biso   1.000  O
  C40      1.0000 0.36000  0.09210  0.95120  Biso   1.000  C
  C41      1.0000 0.43100  0.04080  0.00990  Biso   1.000  C
  C42      1.0000 0.43100  0.03900  0.12850  Biso   1.000  C
  H14      1.0000 0.38440  0.06420  0.16780  Biso   1.000  H
  O29      1.0000 0.71330  0.90010  0.00150  Biso   1.000  O
  O30      1.0000 0.88010  0.87480  0.89320  Biso   1.000  O
  C43      1.0000 0.64000  0.90790  0.95120  Biso   1.000  C
  C44      1.0000 0.56900  0.95920  0.00990  Biso   1.000  C
  C45      1.0000 0.56900  0.96100  0.12850  Biso   1.000  C
  H15      1.0000 0.61560  0.93580  0.16780  Biso   1.000  H
  O31      1.0000 0.21330  0.40010  0.50150  Biso   1.000  O
  O32      1.0000 0.38010  0.37480  0.39320  Biso   1.000  O
  C46      1.0000 0.14000  0.40790  0.45120  Biso   1.000  C
  C47      1.0000 0.06900  0.45920  0.50990  Biso   1.000  C
  C48      1.0000 0.06900  0.46100  0.62850  Biso   1.000  C
  H16      1.0000 0.11560  0.43580  0.66780  Biso   1.000  H
  Ga1      1.0000 0.19430  0.19430  0.00000  Biso   1.000  Ga
  Ga2      1.0000 0.69430  0.69430  0.50000  Biso   1.000  Ga
  Ga3      1.0000 0.30570  0.30570  0.50000  Biso   1.000  Ga
  Ga4      1.0000 0.80570  0.69430  0.25000  Biso   1.000  Ga
  Ga5      1.0000 0.69430  0.80570  0.75000  Biso   1.000  Ga
  Ga6      1.0000 0.30570  0.19430  0.75000  Biso   1.000  Ga
  Ga7      1.0000 0.19430  0.30570  0.25000  Biso   1.000  Ga
  Ga8      1.0000 0.80570  0.80570  0.00000  Biso   1.000  Ga
  O33      1.0000 0.25270  0.25000  0.12500  Biso   1.000  O
  H17      1.0000 0.30830  0.25000  0.12500  Biso   1.000  H
  O34      1.0000 0.75270  0.75000  0.62500  Biso   1.000  O
  H18      1.0000 0.80830  0.75000  0.62500  Biso   1.000  H
  O35      1.0000 0.24730  0.25000  0.62500  Biso   1.000  O
  H19      1.0000 0.19170  0.25000  0.62500  Biso   1.000  H
  O36      1.0000 0.74730  0.75000  0.12500  Biso   1.000  O
  H20      1.0000 0.69170  0.75000  0.12500  Biso   1.000  H
  O37      1.0000 0.75000  0.75270  0.37500  Biso   1.000  O
  H21      1.0000 0.75000  0.80830  0.37500  Biso   1.000  H
  O38      1.0000 0.25000  0.25270  0.87500  Biso   1.000  O
  H22      1.0000 0.25000  0.30830  0.87500  Biso   1.000  H
  O39      1.0000 0.75000  0.74730  0.87500  Biso   1.000  O
  H23      1.0000 0.75000  0.69170  0.87500  Biso   1.000  H
  O40      1.0000 0.25000  0.24730  0.37500  Biso   1.000  O
  H24      1.0000 0.25000  0.19170  0.37500  Biso   1.000  H
  C49      1.0000 0.00000  0.50000  0.04800  Biso   1.000  C
  H25      1.0000 0.00000  0.50000  0.12600  Biso   1.000  H
  C50      1.0000 0.00000  0.50000  0.81320  Biso   1.000  C
  C51      1.0000 0.50000  0.00000  0.54800  Biso   1.000  C
  H26      1.0000 0.50000  0.00000  0.62600  Biso   1.000  H
  C52      1.0000 0.50000  0.00000  0.31320  Biso   1.000  C
  C53      1.0000 0.50000  0.50000  0.29800  Biso   1.000  C
  H27      1.0000 0.50000  0.50000  0.37600  Biso   1.000  H
  C54      1.0000 0.50000  0.50000  0.06320  Biso   1.000  C
  C55      1.0000 0.00000  0.00000  0.79800  Biso   1.000  C
  H28      1.0000 0.00000  0.00000  0.87600  Biso   1.000  H
  C56      1.0000 0.00000  0.00000  0.56320  Biso   1.000  C
  C57      1.0000 0.50000  0.50000  0.70200  Biso   1.000  C
  H29      1.0000 0.50000  0.50000  0.62400  Biso   1.000  H
  C58      1.0000 0.50000  0.50000  0.93680  Biso   1.000  C
  C59      1.0000 0.00000  0.00000  0.20200  Biso   1.000  C
  H30      1.0000 0.00000  0.00000  0.12400  Biso   1.000  H
  C60      1.0000 0.00000  0.00000  0.43680  Biso   1.000  C
  C61      1.0000 0.00000  0.50000  0.45200  Biso   1.000  C
  H31      1.0000 0.00000  0.50000  0.37400  Biso   1.000  H
  C62      1.0000 0.00000  0.50000  0.68680  Biso   1.000  C
  C63      1.0000 0.50000  0.00000  0.95200  Biso   1.000  C
  H32      1.0000 0.50000  0.00000  0.87400  Biso   1.000  H
  C64      1.0000 0.50000  0.00000  0.18680  Biso   1.000  C
