data_image0
_cell_length_a       21.719
_cell_length_b       19.469
_cell_length_c       20.835
_cell_angle_alpha    90
_cell_angle_beta     108.856
_cell_angle_gamma    90

_symmetry_space_group_name_H-M    "P 1"
_symmetry_int_tables_number       1

loop_
  _symmetry_equiv_pos_as_xyz
  'x, y, z'

loop_
  _atom_site_label
  _atom_site_occupancy
  _atom_site_fract_x
  _atom_site_fract_y
  _atom_site_fract_z
  _atom_site_thermal_displace_type
  _atom_site_B_iso_or_equiv
  _atom_site_type_symbol
  Zn1      1.0000 0.73716  0.72601  0.71030  Biso   1.000  Zn
  Zn2      1.0000 0.72787  0.22757  0.93465  Biso   1.000  Zn
  Zn3      1.0000 0.25809  0.80337  0.62482  Biso   1.000  Zn
  O1       1.0000 0.65776  0.73900  0.63270  Biso   1.000  O
  C1       1.0000 0.77090  0.33760  0.88810  Biso   1.000  C
  N1       1.0000 0.79240  0.19750  0.02300  Biso   1.000  N
  N2       1.0000 0.79770  0.76410  0.66390  Biso   1.000  N
  N3       1.0000 0.87330  0.18770  0.12170  Biso   1.000  N
  C2       1.0000 0.84820  0.22050  0.06140  Biso   1.000  C
  N4       1.0000 0.87870  0.79890  0.62580  Biso   1.000  N
  O2       1.0000 0.73440  0.63040  0.73480  Biso   1.000  O
  C3       1.0000 0.60010  0.73090  0.63220  Biso   1.000  C
  C4       1.0000 0.73720  0.05650  0.77080  Biso   1.000  C
  O3       1.0000 0.81870  0.30030  0.89870  Biso   1.000  O
  C5       1.0000 0.54900  0.72950  0.56350  Biso   1.000  C
  C6       1.0000 0.77060  0.07050  0.01530  Biso   1.000  C
  C7       1.0000 0.78670  0.60950  0.78120  Biso   1.000  C
  C8       1.0000 0.82870  0.13170  0.12790  Biso   1.000  C
  H1       1.0000 0.81090  0.14060  0.16420  Biso   1.000  H
  H2       1.0000 0.85030  0.08730  0.13520  Biso   1.000  H
  C9       1.0000 0.74440  0.99700  0.72760  Biso   1.000  C
  C10      1.0000 0.78140  0.53740  0.80630  Biso   1.000  C
  C11      1.0000 0.94180  0.80510  0.62620  Biso   1.000  C
  H3       1.0000 0.95080  0.83150  0.59310  Biso   1.000  H
  C12      1.0000 0.83680  0.50670  0.85060  Biso   1.000  C
  H4       1.0000 0.87640  0.52980  0.86280  Biso   1.000  H
  C13      1.0000 0.68410  0.06080  0.79240  Biso   1.000  C
  H5       1.0000 0.65040  0.02910  0.77790  Biso   1.000  H
  C14      1.0000 0.76030  0.88400  0.65170  Biso   1.000  C
  C15      1.0000 0.86000  0.75820  0.67210  Biso   1.000  C
  C16      1.0000 0.77580  0.13600  0.05730  Biso   1.000  C
  H6       1.0000 0.73370  0.14430  0.06390  Biso   1.000  H
  O4       1.0000 0.58530  0.71730  0.68230  Biso   1.000  O
  C17      1.0000 0.91020  0.72220  0.71870  Biso   1.000  C
  H7       1.0000 0.90080  0.69210  0.74890  Biso   1.000  H
  C18      1.0000 0.94340  0.29160  0.09590  Biso   1.000  C
  H8       1.0000 0.96920  0.32590  0.08670  Biso   1.000  H
  C19      1.0000 0.82000  0.05140  0.99210  Biso   1.000  C
  H9       1.0000 0.85770  0.07780  0.00310  Biso   1.000  H
  C20      1.0000 0.69070  0.96630  0.68130  Biso   1.000  C
  H10      1.0000 0.64920  0.98330  0.67520  Biso   1.000  H
  C21      1.0000 0.77400  0.40750  0.85950  Biso   1.000  C
  C22      1.0000 0.83320  0.44260  0.87640  Biso   1.000  C
  H11      1.0000 0.87060  0.42220  0.90540  Biso   1.000  H
  C23      1.0000 0.71500  0.03130  0.99910  Biso   1.000  C
  H12      1.0000 0.68070  0.04400  0.01420  Biso   1.000  H
  C24      1.0000 0.71790  0.43780  0.81640  Biso   1.000  C
  H13      1.0000 0.67800  0.41560  0.80610  Biso   1.000  H
  C25      1.0000 0.69940  0.90940  0.64370  Biso   1.000  C
  H14      1.0000 0.66330  0.88860  0.61300  Biso   1.000  H
  C26      1.0000 0.80640  0.97120  0.73460  Biso   1.000  C
  H15      1.0000 0.84300  0.99130  0.76520  Biso   1.000  H
  C27      1.0000 0.93060  0.20310  0.16820  Biso   1.000  C
  H16      1.0000 0.94530  0.17730  0.20780  Biso   1.000  H
  C28      1.0000 0.97350  0.73080  0.72060  Biso   1.000  C
  H17      1.0000 0.00660  0.70790  0.75350  Biso   1.000  H
  C29      1.0000 0.81270  0.91700  0.69680  Biso   1.000  C
  H18      1.0000 0.85430  0.90110  0.70150  Biso   1.000  H
  C30      1.0000 0.96720  0.25560  0.15820  Biso   1.000  C
  C31      1.0000 0.76980  0.82010  0.61400  Biso   1.000  C
  H19      1.0000 0.72820  0.80550  0.58150  Biso   1.000  H
  O5       1.0000 0.83500  0.64500  0.80640  Biso   1.000  O
  C32      1.0000 0.98970  0.77430  0.67280  Biso   1.000  C
  C33      1.0000 0.72290  0.50340  0.78850  Biso   1.000  C
  H20      1.0000 0.68630  0.52350  0.75780  Biso   1.000  H
  C34      1.0000 0.82080  0.83020  0.57760  Biso   1.000  C
  H21      1.0000 0.80820  0.80680  0.53420  Biso   1.000  H
  H22      1.0000 0.82770  0.87860  0.57070  Biso   1.000  H
  C35      1.0000 0.78470  0.10640  0.79280  Biso   1.000  C
  H23      1.0000 0.82020  0.10730  0.77720  Biso   1.000  H
  O6       1.0000 0.72020  0.32190  0.89830  Biso   1.000  O
  O7       1.0000 0.25130  0.88600  0.57110  Biso   1.000  O
  C36      1.0000 0.56420  0.73000  0.50650  Biso   1.000  C
  H24      1.0000 0.60760  0.73260  0.50900  Biso   1.000  H
  O8       1.0000 0.26530  0.94580  0.66030  Biso   1.000  O
  C37      1.0000 0.48360  0.72670  0.55660  Biso   1.000  C
  H25      1.0000 0.47130  0.72240  0.59520  Biso   1.000  H
  C38      1.0000 0.25750  0.00410  0.55610  Biso   1.000  C
  C39      1.0000 0.25660  0.93880  0.59890  Biso   1.000  C
  C40      1.0000 0.24500  0.06510  0.57730  Biso   1.000  C
  H26      1.0000 0.23970  0.06860  0.61970  Biso   1.000  H
  C41      1.0000 0.88500  0.27830  0.04940  Biso   1.000  C
  H27      1.0000 0.86900  0.30540  0.01080  Biso   1.000  H
  C42      1.0000 0.26380  0.99720  0.49330  Biso   1.000  C
  H28      1.0000 0.27110  0.95420  0.47760  Biso   1.000  H
  C43      1.0000 0.24950  0.11790  0.47650  Biso   1.000  C
  C44      1.0000 0.23970  0.12360  0.53840  Biso   1.000  C
  H29      1.0000 0.22970  0.16580  0.55360  Biso   1.000  H
  C45      1.0000 0.25950  0.05270  0.45450  Biso   1.000  C
  H30      1.0000 0.26340  0.04770  0.41160  Biso   1.000  H
  C46      1.0000 0.07400  0.84510  0.64690  Biso   1.000  C
  H31      1.0000 0.04380  0.88040  0.63290  Biso   1.000  H
  C47      1.0000 0.13490  0.85150  0.63900  Biso   1.000  C
  H32      1.0000 0.14540  0.89110  0.61980  Biso   1.000  H
  N5       1.0000 0.18016  0.79870  0.65980  Biso   1.000  N
  C48      1.0000 0.16450  0.73960  0.68850  Biso   1.000  C
  H33      1.0000 0.19470  0.70430  0.70240  Biso   1.000  H
  C49      1.0000 0.10360  0.73320  0.69640  Biso   1.000  C
  H34      1.0000 0.09310  0.69360  0.71560  Biso   1.000  H
  C50      1.0000 0.05840  0.78590  0.67560  Biso   1.000  C
  C51      1.0000 0.10580  0.26280  0.32430  Biso   1.000  C
  H35      1.0000 0.11470  0.24810  0.36890  Biso   1.000  H
  N6       1.0000 0.15383  0.29540  0.30470  Biso   1.000  N
  C52      1.0000 0.14060  0.31740  0.23810  Biso   1.000  C
  H36      1.0000 0.17270  0.33910  0.22500  Biso   1.000  H
  C53      1.0000 0.07920  0.30680  0.19110  Biso   1.000  C
  H37      1.0000 0.07030  0.32150  0.14660  Biso   1.000  H
  C54      1.0000 0.03119  0.27420  0.21070  Biso   1.000  C
  C55      1.0000 0.04450  0.25220  0.27730  Biso   1.000  C
  H38      1.0000 0.01230  0.23040  0.29040  Biso   1.000  H
  C56      1.0000 0.75940  0.95210  0.93500  Biso   1.000  C
  C57      1.0000 0.75340  0.89290  0.88810  Biso   1.000  C
  C58      1.0000 0.81490  0.99360  0.95240  Biso   1.000  C
  H39      1.0000 0.84920  0.98190  0.93690  Biso   1.000  H
  C59      1.0000 0.71050  0.97130  0.95930  Biso   1.000  C
  H40      1.0000 0.67320  0.94430  0.94930  Biso   1.000  H
  C60      1.0000 0.68990  0.82380  0.79520  Biso   1.000  C
  H41      1.0000 0.64920  0.81260  0.76490  Biso   1.000  H
  C61      1.0000 0.79810  0.80560  0.83770  Biso   1.000  C
  H42      1.0000 0.83500  0.78180  0.83690  Biso   1.000  H
  C62      1.0000 0.68160  0.11370  0.83650  Biso   1.000  C
  H43      1.0000 0.64480  0.11700  0.85000  Biso   1.000  H
  C63      1.0000 0.69340  0.87540  0.84260  Biso   1.000  C
  H44      1.0000 0.65590  0.89780  0.84360  Biso   1.000  H
  C64      1.0000 0.80480  0.85420  0.88570  Biso   1.000  C
  H45      1.0000 0.84550  0.86140  0.91780  Biso   1.000  H
  C65      1.0000 0.77820  0.15400  0.83770  Biso   1.000  C
  H46      1.0000 0.81190  0.18550  0.85390  Biso   1.000  H
  N7       1.0000 0.74060  0.79010  0.79080  Biso   1.000  N
  N8       1.0000 0.72850  0.15930  0.86030  Biso   1.000  N
  O9       1.0000 0.65210  0.21190  0.96310  Biso   1.000  O
  O10      1.0000 0.57570  0.21200  0.86680  Biso   1.000  O
  C66      1.0000 0.54520  0.20820  0.96580  Biso   1.000  C
  C67      1.0000 0.59430  0.20910  0.92680  Biso   1.000  C
  C68      1.0000 0.47990  0.21010  0.93260  Biso   1.000  C
  H47      1.0000 0.46540  0.21370  0.88550  Biso   1.000  H
  C69      1.0000 0.56530  0.20700  0.03440  Biso   1.000  C
  H48      1.0000 0.60940  0.20410  0.05890  Biso   1.000  H
  O11      1.0000 0.25780  0.73540  0.55140  Biso   1.000  O
  C70      1.0000 0.25410  0.68150  0.57430  Biso   1.000  C
  O12      1.0000 0.26190  0.66420  0.63430  Biso   1.000  O
  Zn4      1.0000 0.23716  0.22601  0.71030  Biso   1.000  Zn
  Zn5      1.0000 0.22787  0.72757  0.93465  Biso   1.000  Zn
  Zn6      1.0000 0.75809  0.30337  0.62482  Biso   1.000  Zn
  O13      1.0000 0.15776  0.23900  0.63270  Biso   1.000  O
  C71      1.0000 0.27090  0.83760  0.88810  Biso   1.000  C
  N9       1.0000 0.29240  0.69750  0.02300  Biso   1.000  N
  N10      1.0000 0.29770  0.26410  0.66390  Biso   1.000  N
  N11      1.0000 0.37330  0.68770  0.12170  Biso   1.000  N
  C72      1.0000 0.34820  0.72050  0.06140  Biso   1.000  C
  N12      1.0000 0.37870  0.29890  0.62580  Biso   1.000  N
  O14      1.0000 0.23440  0.13040  0.73480  Biso   1.000  O
  C73      1.0000 0.10010  0.23090  0.63220  Biso   1.000  C
  C74      1.0000 0.23720  0.55650  0.77080  Biso   1.000  C
  O15      1.0000 0.31870  0.80030  0.89870  Biso   1.000  O
  C75      1.0000 0.04900  0.22950  0.56350  Biso   1.000  C
  C76      1.0000 0.27060  0.57050  0.01530  Biso   1.000  C
  C77      1.0000 0.28670  0.10950  0.78120  Biso   1.000  C
  C78      1.0000 0.32870  0.63170  0.12790  Biso   1.000  C
  H49      1.0000 0.31090  0.64060  0.16420  Biso   1.000  H
  H50      1.0000 0.35030  0.58730  0.13520  Biso   1.000  H
  C79      1.0000 0.24440  0.49700  0.72760  Biso   1.000  C
  C80      1.0000 0.28140  0.03740  0.80630  Biso   1.000  C
  C81      1.0000 0.44180  0.30510  0.62620  Biso   1.000  C
  H51      1.0000 0.45080  0.33150  0.59310  Biso   1.000  H
  C82      1.0000 0.33680  0.00670  0.85060  Biso   1.000  C
  H52      1.0000 0.37640  0.02980  0.86280  Biso   1.000  H
  C83      1.0000 0.18410  0.56080  0.79240  Biso   1.000  C
  H53      1.0000 0.15040  0.52910  0.77790  Biso   1.000  H
  C84      1.0000 0.26030  0.38400  0.65170  Biso   1.000  C
  C85      1.0000 0.36000  0.25820  0.67210  Biso   1.000  C
  C86      1.0000 0.27580  0.63600  0.05730  Biso   1.000  C
  H54      1.0000 0.23370  0.64430  0.06390  Biso   1.000  H
  O16      1.0000 0.08530  0.21730  0.68230  Biso   1.000  O
  C87      1.0000 0.41020  0.22220  0.71870  Biso   1.000  C
  H55      1.0000 0.40080  0.19210  0.74890  Biso   1.000  H
  C88      1.0000 0.44340  0.79160  0.09590  Biso   1.000  C
  H56      1.0000 0.46920  0.82590  0.08670  Biso   1.000  H
  C89      1.0000 0.32000  0.55140  0.99210  Biso   1.000  C
  H57      1.0000 0.35770  0.57780  0.00310  Biso   1.000  H
  C90      1.0000 0.19070  0.46630  0.68130  Biso   1.000  C
  H58      1.0000 0.14920  0.48330  0.67520  Biso   1.000  H
  C91      1.0000 0.27400  0.90750  0.85950  Biso   1.000  C
  C92      1.0000 0.33320  0.94260  0.87640  Biso   1.000  C
  H59      1.0000 0.37060  0.92220  0.90540  Biso   1.000  H
  C93      1.0000 0.21500  0.53130  0.99910  Biso   1.000  C
  H60      1.0000 0.18070  0.54400  0.01420  Biso   1.000  H
  C94      1.0000 0.21790  0.93780  0.81640  Biso   1.000  C
  H61      1.0000 0.17800  0.91560  0.80610  Biso   1.000  H
  C95      1.0000 0.19940  0.40940  0.64370  Biso   1.000  C
  H62      1.0000 0.16330  0.38860  0.61300  Biso   1.000  H
  C96      1.0000 0.30640  0.47120  0.73460  Biso   1.000  C
  H63      1.0000 0.34300  0.49130  0.76520  Biso   1.000  H
  C97      1.0000 0.43060  0.70310  0.16820  Biso   1.000  C
  H64      1.0000 0.44530  0.67730  0.20780  Biso   1.000  H
  C98      1.0000 0.47350  0.23080  0.72060  Biso   1.000  C
  H65      1.0000 0.50660  0.20790  0.75350  Biso   1.000  H
  C99      1.0000 0.31270  0.41700  0.69680  Biso   1.000  C
  H66      1.0000 0.35430  0.40110  0.70150  Biso   1.000  H
  C100     1.0000 0.46720  0.75560  0.15820  Biso   1.000  C
  C101     1.0000 0.26980  0.32010  0.61400  Biso   1.000  C
  H67      1.0000 0.22820  0.30550  0.58150  Biso   1.000  H
  O17      1.0000 0.33500  0.14500  0.80640  Biso   1.000  O
  C102     1.0000 0.48970  0.27430  0.67280  Biso   1.000  C
  C103     1.0000 0.22290  0.00340  0.78850  Biso   1.000  C
  H68      1.0000 0.18630  0.02350  0.75780  Biso   1.000  H
  C104     1.0000 0.32080  0.33020  0.57760  Biso   1.000  C
  H69      1.0000 0.30820  0.30680  0.53420  Biso   1.000  H
  H70      1.0000 0.32770  0.37860  0.57070  Biso   1.000  H
  C105     1.0000 0.28470  0.60640  0.79280  Biso   1.000  C
  H71      1.0000 0.32020  0.60730  0.77720  Biso   1.000  H
  O18      1.0000 0.22020  0.82190  0.89830  Biso   1.000  O
  O19      1.0000 0.75130  0.38600  0.57110  Biso   1.000  O
  C106     1.0000 0.06420  0.23000  0.50650  Biso   1.000  C
  H72      1.0000 0.10760  0.23260  0.50900  Biso   1.000  H
  O20      1.0000 0.76530  0.44580  0.66030  Biso   1.000  O
  C107     1.0000 0.98360  0.22670  0.55660  Biso   1.000  C
  H73      1.0000 0.97130  0.22240  0.59520  Biso   1.000  H
  C108     1.0000 0.75750  0.50410  0.55610  Biso   1.000  C
  C109     1.0000 0.75660  0.43880  0.59890  Biso   1.000  C
  C110     1.0000 0.74500  0.56510  0.57730  Biso   1.000  C
  H74      1.0000 0.73970  0.56860  0.61970  Biso   1.000  H
  C111     1.0000 0.38500  0.77830  0.04940  Biso   1.000  C
  H75      1.0000 0.36900  0.80540  0.01080  Biso   1.000  H
  C112     1.0000 0.76380  0.49720  0.49330  Biso   1.000  C
  H76      1.0000 0.77110  0.45420  0.47760  Biso   1.000  H
  C113     1.0000 0.74950  0.61790  0.47650  Biso   1.000  C
  C114     1.0000 0.73970  0.62360  0.53840  Biso   1.000  C
  H77      1.0000 0.72970  0.66580  0.55360  Biso   1.000  H
  C115     1.0000 0.75950  0.55270  0.45450  Biso   1.000  C
  H78      1.0000 0.76340  0.54770  0.41160  Biso   1.000  H
  C116     1.0000 0.57400  0.34510  0.64690  Biso   1.000  C
  H79      1.0000 0.54380  0.38040  0.63290  Biso   1.000  H
  C117     1.0000 0.63490  0.35150  0.63900  Biso   1.000  C
  H80      1.0000 0.64540  0.39110  0.61980  Biso   1.000  H
  N13      1.0000 0.68016  0.29870  0.65980  Biso   1.000  N
  C118     1.0000 0.66450  0.23960  0.68850  Biso   1.000  C
  H81      1.0000 0.69470  0.20430  0.70240  Biso   1.000  H
  C119     1.0000 0.60360  0.23320  0.69640  Biso   1.000  C
  H82      1.0000 0.59310  0.19360  0.71560  Biso   1.000  H
  C120     1.0000 0.55840  0.28590  0.67560  Biso   1.000  C
  C121     1.0000 0.60580  0.76280  0.32430  Biso   1.000  C
  H83      1.0000 0.61470  0.74810  0.36890  Biso   1.000  H
  N14      1.0000 0.65383  0.79540  0.30470  Biso   1.000  N
  C122     1.0000 0.64060  0.81740  0.23810  Biso   1.000  C
  H84      1.0000 0.67270  0.83910  0.22500  Biso   1.000  H
  C123     1.0000 0.57920  0.80680  0.19110  Biso   1.000  C
  H85      1.0000 0.57030  0.82150  0.14660  Biso   1.000  H
  C124     1.0000 0.53119  0.77420  0.21070  Biso   1.000  C
  C125     1.0000 0.54450  0.75220  0.27730  Biso   1.000  C
  H86      1.0000 0.51230  0.73040  0.29040  Biso   1.000  H
  C126     1.0000 0.25940  0.45210  0.93500  Biso   1.000  C
  C127     1.0000 0.25340  0.39290  0.88810  Biso   1.000  C
  C128     1.0000 0.31490  0.49360  0.95240  Biso   1.000  C
  H87      1.0000 0.34920  0.48190  0.93690  Biso   1.000  H
  C129     1.0000 0.21050  0.47130  0.95930  Biso   1.000  C
  H88      1.0000 0.17320  0.44430  0.94930  Biso   1.000  H
  C130     1.0000 0.18990  0.32380  0.79520  Biso   1.000  C
  H89      1.0000 0.14920  0.31260  0.76490  Biso   1.000  H
  C131     1.0000 0.29810  0.30560  0.83770  Biso   1.000  C
  H90      1.0000 0.33500  0.28180  0.83690  Biso   1.000  H
  C132     1.0000 0.18160  0.61370  0.83650  Biso   1.000  C
  H91      1.0000 0.14480  0.61700  0.85000  Biso   1.000  H
  C133     1.0000 0.19340  0.37540  0.84260  Biso   1.000  C
  H92      1.0000 0.15590  0.39780  0.84360  Biso   1.000  H
  C134     1.0000 0.30480  0.35420  0.88570  Biso   1.000  C
  H93      1.0000 0.34550  0.36140  0.91780  Biso   1.000  H
  C135     1.0000 0.27820  0.65400  0.83770  Biso   1.000  C
  H94      1.0000 0.31190  0.68550  0.85390  Biso   1.000  H
  N15      1.0000 0.24060  0.29010  0.79080  Biso   1.000  N
  N16      1.0000 0.22850  0.65930  0.86030  Biso   1.000  N
  O21      1.0000 0.15210  0.71190  0.96310  Biso   1.000  O
  O22      1.0000 0.07570  0.71200  0.86680  Biso   1.000  O
  C136     1.0000 0.04520  0.70820  0.96580  Biso   1.000  C
  C137     1.0000 0.09430  0.70910  0.92680  Biso   1.000  C
  C138     1.0000 0.97990  0.71010  0.93260  Biso   1.000  C
  H95      1.0000 0.96540  0.71370  0.88550  Biso   1.000  H
  C139     1.0000 0.06530  0.70700  0.03440  Biso   1.000  C
  H96      1.0000 0.10940  0.70410  0.05890  Biso   1.000  H
  O23      1.0000 0.75780  0.23540  0.55140  Biso   1.000  O
  C140     1.0000 0.75410  0.18150  0.57430  Biso   1.000  C
  O24      1.0000 0.76190  0.16420  0.63430  Biso   1.000  O
  Zn7      1.0000 0.26284  0.72601  0.28970  Biso   1.000  Zn
  Zn8      1.0000 0.27213  0.22757  0.06535  Biso   1.000  Zn
  Zn9      1.0000 0.74191  0.80337  0.37518  Biso   1.000  Zn
  O25      1.0000 0.34224  0.73900  0.36730  Biso   1.000  O
  C141     1.0000 0.22910  0.33760  0.11190  Biso   1.000  C
  N17      1.0000 0.20760  0.19750  0.97700  Biso   1.000  N
  N18      1.0000 0.20230  0.76410  0.33610  Biso   1.000  N
  N19      1.0000 0.12670  0.18770  0.87830  Biso   1.000  N
  C142     1.0000 0.15180  0.22050  0.93860  Biso   1.000  C
  N20      1.0000 0.12130  0.79890  0.37420  Biso   1.000  N
  O26      1.0000 0.26560  0.63040  0.26520  Biso   1.000  O
  C143     1.0000 0.39990  0.73090  0.36780  Biso   1.000  C
  C144     1.0000 0.26280  0.05650  0.22920  Biso   1.000  C
  O27      1.0000 0.18130  0.30030  0.10130  Biso   1.000  O
  C145     1.0000 0.45100  0.72950  0.43650  Biso   1.000  C
  C146     1.0000 0.22940  0.07050  0.98470  Biso   1.000  C
  C147     1.0000 0.21330  0.60950  0.21880  Biso   1.000  C
  C148     1.0000 0.17130  0.13170  0.87210  Biso   1.000  C
  H97      1.0000 0.18910  0.14060  0.83580  Biso   1.000  H
  H98      1.0000 0.14970  0.08730  0.86480  Biso   1.000  H
  C149     1.0000 0.25560  0.99700  0.27240  Biso   1.000  C
  C150     1.0000 0.21860  0.53740  0.19370  Biso   1.000  C
  C151     1.0000 0.05820  0.80510  0.37380  Biso   1.000  C
  H99      1.0000 0.04920  0.83150  0.40690  Biso   1.000  H
  C152     1.0000 0.16320  0.50670  0.14940  Biso   1.000  C
  H100     1.0000 0.12360  0.52980  0.13720  Biso   1.000  H
  C153     1.0000 0.31590  0.06080  0.20760  Biso   1.000  C
  H101     1.0000 0.34960  0.02910  0.22210  Biso   1.000  H
  C154     1.0000 0.23970  0.88400  0.34830  Biso   1.000  C
  C155     1.0000 0.14000  0.75820  0.32790  Biso   1.000  C
  C156     1.0000 0.22420  0.13600  0.94270  Biso   1.000  C
  H102     1.0000 0.26630  0.14430  0.93610  Biso   1.000  H
  O28      1.0000 0.41470  0.71730  0.31770  Biso   1.000  O
  C157     1.0000 0.08980  0.72220  0.28130  Biso   1.000  C
  H103     1.0000 0.09920  0.69210  0.25110  Biso   1.000  H
  C158     1.0000 0.05660  0.29160  0.90410  Biso   1.000  C
  H104     1.0000 0.03080  0.32590  0.91330  Biso   1.000  H
  C159     1.0000 0.18000  0.05140  0.00790  Biso   1.000  C
  H105     1.0000 0.14230  0.07780  0.99690  Biso   1.000  H
  C160     1.0000 0.30930  0.96630  0.31870  Biso   1.000  C
  H106     1.0000 0.35080  0.98330  0.32480  Biso   1.000  H
  C161     1.0000 0.22600  0.40750  0.14050  Biso   1.000  C
  C162     1.0000 0.16680  0.44260  0.12360  Biso   1.000  C
  H107     1.0000 0.12940  0.42220  0.09460  Biso   1.000  H
  C163     1.0000 0.28500  0.03130  0.00090  Biso   1.000  C
  H108     1.0000 0.31930  0.04400  0.98580  Biso   1.000  H
  C164     1.0000 0.28210  0.43780  0.18360  Biso   1.000  C
  H109     1.0000 0.32200  0.41560  0.19390  Biso   1.000  H
  C165     1.0000 0.30060  0.90940  0.35630  Biso   1.000  C
  H110     1.0000 0.33670  0.88860  0.38700  Biso   1.000  H
  C166     1.0000 0.19360  0.97120  0.26540  Biso   1.000  C
  H111     1.0000 0.15700  0.99130  0.23480  Biso   1.000  H
  C167     1.0000 0.06940  0.20310  0.83180  Biso   1.000  C
  H112     1.0000 0.05470  0.17730  0.79220  Biso   1.000  H
  C168     1.0000 0.02650  0.73080  0.27940  Biso   1.000  C
  H113     1.0000 0.99340  0.70790  0.24650  Biso   1.000  H
  C169     1.0000 0.18730  0.91700  0.30320  Biso   1.000  C
  H114     1.0000 0.14570  0.90110  0.29850  Biso   1.000  H
  C170     1.0000 0.03280  0.25560  0.84180  Biso   1.000  C
  C171     1.0000 0.23020  0.82010  0.38600  Biso   1.000  C
  H115     1.0000 0.27180  0.80550  0.41850  Biso   1.000  H
  O29      1.0000 0.16500  0.64500  0.19360  Biso   1.000  O
  C172     1.0000 0.01030  0.77430  0.32720  Biso   1.000  C
  C173     1.0000 0.27710  0.50340  0.21150  Biso   1.000  C
  H116     1.0000 0.31370  0.52350  0.24220  Biso   1.000  H
  C174     1.0000 0.17920  0.83020  0.42240  Biso   1.000  C
  H117     1.0000 0.19180  0.80680  0.46580  Biso   1.000  H
  H118     1.0000 0.17230  0.87860  0.42930  Biso   1.000  H
  C175     1.0000 0.21530  0.10640  0.20720  Biso   1.000  C
  H119     1.0000 0.17980  0.10730  0.22280  Biso   1.000  H
  O30      1.0000 0.27980  0.32190  0.10170  Biso   1.000  O
  O31      1.0000 0.74870  0.88600  0.42890  Biso   1.000  O
  C176     1.0000 0.43580  0.73000  0.49350  Biso   1.000  C
  H120     1.0000 0.39240  0.73260  0.49100  Biso   1.000  H
  O32      1.0000 0.73470  0.94580  0.33970  Biso   1.000  O
  C177     1.0000 0.51640  0.72670  0.44340  Biso   1.000  C
  H121     1.0000 0.52870  0.72240  0.40480  Biso   1.000  H
  C178     1.0000 0.74250  0.00410  0.44390  Biso   1.000  C
  C179     1.0000 0.74340  0.93880  0.40110  Biso   1.000  C
  C180     1.0000 0.75500  0.06510  0.42270  Biso   1.000  C
  H122     1.0000 0.76030  0.06860  0.38030  Biso   1.000  H
  C181     1.0000 0.11500  0.27830  0.95060  Biso   1.000  C
  H123     1.0000 0.13100  0.30540  0.98920  Biso   1.000  H
  C182     1.0000 0.73620  0.99720  0.50670  Biso   1.000  C
  H124     1.0000 0.72890  0.95420  0.52240  Biso   1.000  H
  C183     1.0000 0.75050  0.11790  0.52350  Biso   1.000  C
  C184     1.0000 0.76030  0.12360  0.46160  Biso   1.000  C
  H125     1.0000 0.77030  0.16580  0.44640  Biso   1.000  H
  C185     1.0000 0.74050  0.05270  0.54550  Biso   1.000  C
  H126     1.0000 0.73660  0.04770  0.58840  Biso   1.000  H
  C186     1.0000 0.92600  0.84510  0.35310  Biso   1.000  C
  H127     1.0000 0.95620  0.88040  0.36710  Biso   1.000  H
  C187     1.0000 0.86510  0.85150  0.36100  Biso   1.000  C
  H128     1.0000 0.85460  0.89110  0.38020  Biso   1.000  H
  N21      1.0000 0.81984  0.79870  0.34020  Biso   1.000  N
  C188     1.0000 0.83550  0.73960  0.31150  Biso   1.000  C
  H129     1.0000 0.80530  0.70430  0.29760  Biso   1.000  H
  C189     1.0000 0.89640  0.73320  0.30360  Biso   1.000  C
  H130     1.0000 0.90690  0.69360  0.28440  Biso   1.000  H
  C190     1.0000 0.94160  0.78590  0.32440  Biso   1.000  C
  C191     1.0000 0.89420  0.26280  0.67570  Biso   1.000  C
  H131     1.0000 0.88530  0.24810  0.63110  Biso   1.000  H
  N22      1.0000 0.84617  0.29540  0.69530  Biso   1.000  N
  C192     1.0000 0.85940  0.31740  0.76190  Biso   1.000  C
  H132     1.0000 0.82730  0.33910  0.77500  Biso   1.000  H
  C193     1.0000 0.92080  0.30680  0.80890  Biso   1.000  C
  H133     1.0000 0.92970  0.32150  0.85340  Biso   1.000  H
  C194     1.0000 0.96881  0.27420  0.78930  Biso   1.000  C
  C195     1.0000 0.95550  0.25220  0.72270  Biso   1.000  C
  H134     1.0000 0.98770  0.23040  0.70960  Biso   1.000  H
  C196     1.0000 0.24060  0.95210  0.06500  Biso   1.000  C
  C197     1.0000 0.24660  0.89290  0.11190  Biso   1.000  C
  C198     1.0000 0.18510  0.99360  0.04760  Biso   1.000  C
  H135     1.0000 0.15080  0.98190  0.06310  Biso   1.000  H
  C199     1.0000 0.28950  0.97130  0.04070  Biso   1.000  C
  H136     1.0000 0.32680  0.94430  0.05070  Biso   1.000  H
  C200     1.0000 0.31010  0.82380  0.20480  Biso   1.000  C
  H137     1.0000 0.35080  0.81260  0.23510  Biso   1.000  H
  C201     1.0000 0.20190  0.80560  0.16230  Biso   1.000  C
  H138     1.0000 0.16500  0.78180  0.16310  Biso   1.000  H
  C202     1.0000 0.31840  0.11370  0.16350  Biso   1.000  C
  H139     1.0000 0.35520  0.11700  0.15000  Biso   1.000  H
  C203     1.0000 0.30660  0.87540  0.15740  Biso   1.000  C
  H140     1.0000 0.34410  0.89780  0.15640  Biso   1.000  H
  C204     1.0000 0.19520  0.85420  0.11430  Biso   1.000  C
  H141     1.0000 0.15450  0.86140  0.08220  Biso   1.000  H
  C205     1.0000 0.22180  0.15400  0.16230  Biso   1.000  C
  H142     1.0000 0.18810  0.18550  0.14610  Biso   1.000  H
  N23      1.0000 0.25940  0.79010  0.20920  Biso   1.000  N
  N24      1.0000 0.27150  0.15930  0.13970  Biso   1.000  N
  O33      1.0000 0.34790  0.21190  0.03690  Biso   1.000  O
  O34      1.0000 0.42430  0.21200  0.13320  Biso   1.000  O
  C206     1.0000 0.45480  0.20820  0.03420  Biso   1.000  C
  C207     1.0000 0.40570  0.20910  0.07320  Biso   1.000  C
  C208     1.0000 0.52010  0.21010  0.06740  Biso   1.000  C
  H143     1.0000 0.53460  0.21370  0.11450  Biso   1.000  H
  C209     1.0000 0.43470  0.20700  0.96560  Biso   1.000  C
  H144     1.0000 0.39060  0.20410  0.94110  Biso   1.000  H
  O35      1.0000 0.74220  0.73540  0.44860  Biso   1.000  O
  C210     1.0000 0.74590  0.68150  0.42570  Biso   1.000  C
  O36      1.0000 0.73810  0.66420  0.36570  Biso   1.000  O
  Zn10     1.0000 0.76284  0.22601  0.28970  Biso   1.000  Zn
  Zn11     1.0000 0.77213  0.72757  0.06535  Biso   1.000  Zn
  Zn12     1.0000 0.24191  0.30337  0.37518  Biso   1.000  Zn
  O37      1.0000 0.84224  0.23900  0.36730  Biso   1.000  O
  C211     1.0000 0.72910  0.83760  0.11190  Biso   1.000  C
  N25      1.0000 0.70760  0.69750  0.97700  Biso   1.000  N
  N26      1.0000 0.70230  0.26410  0.33610  Biso   1.000  N
  N27      1.0000 0.62670  0.68770  0.87830  Biso   1.000  N
  C212     1.0000 0.65180  0.72050  0.93860  Biso   1.000  C
  N28      1.0000 0.62130  0.29890  0.37420  Biso   1.000  N
  O38      1.0000 0.76560  0.13040  0.26520  Biso   1.000  O
  C213     1.0000 0.89990  0.23090  0.36780  Biso   1.000  C
  C214     1.0000 0.76280  0.55650  0.22920  Biso   1.000  C
  O39      1.0000 0.68130  0.80030  0.10130  Biso   1.000  O
  C215     1.0000 0.95100  0.22950  0.43650  Biso   1.000  C
  C216     1.0000 0.72940  0.57050  0.98470  Biso   1.000  C
  C217     1.0000 0.71330  0.10950  0.21880  Biso   1.000  C
  C218     1.0000 0.67130  0.63170  0.87210  Biso   1.000  C
  H145     1.0000 0.68910  0.64060  0.83580  Biso   1.000  H
  H146     1.0000 0.64970  0.58730  0.86480  Biso   1.000  H
  C219     1.0000 0.75560  0.49700  0.27240  Biso   1.000  C
  C220     1.0000 0.71860  0.03740  0.19370  Biso   1.000  C
  C221     1.0000 0.55820  0.30510  0.37380  Biso   1.000  C
  H147     1.0000 0.54920  0.33150  0.40690  Biso   1.000  H
  C222     1.0000 0.66320  0.00670  0.14940  Biso   1.000  C
  H148     1.0000 0.62360  0.02980  0.13720  Biso   1.000  H
  C223     1.0000 0.81590  0.56080  0.20760  Biso   1.000  C
  H149     1.0000 0.84960  0.52910  0.22210  Biso   1.000  H
  C224     1.0000 0.73970  0.38400  0.34830  Biso   1.000  C
  C225     1.0000 0.64000  0.25820  0.32790  Biso   1.000  C
  C226     1.0000 0.72420  0.63600  0.94270  Biso   1.000  C
  H150     1.0000 0.76630  0.64430  0.93610  Biso   1.000  H
  O40      1.0000 0.91470  0.21730  0.31770  Biso   1.000  O
  C227     1.0000 0.58980  0.22220  0.28130  Biso   1.000  C
  H151     1.0000 0.59920  0.19210  0.25110  Biso   1.000  H
  C228     1.0000 0.55660  0.79160  0.90410  Biso   1.000  C
  H152     1.0000 0.53080  0.82590  0.91330  Biso   1.000  H
  C229     1.0000 0.68000  0.55140  0.00790  Biso   1.000  C
  H153     1.0000 0.64230  0.57780  0.99690  Biso   1.000  H
  C230     1.0000 0.80930  0.46630  0.31870  Biso   1.000  C
  H154     1.0000 0.85080  0.48330  0.32480  Biso   1.000  H
  C231     1.0000 0.72600  0.90750  0.14050  Biso   1.000  C
  C232     1.0000 0.66680  0.94260  0.12360  Biso   1.000  C
  H155     1.0000 0.62940  0.92220  0.09460  Biso   1.000  H
  C233     1.0000 0.78500  0.53130  0.00090  Biso   1.000  C
  H156     1.0000 0.81930  0.54400  0.98580  Biso   1.000  H
  C234     1.0000 0.78210  0.93780  0.18360  Biso   1.000  C
  H157     1.0000 0.82200  0.91560  0.19390  Biso   1.000  H
  C235     1.0000 0.80060  0.40940  0.35630  Biso   1.000  C
  H158     1.0000 0.83670  0.38860  0.38700  Biso   1.000  H
  C236     1.0000 0.69360  0.47120  0.26540  Biso   1.000  C
  H159     1.0000 0.65700  0.49130  0.23480  Biso   1.000  H
  C237     1.0000 0.56940  0.70310  0.83180  Biso   1.000  C
  H160     1.0000 0.55470  0.67730  0.79220  Biso   1.000  H
  C238     1.0000 0.52650  0.23080  0.27940  Biso   1.000  C
  H161     1.0000 0.49340  0.20790  0.24650  Biso   1.000  H
  C239     1.0000 0.68730  0.41700  0.30320  Biso   1.000  C
  H162     1.0000 0.64570  0.40110  0.29850  Biso   1.000  H
  C240     1.0000 0.53280  0.75560  0.84180  Biso   1.000  C
  C241     1.0000 0.73020  0.32010  0.38600  Biso   1.000  C
  H163     1.0000 0.77180  0.30550  0.41850  Biso   1.000  H
  O41      1.0000 0.66500  0.14500  0.19360  Biso   1.000  O
  C242     1.0000 0.51030  0.27430  0.32720  Biso   1.000  C
  C243     1.0000 0.77710  0.00340  0.21150  Biso   1.000  C
  H164     1.0000 0.81370  0.02350  0.24220  Biso   1.000  H
  C244     1.0000 0.67920  0.33020  0.42240  Biso   1.000  C
  H165     1.0000 0.69180  0.30680  0.46580  Biso   1.000  H
  H166     1.0000 0.67230  0.37860  0.42930  Biso   1.000  H
  C245     1.0000 0.71530  0.60640  0.20720  Biso   1.000  C
  H167     1.0000 0.67980  0.60730  0.22280  Biso   1.000  H
  O42      1.0000 0.77980  0.82190  0.10170  Biso   1.000  O
  O43      1.0000 0.24870  0.38600  0.42890  Biso   1.000  O
  C246     1.0000 0.93580  0.23000  0.49350  Biso   1.000  C
  H168     1.0000 0.89240  0.23260  0.49100  Biso   1.000  H
  O44      1.0000 0.23470  0.44580  0.33970  Biso   1.000  O
  C247     1.0000 0.01640  0.22670  0.44340  Biso   1.000  C
  H169     1.0000 0.02870  0.22240  0.40480  Biso   1.000  H
  C248     1.0000 0.24250  0.50410  0.44390  Biso   1.000  C
  C249     1.0000 0.24340  0.43880  0.40110  Biso   1.000  C
  C250     1.0000 0.25500  0.56510  0.42270  Biso   1.000  C
  H170     1.0000 0.26030  0.56860  0.38030  Biso   1.000  H
  C251     1.0000 0.61500  0.77830  0.95060  Biso   1.000  C
  H171     1.0000 0.63100  0.80540  0.98920  Biso   1.000  H
  C252     1.0000 0.23620  0.49720  0.50670  Biso   1.000  C
  H172     1.0000 0.22890  0.45420  0.52240  Biso   1.000  H
  C253     1.0000 0.25050  0.61790  0.52350  Biso   1.000  C
  C254     1.0000 0.26030  0.62360  0.46160  Biso   1.000  C
  H173     1.0000 0.27030  0.66580  0.44640  Biso   1.000  H
  C255     1.0000 0.24050  0.55270  0.54550  Biso   1.000  C
  H174     1.0000 0.23660  0.54770  0.58840  Biso   1.000  H
  C256     1.0000 0.42600  0.34510  0.35310  Biso   1.000  C
  H175     1.0000 0.45620  0.38040  0.36710  Biso   1.000  H
  C257     1.0000 0.36510  0.35150  0.36100  Biso   1.000  C
  H176     1.0000 0.35460  0.39110  0.38020  Biso   1.000  H
  N29      1.0000 0.31984  0.29870  0.34020  Biso   1.000  N
  C258     1.0000 0.33550  0.23960  0.31150  Biso   1.000  C
  H177     1.0000 0.30530  0.20430  0.29760  Biso   1.000  H
  C259     1.0000 0.39640  0.23320  0.30360  Biso   1.000  C
  H178     1.0000 0.40690  0.19360  0.28440  Biso   1.000  H
  C260     1.0000 0.44160  0.28590  0.32440  Biso   1.000  C
  C261     1.0000 0.39420  0.76280  0.67570  Biso   1.000  C
  H179     1.0000 0.38530  0.74810  0.63110  Biso   1.000  H
  N30      1.0000 0.34617  0.79540  0.69530  Biso   1.000  N
  C262     1.0000 0.35940  0.81740  0.76190  Biso   1.000  C
  H180     1.0000 0.32730  0.83910  0.77500  Biso   1.000  H
  C263     1.0000 0.42080  0.80680  0.80890  Biso   1.000  C
  H181     1.0000 0.42970  0.82150  0.85340  Biso   1.000  H
  C264     1.0000 0.46881  0.77420  0.78930  Biso   1.000  C
  C265     1.0000 0.45550  0.75220  0.72270  Biso   1.000  C
  H182     1.0000 0.48770  0.73040  0.70960  Biso   1.000  H
  C266     1.0000 0.74060  0.45210  0.06500  Biso   1.000  C
  C267     1.0000 0.74660  0.39290  0.11190  Biso   1.000  C
  C268     1.0000 0.68510  0.49360  0.04760  Biso   1.000  C
  H183     1.0000 0.65080  0.48190  0.06310  Biso   1.000  H
  C269     1.0000 0.78950  0.47130  0.04070  Biso   1.000  C
  H184     1.0000 0.82680  0.44430  0.05070  Biso   1.000  H
  C270     1.0000 0.81010  0.32380  0.20480  Biso   1.000  C
  H185     1.0000 0.85080  0.31260  0.23510  Biso   1.000  H
  C271     1.0000 0.70190  0.30560  0.16230  Biso   1.000  C
  H186     1.0000 0.66500  0.28180  0.16310  Biso   1.000  H
  C272     1.0000 0.81840  0.61370  0.16350  Biso   1.000  C
  H187     1.0000 0.85520  0.61700  0.15000  Biso   1.000  H
  C273     1.0000 0.80660  0.37540  0.15740  Biso   1.000  C
  H188     1.0000 0.84410  0.39780  0.15640  Biso   1.000  H
  C274     1.0000 0.69520  0.35420  0.11430  Biso   1.000  C
  H189     1.0000 0.65450  0.36140  0.08220  Biso   1.000  H
  C275     1.0000 0.72180  0.65400  0.16230  Biso   1.000  C
  H190     1.0000 0.68810  0.68550  0.14610  Biso   1.000  H
  N31      1.0000 0.75940  0.29010  0.20920  Biso   1.000  N
  N32      1.0000 0.77150  0.65930  0.13970  Biso   1.000  N
  O45      1.0000 0.84790  0.71190  0.03690  Biso   1.000  O
  O46      1.0000 0.92430  0.71200  0.13320  Biso   1.000  O
  C276     1.0000 0.95480  0.70820  0.03420  Biso   1.000  C
  C277     1.0000 0.90570  0.70910  0.07320  Biso   1.000  C
  C278     1.0000 0.02010  0.71010  0.06740  Biso   1.000  C
  H191     1.0000 0.03460  0.71370  0.11450  Biso   1.000  H
  C279     1.0000 0.93470  0.70700  0.96560  Biso   1.000  C
  H192     1.0000 0.89060  0.70410  0.94110  Biso   1.000  H
  O47      1.0000 0.24220  0.23540  0.44860  Biso   1.000  O
  C280     1.0000 0.24590  0.18150  0.42570  Biso   1.000  C
  O48      1.0000 0.23810  0.16420  0.36570  Biso   1.000  O
