data_image0
_cell_length_a       21.5669
_cell_length_b       21.5669
_cell_length_c       7.7969
_cell_angle_alpha    90
_cell_angle_beta     90
_cell_angle_gamma    120

_symmetry_space_group_name_H-M    "P 1"
_symmetry_int_tables_number       1

loop_
  _symmetry_equiv_pos_as_xyz
  'x, y, z'

loop_
  _atom_site_label
  _atom_site_occupancy
  _atom_site_fract_x
  _atom_site_fract_y
  _atom_site_fract_z
  _atom_site_thermal_displace_type
  _atom_site_B_iso_or_equiv
  _atom_site_type_symbol
  F1       1.0000 0.40670  0.05394  0.52840  Biso   1.000  F
  F2       1.0000 0.30760  0.99540  0.66980  Biso   1.000  F
  F3       1.0000 0.36250  0.11042  0.65770  Biso   1.000  F
  O1       1.0000 0.42226  0.00073  0.83780  Biso   1.000  O
  O2       1.0000 0.50349  0.08603  0.14060  Biso   1.000  O
  N1       1.0000 0.49523  0.42559  0.83560  Biso   1.000  N
  C1       1.0000 0.48600  0.43260  0.66760  Biso   1.000  C
  H1       1.0000 0.48040  0.47080  0.63240  Biso   1.000  H
  C2       1.0000 0.48430  0.38610  0.54660  Biso   1.000  C
  H2       1.0000 0.47730  0.39260  0.43190  Biso   1.000  H
  C3       1.0000 0.49310  0.32880  0.59520  Biso   1.000  C
  C4       1.0000 0.50470  0.37120  0.88220  Biso   1.000  C
  H3       1.0000 0.51190  0.36610  0.99770  Biso   1.000  H
  C5       1.0000 0.50430  0.32270  0.76800  Biso   1.000  C
  H4       1.0000 0.51160  0.28600  0.80610  Biso   1.000  H
  C6       1.0000 0.49040  0.27750  0.46450  Biso   1.000  C
  C7       1.0000 0.44470  0.25960  0.32440  Biso   1.000  C
  H5       1.0000 0.41780  0.28210  0.31070  Biso   1.000  H
  C8       1.0000 0.43830  0.20970  0.20560  Biso   1.000  C
  H6       1.0000 0.40590  0.19750  0.11560  Biso   1.000  H
  C9       1.0000 0.48050  0.17700  0.21980  Biso   1.000  C
  C10      1.0000 0.52920  0.19770  0.35630  Biso   1.000  C
  H7       1.0000 0.55860  0.17780  0.36550  Biso   1.000  H
  C11      1.0000 0.53430  0.24660  0.47690  Biso   1.000  C
  H8       1.0000 0.56680  0.25920  0.56670  Biso   1.000  H
  C12      1.0000 0.47410  0.12180  0.09690  Biso   1.000  C
  C13      1.0000 0.43650  0.11200  0.93910  Biso   1.000  C
  H9       1.0000 0.42620  0.14750  0.90760  Biso   1.000  H
  C14      1.0000 0.41450  0.05500  0.83060  Biso   1.000  C
  C15      1.0000 0.37380  0.05500  0.67110  Biso   1.000  C
  F4       1.0000 0.94606  0.35276  0.52840  Biso   1.000  F
  F5       1.0000 0.00460  0.31220  0.66980  Biso   1.000  F
  F6       1.0000 0.88958  0.25208  0.65770  Biso   1.000  F
  O3       1.0000 0.99927  0.42153  0.83780  Biso   1.000  O
  O4       1.0000 0.91397  0.41746  0.14060  Biso   1.000  O
  N2       1.0000 0.57441  0.06964  0.83560  Biso   1.000  N
  C16      1.0000 0.56740  0.05340  0.66760  Biso   1.000  C
  H10      1.0000 0.52920  0.00960  0.63240  Biso   1.000  H
  C17      1.0000 0.61390  0.09820  0.54660  Biso   1.000  C
  H11      1.0000 0.60740  0.08470  0.43190  Biso   1.000  H
  C18      1.0000 0.67120  0.16430  0.59520  Biso   1.000  C
  C19      1.0000 0.62880  0.13350  0.88220  Biso   1.000  C
  H12      1.0000 0.63390  0.14580  0.99770  Biso   1.000  H
  C20      1.0000 0.67730  0.18160  0.76800  Biso   1.000  C
  H13      1.0000 0.71400  0.22560  0.80610  Biso   1.000  H
  C21      1.0000 0.72250  0.21290  0.46450  Biso   1.000  C
  C22      1.0000 0.74040  0.18510  0.32440  Biso   1.000  C
  H14      1.0000 0.71790  0.13570  0.31070  Biso   1.000  H
  C23      1.0000 0.79030  0.22860  0.20560  Biso   1.000  C
  H15      1.0000 0.80250  0.20840  0.11560  Biso   1.000  H
  C24      1.0000 0.82300  0.30350  0.21980  Biso   1.000  C
  C25      1.0000 0.80230  0.33150  0.35630  Biso   1.000  C
  H16      1.0000 0.82220  0.38080  0.36550  Biso   1.000  H
  C26      1.0000 0.75340  0.28770  0.47690  Biso   1.000  C
  H17      1.0000 0.74080  0.30760  0.56670  Biso   1.000  H
  C27      1.0000 0.87820  0.35230  0.09690  Biso   1.000  C
  C28      1.0000 0.88800  0.32450  0.93910  Biso   1.000  C
  H18      1.0000 0.85250  0.27870  0.90760  Biso   1.000  H
  C29      1.0000 0.94500  0.35950  0.83060  Biso   1.000  C
  C30      1.0000 0.94500  0.31880  0.67110  Biso   1.000  C
  F7       1.0000 0.64724  0.59330  0.52840  Biso   1.000  F
  F8       1.0000 0.68780  0.69240  0.66980  Biso   1.000  F
  F9       1.0000 0.74792  0.63750  0.65770  Biso   1.000  F
  O5       1.0000 0.57847  0.57774  0.83780  Biso   1.000  O
  O6       1.0000 0.58254  0.49651  0.14060  Biso   1.000  O
  N3       1.0000 0.93036  0.50477  0.83560  Biso   1.000  N
  C31      1.0000 0.94660  0.51400  0.66760  Biso   1.000  C
  H19      1.0000 0.99040  0.51960  0.63240  Biso   1.000  H
  C32      1.0000 0.90180  0.51570  0.54660  Biso   1.000  C
  H20      1.0000 0.91530  0.52270  0.43190  Biso   1.000  H
  C33      1.0000 0.83570  0.50690  0.59520  Biso   1.000  C
  C34      1.0000 0.86650  0.49530  0.88220  Biso   1.000  C
  H21      1.0000 0.85420  0.48810  0.99770  Biso   1.000  H
  C35      1.0000 0.81840  0.49570  0.76800  Biso   1.000  C
  H22      1.0000 0.77440  0.48840  0.80610  Biso   1.000  H
  C36      1.0000 0.78710  0.50960  0.46450  Biso   1.000  C
  C37      1.0000 0.81490  0.55530  0.32440  Biso   1.000  C
  H23      1.0000 0.86430  0.58220  0.31070  Biso   1.000  H
  C38      1.0000 0.77140  0.56170  0.20560  Biso   1.000  C
  H24      1.0000 0.79160  0.59410  0.11560  Biso   1.000  H
  C39      1.0000 0.69650  0.51950  0.21980  Biso   1.000  C
  C40      1.0000 0.66850  0.47080  0.35630  Biso   1.000  C
  H25      1.0000 0.61920  0.44140  0.36550  Biso   1.000  H
  C41      1.0000 0.71230  0.46570  0.47690  Biso   1.000  C
  H26      1.0000 0.69240  0.43320  0.56670  Biso   1.000  H
  C42      1.0000 0.64770  0.52590  0.09690  Biso   1.000  C
  C43      1.0000 0.67550  0.56350  0.93910  Biso   1.000  C
  H27      1.0000 0.72130  0.57380  0.90760  Biso   1.000  H
  C44      1.0000 0.64050  0.58550  0.83060  Biso   1.000  C
  C45      1.0000 0.68120  0.62620  0.67110  Biso   1.000  C
  F10      1.0000 0.59330  0.94606  0.47160  Biso   1.000  F
  F11      1.0000 0.69240  0.00460  0.33020  Biso   1.000  F
  F12      1.0000 0.63750  0.88958  0.34230  Biso   1.000  F
  O7       1.0000 0.57774  0.99927  0.16220  Biso   1.000  O
  O8       1.0000 0.49651  0.91397  0.85940  Biso   1.000  O
  N4       1.0000 0.50477  0.57441  0.16440  Biso   1.000  N
  C46      1.0000 0.51400  0.56740  0.33240  Biso   1.000  C
  H28      1.0000 0.51960  0.52920  0.36760  Biso   1.000  H
  C47      1.0000 0.51570  0.61390  0.45340  Biso   1.000  C
  H29      1.0000 0.52270  0.60740  0.56810  Biso   1.000  H
  C48      1.0000 0.50690  0.67120  0.40480  Biso   1.000  C
  C49      1.0000 0.49530  0.62880  0.11780  Biso   1.000  C
  H30      1.0000 0.48810  0.63390  0.00230  Biso   1.000  H
  C50      1.0000 0.49570  0.67730  0.23200  Biso   1.000  C
  H31      1.0000 0.48840  0.71400  0.19390  Biso   1.000  H
  C51      1.0000 0.50960  0.72250  0.53550  Biso   1.000  C
  C52      1.0000 0.55530  0.74040  0.67560  Biso   1.000  C
  H32      1.0000 0.58220  0.71790  0.68930  Biso   1.000  H
  C53      1.0000 0.56170  0.79030  0.79440  Biso   1.000  C
  H33      1.0000 0.59410  0.80250  0.88440  Biso   1.000  H
  C54      1.0000 0.51950  0.82300  0.78020  Biso   1.000  C
  C55      1.0000 0.47080  0.80230  0.64370  Biso   1.000  C
  H34      1.0000 0.44140  0.82220  0.63450  Biso   1.000  H
  C56      1.0000 0.46570  0.75340  0.52310  Biso   1.000  C
  H35      1.0000 0.43320  0.74080  0.43330  Biso   1.000  H
  C57      1.0000 0.52590  0.87820  0.90310  Biso   1.000  C
  C58      1.0000 0.56350  0.88800  0.06090  Biso   1.000  C
  H36      1.0000 0.57380  0.85250  0.09240  Biso   1.000  H
  C59      1.0000 0.58550  0.94500  0.16940  Biso   1.000  C
  C60      1.0000 0.62620  0.94500  0.32890  Biso   1.000  C
  F13      1.0000 0.05394  0.64724  0.47160  Biso   1.000  F
  F14      1.0000 0.99540  0.68780  0.33020  Biso   1.000  F
  F15      1.0000 0.11042  0.74792  0.34230  Biso   1.000  F
  O9       1.0000 0.00073  0.57847  0.16220  Biso   1.000  O
  O10      1.0000 0.08603  0.58254  0.85940  Biso   1.000  O
  N5       1.0000 0.42559  0.93036  0.16440  Biso   1.000  N
  C61      1.0000 0.43260  0.94660  0.33240  Biso   1.000  C
  H37      1.0000 0.47080  0.99040  0.36760  Biso   1.000  H
  C62      1.0000 0.38610  0.90180  0.45340  Biso   1.000  C
  H38      1.0000 0.39260  0.91530  0.56810  Biso   1.000  H
  C63      1.0000 0.32880  0.83570  0.40480  Biso   1.000  C
  C64      1.0000 0.37120  0.86650  0.11780  Biso   1.000  C
  H39      1.0000 0.36610  0.85420  0.00230  Biso   1.000  H
  C65      1.0000 0.32270  0.81840  0.23200  Biso   1.000  C
  H40      1.0000 0.28600  0.77440  0.19390  Biso   1.000  H
  C66      1.0000 0.27750  0.78710  0.53550  Biso   1.000  C
  C67      1.0000 0.25960  0.81490  0.67560  Biso   1.000  C
  H41      1.0000 0.28210  0.86430  0.68930  Biso   1.000  H
  C68      1.0000 0.20970  0.77140  0.79440  Biso   1.000  C
  H42      1.0000 0.19750  0.79160  0.88440  Biso   1.000  H
  C69      1.0000 0.17700  0.69650  0.78020  Biso   1.000  C
  C70      1.0000 0.19770  0.66850  0.64370  Biso   1.000  C
  H43      1.0000 0.17780  0.61920  0.63450  Biso   1.000  H
  C71      1.0000 0.24660  0.71230  0.52310  Biso   1.000  C
  H44      1.0000 0.25920  0.69240  0.43330  Biso   1.000  H
  C72      1.0000 0.12180  0.64770  0.90310  Biso   1.000  C
  C73      1.0000 0.11200  0.67550  0.06090  Biso   1.000  C
  H45      1.0000 0.14750  0.72130  0.09240  Biso   1.000  H
  C74      1.0000 0.05500  0.64050  0.16940  Biso   1.000  C
  C75      1.0000 0.05500  0.68120  0.32890  Biso   1.000  C
  F16      1.0000 0.35276  0.40670  0.47160  Biso   1.000  F
  F17      1.0000 0.31220  0.30760  0.33020  Biso   1.000  F
  F18      1.0000 0.25208  0.36250  0.34230  Biso   1.000  F
  O11      1.0000 0.42153  0.42226  0.16220  Biso   1.000  O
  O12      1.0000 0.41746  0.50349  0.85940  Biso   1.000  O
  N6       1.0000 0.06964  0.49523  0.16440  Biso   1.000  N
  C76      1.0000 0.05340  0.48600  0.33240  Biso   1.000  C
  H46      1.0000 0.00960  0.48040  0.36760  Biso   1.000  H
  C77      1.0000 0.09820  0.48430  0.45340  Biso   1.000  C
  H47      1.0000 0.08470  0.47730  0.56810  Biso   1.000  H
  C78      1.0000 0.16430  0.49310  0.40480  Biso   1.000  C
  C79      1.0000 0.13350  0.50470  0.11780  Biso   1.000  C
  H48      1.0000 0.14580  0.51190  0.00230  Biso   1.000  H
  C80      1.0000 0.18160  0.50430  0.23200  Biso   1.000  C
  H49      1.0000 0.22560  0.51160  0.19390  Biso   1.000  H
  C81      1.0000 0.21290  0.49040  0.53550  Biso   1.000  C
  C82      1.0000 0.18510  0.44470  0.67560  Biso   1.000  C
  H50      1.0000 0.13570  0.41780  0.68930  Biso   1.000  H
  C83      1.0000 0.22860  0.43830  0.79440  Biso   1.000  C
  H51      1.0000 0.20840  0.40590  0.88440  Biso   1.000  H
  C84      1.0000 0.30350  0.48050  0.78020  Biso   1.000  C
  C85      1.0000 0.33150  0.52920  0.64370  Biso   1.000  C
  H52      1.0000 0.38080  0.55860  0.63450  Biso   1.000  H
  C86      1.0000 0.28770  0.53430  0.52310  Biso   1.000  C
  H53      1.0000 0.30760  0.56680  0.43330  Biso   1.000  H
  C87      1.0000 0.35230  0.47410  0.90310  Biso   1.000  C
  C88      1.0000 0.32450  0.43650  0.06090  Biso   1.000  C
  H54      1.0000 0.27870  0.42620  0.09240  Biso   1.000  H
  C89      1.0000 0.35950  0.41450  0.16940  Biso   1.000  C
  C90      1.0000 0.31880  0.37380  0.32890  Biso   1.000  C
  Cu1      1.0000 0.50000  0.00000  0.00000  Biso   1.000  Cu
  Cu2      1.0000 0.00000  0.50000  0.00000  Biso   1.000  Cu
  Cu3      1.0000 0.50000  0.50000  0.00000  Biso   1.000  Cu
