data_image0
_cell_length_a       11.6274
_cell_length_b       19.663
_cell_length_c       32.678
_cell_angle_alpha    90
_cell_angle_beta     90
_cell_angle_gamma    90

_symmetry_space_group_name_H-M    "P 1"
_symmetry_int_tables_number       1

loop_
  _symmetry_equiv_pos_as_xyz
  'x, y, z'

loop_
  _atom_site_label
  _atom_site_occupancy
  _atom_site_fract_x
  _atom_site_fract_y
  _atom_site_fract_z
  _atom_site_thermal_displace_type
  _atom_site_B_iso_or_equiv
  _atom_site_type_symbol
  C1       1.0000 0.94020  0.46220  0.44170  Biso   1.000  C
  C2       1.0000 0.91420  0.53460  0.97630  Biso   1.000  C
  C3       1.0000 0.00170  0.61410  0.02560  Biso   1.000  C
  H1       1.0000 0.05620  0.58070  0.03130  Biso   1.000  H
  C4       1.0000 0.79950  0.92870  0.19970  Biso   1.000  C
  H2       1.0000 0.78510  0.97190  0.21010  Biso   1.000  H
  C5       1.0000 0.86340  0.45630  0.92220  Biso   1.000  C
  H3       1.0000 0.82880  0.45030  0.89680  Biso   1.000  H
  C6       1.0000 0.96480  0.11430  0.20770  Biso   1.000  C
  C7       1.0000 0.84200  0.80730  0.16940  Biso   1.000  C
  H4       1.0000 0.85010  0.76400  0.15830  Biso   1.000  H
  C8       1.0000 0.06540  0.09130  0.23030  Biso   1.000  C
  C9       1.0000 0.42130  0.14070  0.29910  Biso   1.000  C
  C10      1.0000 0.17300  0.90590  0.29960  Biso   1.000  C
  C11      1.0000 0.92810  0.72510  0.03650  Biso   1.000  C
  C12      1.0000 0.85230  0.65020  0.98830  Biso   1.000  C
  H5       1.0000 0.79660  0.64390  0.96820  Biso   1.000  H
  C13      1.0000 0.94430  0.09570  0.16370  Biso   1.000  C
  H6       1.0000 0.99760  0.06940  0.14960  Biso   1.000  H
  C14      1.0000 0.47350  0.85030  0.28070  Biso   1.000  C
  H7       1.0000 0.42240  0.81520  0.28640  Biso   1.000  H
  C15      1.0000 0.87930  0.91920  0.16780  Biso   1.000  C
  H8       1.0000 0.91590  0.95670  0.15630  Biso   1.000  H
  C16      1.0000 0.35520  0.92610  0.32470  Biso   1.000  C
  H9       1.0000 0.37440  0.96470  0.34230  Biso   1.000  H
  C17      1.0000 0.74390  0.87330  0.21500  Biso   1.000  C
  C18      1.0000 0.01240  0.67570  0.04800  Biso   1.000  C
  H10      1.0000 0.06800  0.68300  0.06800  Biso   1.000  H
  C19      1.0000 0.64880  0.88590  0.24930  Biso   1.000  C
  C20      1.0000 0.75970  0.14980  0.16380  Biso   1.000  C
  C21      1.0000 0.47280  0.03820  0.19260  Biso   1.000  C
  H11      1.0000 0.49540  0.07910  0.20440  Biso   1.000  H
  C22      1.0000 0.69090  0.23500  0.35280  Biso   1.000  C
  C23      1.0000 0.60430  0.21000  0.37800  Biso   1.000  C
  H12      1.0000 0.60940  0.21560  0.40620  Biso   1.000  H
  C24      1.0000 0.51020  0.17680  0.36110  Biso   1.000  C
  H13      1.0000 0.45220  0.16010  0.37790  Biso   1.000  H
  C25      1.0000 0.50270  0.16850  0.31890  Biso   1.000  C
  C26      1.0000 0.58930  0.19340  0.29370  Biso   1.000  C
  H14      1.0000 0.58430  0.18790  0.26550  Biso   1.000  H
  C27      1.0000 0.68340  0.22670  0.31070  Biso   1.000  C
  H15      1.0000 0.74140  0.24330  0.29380  Biso   1.000  H
  C28      1.0000 0.64020  0.94450  0.26890  Biso   1.000  C
  H16      1.0000 0.69690  0.97720  0.26480  Biso   1.000  H
  C29      1.0000 0.92130  0.59780  0.99690  Biso   1.000  C
  C30      1.0000 0.76360  0.81430  0.20160  Biso   1.000  C
  H17      1.0000 0.72720  0.77660  0.21290  Biso   1.000  H
  C31      1.0000 0.77610  0.77380  0.99850  Biso   1.000  C
  H18      1.0000 0.77970  0.78970  0.97040  Biso   1.000  H
  H19      1.0000 0.69690  0.76470  0.00600  Biso   1.000  H
  C32      1.0000 0.84550  0.11810  0.14430  Biso   1.000  C
  H20      1.0000 0.83830  0.11070  0.11630  Biso   1.000  H
  C33      1.0000 0.53880  0.00940  0.16360  Biso   1.000  C
  H21      1.0000 0.60360  0.03310  0.15500  Biso   1.000  H
  C34      1.0000 0.80240  0.72510  0.39930  Biso   1.000  C
  H22      1.0000 0.79940  0.71520  0.42710  Biso   1.000  H
  C35      1.0000 0.89920  0.75640  0.38290  Biso   1.000  C
  H23      1.0000 0.96100  0.76740  0.39970  Biso   1.000  H
  C36      1.0000 0.90370  0.77120  0.34130  Biso   1.000  C
  C37      1.0000 0.81140  0.75480  0.31620  Biso   1.000  C
  H24      1.0000 0.81430  0.76480  0.28840  Biso   1.000  H
  C38      1.0000 0.71450  0.72360  0.33260  Biso   1.000  C
  H25      1.0000 0.65280  0.71260  0.31570  Biso   1.000  H
  N1       1.0000 0.71010  0.70870  0.37410  Biso   1.000  N
  C39      1.0000 0.77320  0.16900  0.20120  Biso   1.000  C
  H26      1.0000 0.71830  0.19700  0.21330  Biso   1.000  H
  C40      1.0000 0.54610  0.96010  0.29670  Biso   1.000  C
  H27      1.0000 0.54200  0.00050  0.31150  Biso   1.000  H
  C41      1.0000 0.00100  0.70000  0.54280  Biso   1.000  C
  C42      1.0000 0.96600  0.47180  0.99760  Biso   1.000  C
  H28      1.0000 0.99250  0.47260  0.02440  Biso   1.000  H
  C43      1.0000 0.06660  0.90570  0.27720  Biso   1.000  C
  H29      1.0000 0.05410  0.93210  0.25400  Biso   1.000  H
  C44      1.0000 0.85510  0.51930  0.94020  Biso   1.000  C
  H30      1.0000 0.80930  0.55240  0.92800  Biso   1.000  H
  C45      1.0000 0.87910  0.14650  0.22620  Biso   1.000  C
  H31      1.0000 0.88290  0.15540  0.25420  Biso   1.000  H
  C46      1.0000 0.99740  0.81740  0.32610  Biso   1.000  C
  C47      1.0000 0.46010  0.90820  0.29940  Biso   1.000  C
  C48      1.0000 0.98610  0.86320  0.29310  Biso   1.000  C
  H32      1.0000 0.91420  0.86450  0.28060  Biso   1.000  H
  C49      1.0000 0.97570  0.64180  0.51390  Biso   1.000  C
  C50      1.0000 0.91210  0.58810  0.52980  Biso   1.000  C
  H33      1.0000 0.87850  0.59190  0.55550  Biso   1.000  H
  C51      1.0000 0.89860  0.52870  0.50730  Biso   1.000  C
  H34      1.0000 0.85600  0.49280  0.51790  Biso   1.000  H
  C52      1.0000 0.94880  0.52300  0.46880  Biso   1.000  C
  C53      1.0000 0.01240  0.57670  0.45290  Biso   1.000  C
  H35      1.0000 0.04600  0.57290  0.42720  Biso   1.000  H
  C54      1.0000 0.02590  0.63610  0.47550  Biso   1.000  C
  H36      1.0000 0.06850  0.67200  0.46480  Biso   1.000  H
  C55      1.0000 0.64820  0.16720  0.14170  Biso   1.000  C
  C56      1.0000 0.96900  0.41450  0.97360  Biso   1.000  C
  H37      1.0000 0.01360  0.37820  0.98290  Biso   1.000  H
  C57      1.0000 0.59900  0.84750  0.11180  Biso   1.000  C
  H38      1.0000 0.55240  0.82110  0.12850  Biso   1.000  H
  C58      1.0000 0.59760  0.91800  0.11540  Biso   1.000  C
  C59      1.0000 0.66740  0.95750  0.09030  Biso   1.000  C
  H39      1.0000 0.66650  0.00460  0.09270  Biso   1.000  H
  C60      1.0000 0.73860  0.92650  0.06170  Biso   1.000  C
  H40      1.0000 0.78530  0.95300  0.04490  Biso   1.000  H
  C61      1.0000 0.74000  0.85610  0.05810  Biso   1.000  C
  C62      1.0000 0.67020  0.81660  0.08310  Biso   1.000  C
  H41      1.0000 0.67120  0.76950  0.08070  Biso   1.000  H
  C63      1.0000 0.30250  0.87230  0.35000  Biso   1.000  C
  H42      1.0000 0.29400  0.88730  0.37810  Biso   1.000  H
  H43      1.0000 0.34870  0.83130  0.34950  Biso   1.000  H
  C64      1.0000 0.83150  0.82030  0.02660  Biso   1.000  C
  H44      1.0000 0.86770  0.85640  0.01040  Biso   1.000  H
  C65      1.0000 0.10390  0.81340  0.34580  Biso   1.000  C
  H45      1.0000 0.11910  0.78290  0.36690  Biso   1.000  H
  C66      1.0000 0.56330  0.83860  0.25190  Biso   1.000  C
  H46      1.0000 0.56360  0.80010  0.23540  Biso   1.000  H
  C67      1.0000 0.51850  0.95100  0.14670  Biso   1.000  C
  C68      1.0000 0.42130  0.91950  0.15970  Biso   1.000  C
  H47      1.0000 0.40080  0.87770  0.14860  Biso   1.000  H
  C69      1.0000 0.35050  0.94970  0.19010  Biso   1.000  C
  H48      1.0000 0.28570  0.92690  0.19960  Biso   1.000  H
  Cd1      1.0000 0.97405  0.34190  0.40176  Biso   1.000  Cd
  Cd2      1.0000 0.03571  0.80643  0.59522  Biso   1.000  Cd
  Cd3      1.0000 0.26441  0.04665  0.25984  Biso   1.000  Cd
  N2       1.0000 0.90380  0.85570  0.15340  Biso   1.000  N
  N3       1.0000 0.91900  0.78790  0.04980  Biso   1.000  N
  N4       1.0000 0.26300  0.94840  0.29460  Biso   1.000  N
  N5       1.0000 0.85730  0.71030  0.00620  Biso   1.000  N
  N6       1.0000 0.18710  0.86030  0.33070  Biso   1.000  N
  N7       1.0000 0.37610  0.00880  0.20460  Biso   1.000  N
  N8       1.0000 0.91410  0.40680  0.93760  Biso   1.000  N
  O1       1.0000 0.64420  0.15130  0.10520  Biso   1.000  O
  O2       1.0000 0.57200  0.19580  0.15900  Biso   1.000  O
  O3       1.0000 0.97000  0.45940  0.40960  Biso   1.000  O
  O4       1.0000 0.09290  0.11700  0.25970  Biso   1.000  O
  O5       1.0000 0.34920  0.09530  0.31790  Biso   1.000  O
  O6       1.0000 0.39110  0.13730  0.26260  Biso   1.000  O
  O7       1.0000 0.12270  0.04810  0.21430  Biso   1.000  O
  O8       1.0000 0.90500  0.40910  0.46030  Biso   1.000  O
  O9       1.0000 0.98600  0.69910  0.57840  Biso   1.000  O
  O10      1.0000 0.05400  0.74850  0.52700  Biso   1.000  O
  C70      1.0000 0.78390  0.26510  0.36950  Biso   1.000  C
  O11      1.0000 0.79630  0.28140  0.40410  Biso   1.000  O
  O12      1.0000 0.87270  0.27680  0.35180  Biso   1.000  O
  C71      1.0000 0.55980  0.53780  0.94170  Biso   1.000  C
  C72      1.0000 0.58580  0.46540  0.47630  Biso   1.000  C
  C73      1.0000 0.49830  0.38590  0.52560  Biso   1.000  C
  H49      1.0000 0.44380  0.41930  0.53130  Biso   1.000  H
  C74      1.0000 0.70050  0.07130  0.69970  Biso   1.000  C
  H50      1.0000 0.71490  0.02810  0.71010  Biso   1.000  H
  C75      1.0000 0.63660  0.54370  0.42220  Biso   1.000  C
  H51      1.0000 0.67120  0.54970  0.39680  Biso   1.000  H
  C76      1.0000 0.53520  0.88570  0.70770  Biso   1.000  C
  C77      1.0000 0.65800  0.19270  0.66940  Biso   1.000  C
  H52      1.0000 0.64990  0.23600  0.65830  Biso   1.000  H
  C78      1.0000 0.43460  0.90870  0.73030  Biso   1.000  C
  C79      1.0000 0.07870  0.85930  0.79910  Biso   1.000  C
  C80      1.0000 0.32700  0.09410  0.79960  Biso   1.000  C
  C81      1.0000 0.57190  0.27490  0.53650  Biso   1.000  C
  C82      1.0000 0.64770  0.34980  0.48830  Biso   1.000  C
  H53      1.0000 0.70340  0.35610  0.46820  Biso   1.000  H
  C83      1.0000 0.55570  0.90430  0.66370  Biso   1.000  C
  H54      1.0000 0.50240  0.93060  0.64960  Biso   1.000  H
  C84      1.0000 0.02650  0.14970  0.78070  Biso   1.000  C
  H55      1.0000 0.07760  0.18480  0.78640  Biso   1.000  H
  C85      1.0000 0.62070  0.08080  0.66780  Biso   1.000  C
  H56      1.0000 0.58410  0.04330  0.65630  Biso   1.000  H
  C86      1.0000 0.14480  0.07390  0.82470  Biso   1.000  C
  H57      1.0000 0.12560  0.03530  0.84230  Biso   1.000  H
  C87      1.0000 0.75610  0.12670  0.71500  Biso   1.000  C
  C88      1.0000 0.48760  0.32430  0.54800  Biso   1.000  C
  H58      1.0000 0.43200  0.31700  0.56800  Biso   1.000  H
  C89      1.0000 0.85120  0.11410  0.74930  Biso   1.000  C
  C90      1.0000 0.74030  0.85020  0.66380  Biso   1.000  C
  C91      1.0000 0.02720  0.96180  0.69260  Biso   1.000  C
  H59      1.0000 0.00460  0.92090  0.70440  Biso   1.000  H
  C92      1.0000 0.80910  0.76500  0.85280  Biso   1.000  C
  C93      1.0000 0.89570  0.79000  0.87800  Biso   1.000  C
  H60      1.0000 0.89060  0.78440  0.90620  Biso   1.000  H
  C94      1.0000 0.98980  0.82320  0.86110  Biso   1.000  C
  H61      1.0000 0.04780  0.83990  0.87790  Biso   1.000  H
  C95      1.0000 0.99730  0.83150  0.81890  Biso   1.000  C
  C96      1.0000 0.91070  0.80660  0.79370  Biso   1.000  C
  H62      1.0000 0.91570  0.81210  0.76550  Biso   1.000  H
  C97      1.0000 0.81660  0.77330  0.81070  Biso   1.000  C
  H63      1.0000 0.75860  0.75670  0.79380  Biso   1.000  H
  C98      1.0000 0.85980  0.05550  0.76890  Biso   1.000  C
  H64      1.0000 0.80310  0.02280  0.76480  Biso   1.000  H
  C99      1.0000 0.57870  0.40220  0.49690  Biso   1.000  C
  C100     1.0000 0.73640  0.18570  0.70160  Biso   1.000  C
  H65      1.0000 0.77280  0.22340  0.71290  Biso   1.000  H
  C101     1.0000 0.72390  0.22620  0.49850  Biso   1.000  C
  H66      1.0000 0.72030  0.21030  0.47040  Biso   1.000  H
  H67      1.0000 0.80310  0.23530  0.50600  Biso   1.000  H
  C102     1.0000 0.65450  0.88190  0.64430  Biso   1.000  C
  H68      1.0000 0.66170  0.88930  0.61630  Biso   1.000  H
  C103     1.0000 0.96120  0.99060  0.66360  Biso   1.000  C
  H69      1.0000 0.89640  0.96690  0.65500  Biso   1.000  H
  C104     1.0000 0.69760  0.27490  0.89930  Biso   1.000  C
  H70      1.0000 0.70060  0.28480  0.92710  Biso   1.000  H
  C105     1.0000 0.60080  0.24360  0.88290  Biso   1.000  C
  H71      1.0000 0.53900  0.23260  0.89970  Biso   1.000  H
  C106     1.0000 0.59630  0.22880  0.84130  Biso   1.000  C
  C107     1.0000 0.68860  0.24520  0.81620  Biso   1.000  C
  H72      1.0000 0.68570  0.23520  0.78840  Biso   1.000  H
  C108     1.0000 0.78550  0.27640  0.83260  Biso   1.000  C
  H73      1.0000 0.84720  0.28740  0.81570  Biso   1.000  H
  N9       1.0000 0.78990  0.29130  0.87410  Biso   1.000  N
  C109     1.0000 0.72680  0.83100  0.70120  Biso   1.000  C
  H74      1.0000 0.78170  0.80300  0.71330  Biso   1.000  H
  C110     1.0000 0.95390  0.03990  0.79670  Biso   1.000  C
  H75      1.0000 0.95800  0.99950  0.81150  Biso   1.000  H
  C111     1.0000 0.49900  0.30000  0.04280  Biso   1.000  C
  C112     1.0000 0.53400  0.52820  0.49760  Biso   1.000  C
  H76      1.0000 0.50750  0.52740  0.52440  Biso   1.000  H
  C113     1.0000 0.43340  0.09430  0.77720  Biso   1.000  C
  H77      1.0000 0.44590  0.06790  0.75400  Biso   1.000  H
  C114     1.0000 0.64490  0.48070  0.44020  Biso   1.000  C
  H78      1.0000 0.69070  0.44760  0.42800  Biso   1.000  H
  C115     1.0000 0.62090  0.85350  0.72620  Biso   1.000  C
  H79      1.0000 0.61710  0.84460  0.75420  Biso   1.000  H
  C116     1.0000 0.50260  0.18260  0.82610  Biso   1.000  C
  C117     1.0000 0.03990  0.09180  0.79940  Biso   1.000  C
  C118     1.0000 0.51390  0.13680  0.79310  Biso   1.000  C
  H80      1.0000 0.58580  0.13550  0.78060  Biso   1.000  H
  C119     1.0000 0.52430  0.35820  0.01390  Biso   1.000  C
  C120     1.0000 0.58790  0.41190  0.02980  Biso   1.000  C
  H81      1.0000 0.62150  0.40810  0.05550  Biso   1.000  H
  C121     1.0000 0.60140  0.47130  0.00730  Biso   1.000  C
  H82      1.0000 0.64400  0.50720  0.01790  Biso   1.000  H
  C122     1.0000 0.55120  0.47700  0.96880  Biso   1.000  C
  C123     1.0000 0.48760  0.42330  0.95290  Biso   1.000  C
  H83      1.0000 0.45400  0.42710  0.92720  Biso   1.000  H
  C124     1.0000 0.47410  0.36390  0.97550  Biso   1.000  C
  H84      1.0000 0.43150  0.32800  0.96480  Biso   1.000  H
  C125     1.0000 0.85180  0.83280  0.64170  Biso   1.000  C
  C126     1.0000 0.53100  0.58550  0.47360  Biso   1.000  C
  H85      1.0000 0.48640  0.62180  0.48290  Biso   1.000  H
  C127     1.0000 0.90100  0.15250  0.61180  Biso   1.000  C
  H86      1.0000 0.94760  0.17890  0.62850  Biso   1.000  H
  C128     1.0000 0.90240  0.08200  0.61540  Biso   1.000  C
  C129     1.0000 0.83260  0.04250  0.59030  Biso   1.000  C
  H87      1.0000 0.83350  0.99540  0.59270  Biso   1.000  H
  C130     1.0000 0.76140  0.07350  0.56170  Biso   1.000  C
  H88      1.0000 0.71470  0.04700  0.54490  Biso   1.000  H
  C131     1.0000 0.76000  0.14390  0.55810  Biso   1.000  C
  C132     1.0000 0.82980  0.18340  0.58310  Biso   1.000  C
  H89      1.0000 0.82880  0.23050  0.58070  Biso   1.000  H
  C133     1.0000 0.19750  0.12770  0.85000  Biso   1.000  C
  H90      1.0000 0.20600  0.11270  0.87810  Biso   1.000  H
  H91      1.0000 0.15130  0.16870  0.84950  Biso   1.000  H
  C134     1.0000 0.66850  0.17970  0.52660  Biso   1.000  C
  H92      1.0000 0.63230  0.14360  0.51040  Biso   1.000  H
  C135     1.0000 0.39610  0.18660  0.84580  Biso   1.000  C
  H93      1.0000 0.38090  0.21710  0.86690  Biso   1.000  H
  C136     1.0000 0.93670  0.16140  0.75190  Biso   1.000  C
  H94      1.0000 0.93640  0.19990  0.73540  Biso   1.000  H
  C137     1.0000 0.98150  0.04900  0.64670  Biso   1.000  C
  C138     1.0000 0.07870  0.08050  0.65970  Biso   1.000  C
  H95      1.0000 0.09920  0.12230  0.64860  Biso   1.000  H
  C139     1.0000 0.14950  0.05030  0.69010  Biso   1.000  C
  H96      1.0000 0.21430  0.07310  0.69960  Biso   1.000  H
  Cd4      1.0000 0.52595  0.65810  0.90176  Biso   1.000  Cd
  Cd5      1.0000 0.46429  0.19357  0.09522  Biso   1.000  Cd
  Cd6      1.0000 0.23559  0.95335  0.75984  Biso   1.000  Cd
  N10      1.0000 0.59620  0.14430  0.65340  Biso   1.000  N
  N11      1.0000 0.58100  0.21210  0.54980  Biso   1.000  N
  N12      1.0000 0.23700  0.05160  0.79460  Biso   1.000  N
  N13      1.0000 0.64270  0.28970  0.50620  Biso   1.000  N
  N14      1.0000 0.31290  0.13970  0.83070  Biso   1.000  N
  N15      1.0000 0.12390  0.99120  0.70460  Biso   1.000  N
  N16      1.0000 0.58590  0.59320  0.43760  Biso   1.000  N
  O13      1.0000 0.85580  0.84870  0.60520  Biso   1.000  O
  O14      1.0000 0.92800  0.80420  0.65900  Biso   1.000  O
  O15      1.0000 0.53000  0.54060  0.90960  Biso   1.000  O
  O16      1.0000 0.40710  0.88300  0.75970  Biso   1.000  O
  O17      1.0000 0.15080  0.90470  0.81790  Biso   1.000  O
  O18      1.0000 0.10890  0.86270  0.76260  Biso   1.000  O
  O19      1.0000 0.37730  0.95190  0.71430  Biso   1.000  O
  O20      1.0000 0.59500  0.59090  0.96030  Biso   1.000  O
  O21      1.0000 0.51400  0.30090  0.07840  Biso   1.000  O
  O22      1.0000 0.44600  0.25150  0.02700  Biso   1.000  O
  C140     1.0000 0.71610  0.73490  0.86950  Biso   1.000  C
  O23      1.0000 0.70370  0.71860  0.90410  Biso   1.000  O
  O24      1.0000 0.62730  0.72320  0.85180  Biso   1.000  O
  C141     1.0000 0.05980  0.96220  0.05830  Biso   1.000  C
  C142     1.0000 0.08580  0.03460  0.52370  Biso   1.000  C
  C143     1.0000 0.99830  0.11410  0.47440  Biso   1.000  C
  H97      1.0000 0.94380  0.08070  0.46870  Biso   1.000  H
  C144     1.0000 0.20050  0.42870  0.30030  Biso   1.000  C
  H98      1.0000 0.21490  0.47190  0.28990  Biso   1.000  H
  C145     1.0000 0.13660  0.95630  0.57780  Biso   1.000  C
  H99      1.0000 0.17120  0.95030  0.60320  Biso   1.000  H
  C146     1.0000 0.03520  0.61430  0.29230  Biso   1.000  C
  C147     1.0000 0.15800  0.30730  0.33060  Biso   1.000  C
  H100     1.0000 0.14990  0.26400  0.34170  Biso   1.000  H
  C148     1.0000 0.93460  0.59130  0.26970  Biso   1.000  C
  C149     1.0000 0.57870  0.64070  0.20090  Biso   1.000  C
  C150     1.0000 0.82700  0.40590  0.20040  Biso   1.000  C
  C151     1.0000 0.07190  0.22510  0.46350  Biso   1.000  C
  C152     1.0000 0.14770  0.15020  0.51170  Biso   1.000  C
  H101     1.0000 0.20340  0.14390  0.53180  Biso   1.000  H
  C153     1.0000 0.05570  0.59570  0.33630  Biso   1.000  C
  H102     1.0000 0.00240  0.56940  0.35040  Biso   1.000  H
  C154     1.0000 0.52650  0.35030  0.21930  Biso   1.000  C
  H103     1.0000 0.57760  0.31520  0.21360  Biso   1.000  H
  C155     1.0000 0.12070  0.41920  0.33220  Biso   1.000  C
  H104     1.0000 0.08410  0.45670  0.34370  Biso   1.000  H
  C156     1.0000 0.64480  0.42610  0.17530  Biso   1.000  C
  H105     1.0000 0.62560  0.46470  0.15770  Biso   1.000  H
  C157     1.0000 0.25610  0.37330  0.28500  Biso   1.000  C
  C158     1.0000 0.98760  0.17570  0.45200  Biso   1.000  C
  H106     1.0000 0.93200  0.18300  0.43200  Biso   1.000  H
  C159     1.0000 0.35120  0.38590  0.25070  Biso   1.000  C
  C160     1.0000 0.24030  0.64980  0.33620  Biso   1.000  C
  C161     1.0000 0.52720  0.53820  0.30740  Biso   1.000  C
  H107     1.0000 0.50460  0.57910  0.29560  Biso   1.000  H
  C162     1.0000 0.30910  0.73500  0.14720  Biso   1.000  C
  C163     1.0000 0.39570  0.71000  0.12200  Biso   1.000  C
  H108     1.0000 0.39060  0.71560  0.09380  Biso   1.000  H
  C164     1.0000 0.48980  0.67680  0.13890  Biso   1.000  C
  H109     1.0000 0.54780  0.66010  0.12210  Biso   1.000  H
  C165     1.0000 0.49730  0.66850  0.18110  Biso   1.000  C
  C166     1.0000 0.41070  0.69340  0.20630  Biso   1.000  C
  H110     1.0000 0.41570  0.68790  0.23450  Biso   1.000  H
  C167     1.0000 0.31660  0.72670  0.18930  Biso   1.000  C
  H111     1.0000 0.25860  0.74330  0.20620  Biso   1.000  H
  C168     1.0000 0.35980  0.44450  0.23110  Biso   1.000  C
  H112     1.0000 0.30310  0.47720  0.23520  Biso   1.000  H
  C169     1.0000 0.07870  0.09780  0.50310  Biso   1.000  C
  C170     1.0000 0.23640  0.31430  0.29840  Biso   1.000  C
  H113     1.0000 0.27280  0.27660  0.28710  Biso   1.000  H
  C171     1.0000 0.22390  0.27380  0.50150  Biso   1.000  C
  H114     1.0000 0.22030  0.28970  0.52960  Biso   1.000  H
  H115     1.0000 0.30310  0.26470  0.49400  Biso   1.000  H
  C172     1.0000 0.15450  0.61810  0.35570  Biso   1.000  C
  H116     1.0000 0.16170  0.61070  0.38370  Biso   1.000  H
  C173     1.0000 0.46120  0.50940  0.33640  Biso   1.000  C
  H117     1.0000 0.39640  0.53310  0.34500  Biso   1.000  H
  C174     1.0000 0.19760  0.22510  0.10070  Biso   1.000  C
  H118     1.0000 0.20060  0.21520  0.07290  Biso   1.000  H
  C175     1.0000 0.10080  0.25640  0.11710  Biso   1.000  C
  H119     1.0000 0.03900  0.26740  0.10030  Biso   1.000  H
  C176     1.0000 0.09630  0.27120  0.15870  Biso   1.000  C
  C177     1.0000 0.18860  0.25480  0.18380  Biso   1.000  C
  H120     1.0000 0.18570  0.26480  0.21160  Biso   1.000  H
  C178     1.0000 0.28550  0.22360  0.16740  Biso   1.000  C
  H121     1.0000 0.34720  0.21260  0.18430  Biso   1.000  H
  N17      1.0000 0.28990  0.20870  0.12590  Biso   1.000  N
  C179     1.0000 0.22680  0.66900  0.29880  Biso   1.000  C
  H122     1.0000 0.28170  0.69700  0.28670  Biso   1.000  H
  C180     1.0000 0.45390  0.46010  0.20330  Biso   1.000  C
  H123     1.0000 0.45800  0.50050  0.18850  Biso   1.000  H
  C181     1.0000 0.99900  0.20000  0.95720  Biso   1.000  C
  C182     1.0000 0.03400  0.97180  0.50240  Biso   1.000  C
  H124     1.0000 0.00750  0.97260  0.47560  Biso   1.000  H
  C183     1.0000 0.93340  0.40570  0.22280  Biso   1.000  C
  H125     1.0000 0.94590  0.43210  0.24600  Biso   1.000  H
  C184     1.0000 0.14490  0.01930  0.55980  Biso   1.000  C
  H126     1.0000 0.19070  0.05240  0.57200  Biso   1.000  H
  C185     1.0000 0.12090  0.64650  0.27380  Biso   1.000  C
  H127     1.0000 0.11710  0.65540  0.24580  Biso   1.000  H
  C186     1.0000 0.00260  0.31740  0.17390  Biso   1.000  C
  C187     1.0000 0.53990  0.40820  0.20060  Biso   1.000  C
  C188     1.0000 0.01390  0.36320  0.20690  Biso   1.000  C
  H128     1.0000 0.08580  0.36450  0.21940  Biso   1.000  H
  C189     1.0000 0.02430  0.14180  0.98610  Biso   1.000  C
  C190     1.0000 0.08790  0.08810  0.97020  Biso   1.000  C
  H129     1.0000 0.12150  0.09190  0.94450  Biso   1.000  H
  C191     1.0000 0.10140  0.02870  0.99270  Biso   1.000  C
  H130     1.0000 0.14400  0.99280  0.98210  Biso   1.000  H
  C192     1.0000 0.05120  0.02300  0.03120  Biso   1.000  C
  C193     1.0000 0.98760  0.07670  0.04710  Biso   1.000  C
  H131     1.0000 0.95400  0.07290  0.07280  Biso   1.000  H
  C194     1.0000 0.97410  0.13610  0.02450  Biso   1.000  C
  H132     1.0000 0.93150  0.17200  0.03520  Biso   1.000  H
  C195     1.0000 0.35180  0.66720  0.35830  Biso   1.000  C
  C196     1.0000 0.03100  0.91450  0.52640  Biso   1.000  C
  H133     1.0000 0.98640  0.87820  0.51710  Biso   1.000  H
  C197     1.0000 0.40100  0.34750  0.38820  Biso   1.000  C
  H134     1.0000 0.44760  0.32110  0.37150  Biso   1.000  H
  C198     1.0000 0.40240  0.41800  0.38460  Biso   1.000  C
  C199     1.0000 0.33260  0.45750  0.40970  Biso   1.000  C
  H135     1.0000 0.33350  0.50460  0.40730  Biso   1.000  H
  C200     1.0000 0.26140  0.42650  0.43830  Biso   1.000  C
  H136     1.0000 0.21470  0.45300  0.45510  Biso   1.000  H
  C201     1.0000 0.26000  0.35610  0.44190  Biso   1.000  C
  C202     1.0000 0.32980  0.31660  0.41690  Biso   1.000  C
  H137     1.0000 0.32880  0.26950  0.41930  Biso   1.000  H
  C203     1.0000 0.69750  0.37230  0.15000  Biso   1.000  C
  H138     1.0000 0.70600  0.38730  0.12190  Biso   1.000  H
  H139     1.0000 0.65130  0.33130  0.15050  Biso   1.000  H
  C204     1.0000 0.16850  0.32030  0.47340  Biso   1.000  C
  H140     1.0000 0.13230  0.35640  0.48960  Biso   1.000  H
  C205     1.0000 0.89610  0.31340  0.15420  Biso   1.000  C
  H141     1.0000 0.88090  0.28290  0.13310  Biso   1.000  H
  C206     1.0000 0.43670  0.33860  0.24810  Biso   1.000  C
  H142     1.0000 0.43640  0.30010  0.26460  Biso   1.000  H
  C207     1.0000 0.48150  0.45100  0.35330  Biso   1.000  C
  C208     1.0000 0.57870  0.41950  0.34030  Biso   1.000  C
  H143     1.0000 0.59920  0.37770  0.35140  Biso   1.000  H
  C209     1.0000 0.64950  0.44970  0.30990  Biso   1.000  C
  H144     1.0000 0.71430  0.42690  0.30040  Biso   1.000  H
  Cd7      1.0000 0.02595  0.84190  0.09824  Biso   1.000  Cd
  Cd8      1.0000 0.96429  0.30643  0.90478  Biso   1.000  Cd
  Cd9      1.0000 0.73559  0.54665  0.24016  Biso   1.000  Cd
  N18      1.0000 0.09620  0.35570  0.34660  Biso   1.000  N
  N19      1.0000 0.08100  0.28790  0.45020  Biso   1.000  N
  N20      1.0000 0.73700  0.44840  0.20540  Biso   1.000  N
  N21      1.0000 0.14270  0.21030  0.49380  Biso   1.000  N
  N22      1.0000 0.81290  0.36030  0.16930  Biso   1.000  N
  N23      1.0000 0.62390  0.50880  0.29540  Biso   1.000  N
  N24      1.0000 0.08590  0.90680  0.56240  Biso   1.000  N
  O25      1.0000 0.35580  0.65130  0.39480  Biso   1.000  O
  O26      1.0000 0.42800  0.69580  0.34100  Biso   1.000  O
  O27      1.0000 0.03000  0.95940  0.09040  Biso   1.000  O
  O28      1.0000 0.90710  0.61700  0.24030  Biso   1.000  O
  O29      1.0000 0.65080  0.59530  0.18210  Biso   1.000  O
  O30      1.0000 0.60890  0.63730  0.23740  Biso   1.000  O
  O31      1.0000 0.87730  0.54810  0.28570  Biso   1.000  O
  O32      1.0000 0.09500  0.90910  0.03970  Biso   1.000  O
  O33      1.0000 0.01400  0.19910  0.92160  Biso   1.000  O
  O34      1.0000 0.94600  0.24850  0.97300  Biso   1.000  O
  C210     1.0000 0.21610  0.76510  0.13050  Biso   1.000  C
  O35      1.0000 0.20370  0.78140  0.09590  Biso   1.000  O
  O36      1.0000 0.12730  0.77680  0.14820  Biso   1.000  O
  C211     1.0000 0.44020  0.03780  0.55830  Biso   1.000  C
  C212     1.0000 0.41420  0.96540  0.02370  Biso   1.000  C
  C213     1.0000 0.50170  0.88590  0.97440  Biso   1.000  C
  H145     1.0000 0.55620  0.91930  0.96870  Biso   1.000  H
  C214     1.0000 0.29950  0.57130  0.80030  Biso   1.000  C
  H146     1.0000 0.28510  0.52810  0.78990  Biso   1.000  H
  C215     1.0000 0.36340  0.04370  0.07780  Biso   1.000  C
  H147     1.0000 0.32880  0.04970  0.10320  Biso   1.000  H
  C216     1.0000 0.46480  0.38570  0.79230  Biso   1.000  C
  C217     1.0000 0.34200  0.69270  0.83060  Biso   1.000  C
  H148     1.0000 0.35010  0.73600  0.84170  Biso   1.000  H
  C218     1.0000 0.56540  0.40870  0.76970  Biso   1.000  C
  C219     1.0000 0.92130  0.35930  0.70090  Biso   1.000  C
  C220     1.0000 0.67300  0.59410  0.70040  Biso   1.000  C
  C221     1.0000 0.42810  0.77490  0.96350  Biso   1.000  C
  C222     1.0000 0.35230  0.84980  0.01170  Biso   1.000  C
  H149     1.0000 0.29660  0.85610  0.03180  Biso   1.000  H
  C223     1.0000 0.44430  0.40430  0.83630  Biso   1.000  C
  H150     1.0000 0.49760  0.43060  0.85040  Biso   1.000  H
  C224     1.0000 0.97350  0.64970  0.71930  Biso   1.000  C
  H151     1.0000 0.92240  0.68480  0.71360  Biso   1.000  H
  C225     1.0000 0.37930  0.58080  0.83220  Biso   1.000  C
  H152     1.0000 0.41590  0.54330  0.84370  Biso   1.000  H
  C226     1.0000 0.85520  0.57390  0.67530  Biso   1.000  C
  H153     1.0000 0.87440  0.53530  0.65770  Biso   1.000  H
  C227     1.0000 0.24390  0.62670  0.78500  Biso   1.000  C
  C228     1.0000 0.51240  0.82430  0.95200  Biso   1.000  C
  H154     1.0000 0.56800  0.81700  0.93200  Biso   1.000  H
  C229     1.0000 0.14880  0.61410  0.75070  Biso   1.000  C
  C230     1.0000 0.25970  0.35020  0.83620  Biso   1.000  C
  C231     1.0000 0.97280  0.46180  0.80740  Biso   1.000  C
  H155     1.0000 0.99540  0.42090  0.79560  Biso   1.000  H
  C232     1.0000 0.19090  0.26500  0.64720  Biso   1.000  C
  C233     1.0000 0.10430  0.29000  0.62200  Biso   1.000  C
  H156     1.0000 0.10940  0.28440  0.59380  Biso   1.000  H
  C234     1.0000 0.01020  0.32320  0.63890  Biso   1.000  C
  H157     1.0000 0.95220  0.33990  0.62210  Biso   1.000  H
  C235     1.0000 0.00270  0.33150  0.68110  Biso   1.000  C
  C236     1.0000 0.08930  0.30660  0.70630  Biso   1.000  C
  H158     1.0000 0.08430  0.31210  0.73450  Biso   1.000  H
  C237     1.0000 0.18340  0.27330  0.68930  Biso   1.000  C
  H159     1.0000 0.24140  0.25670  0.70620  Biso   1.000  H
  C238     1.0000 0.14020  0.55550  0.73110  Biso   1.000  C
  H160     1.0000 0.19690  0.52280  0.73520  Biso   1.000  H
  C239     1.0000 0.42130  0.90220  0.00310  Biso   1.000  C
  C240     1.0000 0.26360  0.68570  0.79840  Biso   1.000  C
  H161     1.0000 0.22720  0.72340  0.78710  Biso   1.000  H
  C241     1.0000 0.27610  0.72620  0.00150  Biso   1.000  C
  H162     1.0000 0.27970  0.71030  0.02960  Biso   1.000  H
  H163     1.0000 0.19690  0.73530  0.99400  Biso   1.000  H
  C242     1.0000 0.34550  0.38190  0.85570  Biso   1.000  C
  H164     1.0000 0.33830  0.38930  0.88370  Biso   1.000  H
  C243     1.0000 0.03880  0.49060  0.83640  Biso   1.000  C
  H165     1.0000 0.10360  0.46690  0.84500  Biso   1.000  H
  C244     1.0000 0.30240  0.77490  0.60070  Biso   1.000  C
  H166     1.0000 0.29940  0.78480  0.57290  Biso   1.000  H
  C245     1.0000 0.39920  0.74360  0.61710  Biso   1.000  C
  H167     1.0000 0.46100  0.73260  0.60030  Biso   1.000  H
  C246     1.0000 0.40370  0.72880  0.65870  Biso   1.000  C
  C247     1.0000 0.31140  0.74520  0.68380  Biso   1.000  C
  H168     1.0000 0.31430  0.73520  0.71160  Biso   1.000  H
  C248     1.0000 0.21450  0.77640  0.66740  Biso   1.000  C
  H169     1.0000 0.15280  0.78740  0.68430  Biso   1.000  H
  N25      1.0000 0.21010  0.79130  0.62590  Biso   1.000  N
  C249     1.0000 0.27320  0.33100  0.79880  Biso   1.000  C
  H170     1.0000 0.21830  0.30300  0.78670  Biso   1.000  H
  C250     1.0000 0.04610  0.53990  0.70330  Biso   1.000  C
  H171     1.0000 0.04200  0.49950  0.68850  Biso   1.000  H
  C251     1.0000 0.50100  0.80000  0.45720  Biso   1.000  C
  C252     1.0000 0.46600  0.02820  0.00240  Biso   1.000  C
  H172     1.0000 0.49250  0.02740  0.97560  Biso   1.000  H
  C253     1.0000 0.56660  0.59430  0.72280  Biso   1.000  C
  H173     1.0000 0.55410  0.56790  0.74600  Biso   1.000  H
  C254     1.0000 0.35510  0.98070  0.05980  Biso   1.000  C
  H174     1.0000 0.30930  0.94760  0.07200  Biso   1.000  H
  C255     1.0000 0.37910  0.35350  0.77380  Biso   1.000  C
  H175     1.0000 0.38290  0.34460  0.74580  Biso   1.000  H
  C256     1.0000 0.49740  0.68260  0.67390  Biso   1.000  C
  C257     1.0000 0.96010  0.59180  0.70060  Biso   1.000  C
  C258     1.0000 0.48610  0.63680  0.70690  Biso   1.000  C
  H176     1.0000 0.41420  0.63550  0.71940  Biso   1.000  H
  C259     1.0000 0.47570  0.85820  0.48610  Biso   1.000  C
  C260     1.0000 0.41210  0.91190  0.47020  Biso   1.000  C
  H177     1.0000 0.37850  0.90810  0.44450  Biso   1.000  H
  C261     1.0000 0.39860  0.97130  0.49270  Biso   1.000  C
  H178     1.0000 0.35600  0.00720  0.48210  Biso   1.000  H
  C262     1.0000 0.44880  0.97700  0.53120  Biso   1.000  C
  C263     1.0000 0.51240  0.92330  0.54710  Biso   1.000  C
  H179     1.0000 0.54600  0.92710  0.57280  Biso   1.000  H
  C264     1.0000 0.52590  0.86390  0.52450  Biso   1.000  C
  H180     1.0000 0.56850  0.82800  0.53520  Biso   1.000  H
  C265     1.0000 0.14820  0.33280  0.85830  Biso   1.000  C
  C266     1.0000 0.46900  0.08550  0.02640  Biso   1.000  C
  H181     1.0000 0.51360  0.12180  0.01710  Biso   1.000  H
  C267     1.0000 0.09900  0.65250  0.88820  Biso   1.000  C
  H182     1.0000 0.05240  0.67890  0.87150  Biso   1.000  H
  C268     1.0000 0.09760  0.58200  0.88460  Biso   1.000  C
  C269     1.0000 0.16740  0.54250  0.90970  Biso   1.000  C
  H183     1.0000 0.16650  0.49540  0.90730  Biso   1.000  H
  C270     1.0000 0.23860  0.57350  0.93830  Biso   1.000  C
  H184     1.0000 0.28530  0.54700  0.95510  Biso   1.000  H
  C271     1.0000 0.24000  0.64390  0.94190  Biso   1.000  C
  C272     1.0000 0.17020  0.68340  0.91690  Biso   1.000  C
  H185     1.0000 0.17120  0.73050  0.91930  Biso   1.000  H
  C273     1.0000 0.80250  0.62770  0.65000  Biso   1.000  C
  H186     1.0000 0.79400  0.61270  0.62190  Biso   1.000  H
  H187     1.0000 0.84870  0.66870  0.65050  Biso   1.000  H
  C274     1.0000 0.33150  0.67970  0.97340  Biso   1.000  C
  H188     1.0000 0.36770  0.64360  0.98960  Biso   1.000  H
  C275     1.0000 0.60390  0.68660  0.65420  Biso   1.000  C
  H189     1.0000 0.61910  0.71710  0.63310  Biso   1.000  H
  C276     1.0000 0.06330  0.66140  0.74810  Biso   1.000  C
  H190     1.0000 0.06360  0.69990  0.76460  Biso   1.000  H
  C277     1.0000 0.01850  0.54900  0.85330  Biso   1.000  C
  C278     1.0000 0.92130  0.58050  0.84030  Biso   1.000  C
  H191     1.0000 0.90080  0.62230  0.85140  Biso   1.000  H
  C279     1.0000 0.85050  0.55030  0.80990  Biso   1.000  C
  H192     1.0000 0.78570  0.57310  0.80040  Biso   1.000  H
  Cd10     1.0000 0.47405  0.15810  0.59824  Biso   1.000  Cd
  Cd11     1.0000 0.53571  0.69357  0.40478  Biso   1.000  Cd
  Cd12     1.0000 0.76441  0.45335  0.74016  Biso   1.000  Cd
  N26      1.0000 0.40380  0.64430  0.84660  Biso   1.000  N
  N27      1.0000 0.41900  0.71210  0.95020  Biso   1.000  N
  N28      1.0000 0.76300  0.55160  0.70540  Biso   1.000  N
  N29      1.0000 0.35730  0.78970  0.99380  Biso   1.000  N
  N30      1.0000 0.68710  0.63970  0.66930  Biso   1.000  N
  N31      1.0000 0.87610  0.49120  0.79540  Biso   1.000  N
  N32      1.0000 0.41410  0.09320  0.06240  Biso   1.000  N
  O37      1.0000 0.14420  0.34870  0.89480  Biso   1.000  O
  O38      1.0000 0.07200  0.30420  0.84100  Biso   1.000  O
  O39      1.0000 0.47000  0.04060  0.59040  Biso   1.000  O
  O40      1.0000 0.59290  0.38300  0.74030  Biso   1.000  O
  O41      1.0000 0.84920  0.40470  0.68210  Biso   1.000  O
  O42      1.0000 0.89110  0.36270  0.73740  Biso   1.000  O
  O43      1.0000 0.62270  0.45190  0.78570  Biso   1.000  O
  O44      1.0000 0.40500  0.09090  0.53970  Biso   1.000  O
  O45      1.0000 0.48600  0.80090  0.42160  Biso   1.000  O
  O46      1.0000 0.55400  0.75150  0.47300  Biso   1.000  O
  C280     1.0000 0.28390  0.23490  0.63050  Biso   1.000  C
  O47      1.0000 0.29630  0.21860  0.59590  Biso   1.000  O
  O48      1.0000 0.37270  0.22320  0.64820  Biso   1.000  O
