data_image0
_cell_length_a       28.612
_cell_length_b       9.3899
_cell_length_c       9.2741
_cell_angle_alpha    90
_cell_angle_beta     92.657
_cell_angle_gamma    90

_symmetry_space_group_name_H-M    "P 1"
_symmetry_int_tables_number       1

loop_
  _symmetry_equiv_pos_as_xyz
  'x, y, z'

loop_
  _atom_site_label
  _atom_site_occupancy
  _atom_site_fract_x
  _atom_site_fract_y
  _atom_site_fract_z
  _atom_site_thermal_displace_type
  _atom_site_B_iso_or_equiv
  _atom_site_type_symbol
  Cu1      1.0000 0.30754  0.66933  0.12004  Biso   1.000  Cu
  C1       1.0000 0.38060  0.98830  0.89780  Biso   1.000  C
  H1       1.0000 0.37300  0.07740  0.85690  Biso   1.000  H
  C2       1.0000 0.34730  0.91110  0.96320  Biso   1.000  C
  H2       1.0000 0.31680  0.94850  0.96440  Biso   1.000  H
  C3       1.0000 0.43490  0.80400  0.95740  Biso   1.000  C
  H3       1.0000 0.46490  0.76350  0.95660  Biso   1.000  H
  N1       1.0000 0.35573  0.78450  0.02600  Biso   1.000  N
  C4       1.0000 0.42610  0.93510  0.89160  Biso   1.000  C
  C5       1.0000 0.39930  0.73350  0.02380  Biso   1.000  C
  H4       1.0000 0.40600  0.64600  0.06930  Biso   1.000  H
  C6       1.0000 0.46320  0.01970  0.81960  Biso   1.000  C
  H5       1.0000 0.47870  0.08210  0.89170  Biso   1.000  H
  H6       1.0000 0.44800  0.08070  0.74560  Biso   1.000  H
  H7       1.0000 0.48480  0.87000  0.67760  Biso   1.000  H
  N2       1.0000 0.27842  0.60610  0.92770  Biso   1.000  N
  N3       1.0000 0.24377  0.65510  0.84080  Biso   1.000  N
  N4       1.0000 0.24145  0.57950  0.72030  Biso   1.000  N
  C7       1.0000 0.29680  0.49810  0.85960  Biso   1.000  C
  N5       1.0000 0.27503  0.47990  0.73100  Biso   1.000  N
  C8       1.0000 0.33780  0.40540  0.90080  Biso   1.000  C
  O1       1.0000 0.34730  0.31840  0.80170  Biso   1.000  O
  O2       1.0000 0.35748  0.42030  0.02040  Biso   1.000  O
  Cu2      1.0000 0.80754  0.16933  0.12004  Biso   1.000  Cu
  C9       1.0000 0.88060  0.48830  0.89780  Biso   1.000  C
  H8       1.0000 0.87300  0.57740  0.85690  Biso   1.000  H
  C10      1.0000 0.84730  0.41110  0.96320  Biso   1.000  C
  H9       1.0000 0.81680  0.44850  0.96440  Biso   1.000  H
  C11      1.0000 0.93490  0.30400  0.95740  Biso   1.000  C
  H10      1.0000 0.96490  0.26350  0.95660  Biso   1.000  H
  N6       1.0000 0.85573  0.28450  0.02600  Biso   1.000  N
  C12      1.0000 0.92610  0.43510  0.89160  Biso   1.000  C
  C13      1.0000 0.89930  0.23350  0.02380  Biso   1.000  C
  H11      1.0000 0.90600  0.14600  0.06930  Biso   1.000  H
  C14      1.0000 0.96320  0.51970  0.81960  Biso   1.000  C
  H12      1.0000 0.97870  0.58210  0.89170  Biso   1.000  H
  H13      1.0000 0.94800  0.58070  0.74560  Biso   1.000  H
  H14      1.0000 0.98480  0.37000  0.67760  Biso   1.000  H
  N7       1.0000 0.77842  0.10610  0.92770  Biso   1.000  N
  N8       1.0000 0.74377  0.15510  0.84080  Biso   1.000  N
  N9       1.0000 0.74145  0.07950  0.72030  Biso   1.000  N
  C15      1.0000 0.79680  0.99810  0.85960  Biso   1.000  C
  N10      1.0000 0.77503  0.97990  0.73100  Biso   1.000  N
  C16      1.0000 0.83780  0.90540  0.90080  Biso   1.000  C
  O3       1.0000 0.84730  0.81840  0.80170  Biso   1.000  O
  O4       1.0000 0.85748  0.92030  0.02040  Biso   1.000  O
  Cu3      1.0000 0.69246  0.66933  0.37996  Biso   1.000  Cu
  C17      1.0000 0.61940  0.98830  0.60220  Biso   1.000  C
  H15      1.0000 0.62700  0.07740  0.64310  Biso   1.000  H
  C18      1.0000 0.65270  0.91110  0.53680  Biso   1.000  C
  H16      1.0000 0.68320  0.94850  0.53560  Biso   1.000  H
  C19      1.0000 0.56510  0.80400  0.54260  Biso   1.000  C
  H17      1.0000 0.53510  0.76350  0.54340  Biso   1.000  H
  N11      1.0000 0.64427  0.78450  0.47400  Biso   1.000  N
  C20      1.0000 0.57390  0.93510  0.60840  Biso   1.000  C
  C21      1.0000 0.60070  0.73350  0.47620  Biso   1.000  C
  H18      1.0000 0.59400  0.64600  0.43070  Biso   1.000  H
  C22      1.0000 0.53680  0.01970  0.68040  Biso   1.000  C
  H19      1.0000 0.52130  0.08210  0.60830  Biso   1.000  H
  H20      1.0000 0.55200  0.08070  0.75440  Biso   1.000  H
  H21      1.0000 0.51520  0.87000  0.82240  Biso   1.000  H
  N12      1.0000 0.72158  0.60610  0.57230  Biso   1.000  N
  N13      1.0000 0.75623  0.65510  0.65920  Biso   1.000  N
  N14      1.0000 0.75855  0.57950  0.77970  Biso   1.000  N
  C23      1.0000 0.70320  0.49810  0.64040  Biso   1.000  C
  N15      1.0000 0.72497  0.47990  0.76900  Biso   1.000  N
  C24      1.0000 0.66220  0.40540  0.59920  Biso   1.000  C
  O5       1.0000 0.65270  0.31840  0.69830  Biso   1.000  O
  O6       1.0000 0.64252  0.42030  0.47960  Biso   1.000  O
  Cu4      1.0000 0.19246  0.16933  0.37996  Biso   1.000  Cu
  C25      1.0000 0.11940  0.48830  0.60220  Biso   1.000  C
  H22      1.0000 0.12700  0.57740  0.64310  Biso   1.000  H
  C26      1.0000 0.15270  0.41110  0.53680  Biso   1.000  C
  H23      1.0000 0.18320  0.44850  0.53560  Biso   1.000  H
  C27      1.0000 0.06510  0.30400  0.54260  Biso   1.000  C
  H24      1.0000 0.03510  0.26350  0.54340  Biso   1.000  H
  N16      1.0000 0.14427  0.28450  0.47400  Biso   1.000  N
  C28      1.0000 0.07390  0.43510  0.60840  Biso   1.000  C
  C29      1.0000 0.10070  0.23350  0.47620  Biso   1.000  C
  H25      1.0000 0.09400  0.14600  0.43070  Biso   1.000  H
  C30      1.0000 0.03680  0.51970  0.68040  Biso   1.000  C
  H26      1.0000 0.02130  0.58210  0.60830  Biso   1.000  H
  H27      1.0000 0.05200  0.58070  0.75440  Biso   1.000  H
  H28      1.0000 0.01520  0.37000  0.82240  Biso   1.000  H
  N17      1.0000 0.22158  0.10610  0.57230  Biso   1.000  N
  N18      1.0000 0.25623  0.15510  0.65920  Biso   1.000  N
  N19      1.0000 0.25855  0.07950  0.77970  Biso   1.000  N
  C31      1.0000 0.20320  0.99810  0.64040  Biso   1.000  C
  N20      1.0000 0.22497  0.97990  0.76900  Biso   1.000  N
  C32      1.0000 0.16220  0.90540  0.59920  Biso   1.000  C
  O7       1.0000 0.15270  0.81840  0.69830  Biso   1.000  O
  O8       1.0000 0.14252  0.92030  0.47960  Biso   1.000  O
  Cu5      1.0000 0.69246  0.33067  0.87996  Biso   1.000  Cu
  C33      1.0000 0.61940  0.01170  0.10220  Biso   1.000  C
  H29      1.0000 0.62700  0.92260  0.14310  Biso   1.000  H
  C34      1.0000 0.65270  0.08890  0.03680  Biso   1.000  C
  H30      1.0000 0.68320  0.05150  0.03560  Biso   1.000  H
  C35      1.0000 0.56510  0.19600  0.04260  Biso   1.000  C
  H31      1.0000 0.53510  0.23650  0.04340  Biso   1.000  H
  N21      1.0000 0.64427  0.21550  0.97400  Biso   1.000  N
  C36      1.0000 0.57390  0.06490  0.10840  Biso   1.000  C
  C37      1.0000 0.60070  0.26650  0.97620  Biso   1.000  C
  H32      1.0000 0.59400  0.35400  0.93070  Biso   1.000  H
  C38      1.0000 0.53680  0.98030  0.18040  Biso   1.000  C
  H33      1.0000 0.52130  0.91790  0.10830  Biso   1.000  H
  H34      1.0000 0.55200  0.91930  0.25440  Biso   1.000  H
  H35      1.0000 0.51520  0.13000  0.32240  Biso   1.000  H
  N22      1.0000 0.72158  0.39390  0.07230  Biso   1.000  N
  N23      1.0000 0.75623  0.34490  0.15920  Biso   1.000  N
  N24      1.0000 0.75855  0.42050  0.27970  Biso   1.000  N
  C39      1.0000 0.70320  0.50190  0.14040  Biso   1.000  C
  N25      1.0000 0.72497  0.52010  0.26900  Biso   1.000  N
  C40      1.0000 0.66220  0.59460  0.09920  Biso   1.000  C
  O9       1.0000 0.65270  0.68160  0.19830  Biso   1.000  O
  O10      1.0000 0.64252  0.57970  0.97960  Biso   1.000  O
  Cu6      1.0000 0.19246  0.83067  0.87996  Biso   1.000  Cu
  C41      1.0000 0.11940  0.51170  0.10220  Biso   1.000  C
  H36      1.0000 0.12700  0.42260  0.14310  Biso   1.000  H
  C42      1.0000 0.15270  0.58890  0.03680  Biso   1.000  C
  H37      1.0000 0.18320  0.55150  0.03560  Biso   1.000  H
  C43      1.0000 0.06510  0.69600  0.04260  Biso   1.000  C
  H38      1.0000 0.03510  0.73650  0.04340  Biso   1.000  H
  N26      1.0000 0.14427  0.71550  0.97400  Biso   1.000  N
  C44      1.0000 0.07390  0.56490  0.10840  Biso   1.000  C
  C45      1.0000 0.10070  0.76650  0.97620  Biso   1.000  C
  H39      1.0000 0.09400  0.85400  0.93070  Biso   1.000  H
  C46      1.0000 0.03680  0.48030  0.18040  Biso   1.000  C
  H40      1.0000 0.02130  0.41790  0.10830  Biso   1.000  H
  H41      1.0000 0.05200  0.41930  0.25440  Biso   1.000  H
  H42      1.0000 0.01520  0.63000  0.32240  Biso   1.000  H
  N27      1.0000 0.22158  0.89390  0.07230  Biso   1.000  N
  N28      1.0000 0.25623  0.84490  0.15920  Biso   1.000  N
  N29      1.0000 0.25855  0.92050  0.27970  Biso   1.000  N
  C47      1.0000 0.20320  0.00190  0.14040  Biso   1.000  C
  N30      1.0000 0.22497  0.02010  0.26900  Biso   1.000  N
  C48      1.0000 0.16220  0.09460  0.09920  Biso   1.000  C
  O11      1.0000 0.15270  0.18160  0.19830  Biso   1.000  O
  O12      1.0000 0.14252  0.07970  0.97960  Biso   1.000  O
  Cu7      1.0000 0.30754  0.33067  0.62004  Biso   1.000  Cu
  C49      1.0000 0.38060  0.01170  0.39780  Biso   1.000  C
  H43      1.0000 0.37300  0.92260  0.35690  Biso   1.000  H
  C50      1.0000 0.34730  0.08890  0.46320  Biso   1.000  C
  H44      1.0000 0.31680  0.05150  0.46440  Biso   1.000  H
  C51      1.0000 0.43490  0.19600  0.45740  Biso   1.000  C
  H45      1.0000 0.46490  0.23650  0.45660  Biso   1.000  H
  N31      1.0000 0.35573  0.21550  0.52600  Biso   1.000  N
  C52      1.0000 0.42610  0.06490  0.39160  Biso   1.000  C
  C53      1.0000 0.39930  0.26650  0.52380  Biso   1.000  C
  H46      1.0000 0.40600  0.35400  0.56930  Biso   1.000  H
  C54      1.0000 0.46320  0.98030  0.31960  Biso   1.000  C
  H47      1.0000 0.47870  0.91790  0.39170  Biso   1.000  H
  H48      1.0000 0.44800  0.91930  0.24560  Biso   1.000  H
  H49      1.0000 0.48480  0.13000  0.17760  Biso   1.000  H
  N32      1.0000 0.27842  0.39390  0.42770  Biso   1.000  N
  N33      1.0000 0.24377  0.34490  0.34080  Biso   1.000  N
  N34      1.0000 0.24145  0.42050  0.22030  Biso   1.000  N
  C55      1.0000 0.29680  0.50190  0.35960  Biso   1.000  C
  N35      1.0000 0.27503  0.52010  0.23100  Biso   1.000  N
  C56      1.0000 0.33780  0.59460  0.40080  Biso   1.000  C
  O13      1.0000 0.34730  0.68160  0.30170  Biso   1.000  O
  O14      1.0000 0.35748  0.57970  0.52040  Biso   1.000  O
  Cu8      1.0000 0.80754  0.83067  0.62004  Biso   1.000  Cu
  C57      1.0000 0.88060  0.51170  0.39780  Biso   1.000  C
  H50      1.0000 0.87300  0.42260  0.35690  Biso   1.000  H
  C58      1.0000 0.84730  0.58890  0.46320  Biso   1.000  C
  H51      1.0000 0.81680  0.55150  0.46440  Biso   1.000  H
  C59      1.0000 0.93490  0.69600  0.45740  Biso   1.000  C
  H52      1.0000 0.96490  0.73650  0.45660  Biso   1.000  H
  N36      1.0000 0.85573  0.71550  0.52600  Biso   1.000  N
  C60      1.0000 0.92610  0.56490  0.39160  Biso   1.000  C
  C61      1.0000 0.89930  0.76650  0.52380  Biso   1.000  C
  H53      1.0000 0.90600  0.85400  0.56930  Biso   1.000  H
  C62      1.0000 0.96320  0.48030  0.31960  Biso   1.000  C
  H54      1.0000 0.97870  0.41790  0.39170  Biso   1.000  H
  H55      1.0000 0.94800  0.41930  0.24560  Biso   1.000  H
  H56      1.0000 0.98480  0.63000  0.17760  Biso   1.000  H
  N37      1.0000 0.77842  0.89390  0.42770  Biso   1.000  N
  N38      1.0000 0.74377  0.84490  0.34080  Biso   1.000  N
  N39      1.0000 0.74145  0.92050  0.22030  Biso   1.000  N
  C63      1.0000 0.79680  0.00190  0.35960  Biso   1.000  C
  N40      1.0000 0.77503  0.02010  0.23100  Biso   1.000  N
  C64      1.0000 0.83780  0.09460  0.40080  Biso   1.000  C
  O15      1.0000 0.84730  0.18160  0.30170  Biso   1.000  O
  O16      1.0000 0.85748  0.07970  0.52040  Biso   1.000  O
  C65      1.0000 0.50000  0.93090  0.75000  Biso   1.000  C
  C66      1.0000 0.00000  0.43090  0.75000  Biso   1.000  C
  C67      1.0000 0.50000  0.06910  0.25000  Biso   1.000  C
  C68      1.0000 0.00000  0.56910  0.25000  Biso   1.000  C
