data_image0
_cell_length_a       8.5974
_cell_length_b       10.6546
_cell_length_c       7.6815
_cell_angle_alpha    84.205
_cell_angle_beta     103.475
_cell_angle_gamma    84.9099

_symmetry_space_group_name_H-M    "P 1"
_symmetry_int_tables_number       1

loop_
  _symmetry_equiv_pos_as_xyz
  'x, y, z'

loop_
  _atom_site_label
  _atom_site_occupancy
  _atom_site_fract_x
  _atom_site_fract_y
  _atom_site_fract_z
  _atom_site_thermal_displace_type
  _atom_site_B_iso_or_equiv
  _atom_site_type_symbol
  O1       1.0000 0.10176  0.17366  0.17245  Biso   1.000  O
  O2       1.0000 0.63792  0.19367  0.10208  Biso   1.000  O
  O3       1.0000 0.88051  0.00085  0.13888  Biso   1.000  O
  O4       1.0000 0.85918  0.36648  0.13565  Biso   1.000  O
  O5       1.0000 0.91036  0.97707  0.43627  Biso   1.000  O
  O6       1.0000 0.66778  0.16988  0.39947  Biso   1.000  O
  O7       1.0000 0.13162  0.14987  0.46984  Biso   1.000  O
  Zn1      1.0000 0.90444  0.15610  0.48187  Biso   1.000  Zn
  Zn2      1.0000 0.86510  0.18744  0.09005  Biso   1.000  Zn
  O8       1.0000 0.88904  0.34269  0.43304  Biso   1.000  O
  C1       1.0000 0.59346  0.18095  0.24176  Biso   1.000  C
  C2       1.0000 0.41649  0.17849  0.21491  Biso   1.000  C
  C3       1.0000 0.89387  0.94217  0.28733  Biso   1.000  C
  C4       1.0000 0.88918  0.80276  0.28661  Biso   1.000  C
  C5       1.0000 0.87071  0.75023  0.12418  Biso   1.000  C
  C6       1.0000 0.86629  0.61924  0.12351  Biso   1.000  C
  C7       1.0000 0.89883  0.59332  0.44774  Biso   1.000  C
  C8       1.0000 0.90323  0.72431  0.44840  Biso   1.000  C
  C9       1.0000 0.85665  0.82868  0.96239  Biso   1.000  C
  C10      1.0000 0.83818  0.77615  0.79994  Biso   1.000  C
  C11      1.0000 0.83376  0.64516  0.79928  Biso   1.000  C
  C12      1.0000 0.84782  0.56670  0.96107  Biso   1.000  C
  C13      1.0000 0.17608  0.16259  0.33015  Biso   1.000  C
  C14      1.0000 0.35305  0.16506  0.35699  Biso   1.000  C
  C15      1.0000 0.87567  0.40137  0.28458  Biso   1.000  C
  C16      1.0000 0.88036  0.54078  0.28529  Biso   1.000  C
  N1       1.0000 0.93130  0.13471  0.74928  Biso   1.000  N
  N2       1.0000 0.83826  0.20882  0.82264  Biso   1.000  N
  H1       1.0000 0.86025  0.93534  0.96291  Biso   1.000  H
  H2       1.0000 0.43414  0.15545  0.49920  Biso   1.000  H
  H3       1.0000 0.02630  0.05907  0.83890  Biso   1.000  H
  H4       1.0000 0.33541  0.18808  0.07272  Biso   1.000  H
  C17      1.0000 0.82272  0.86246  0.62198  Biso   1.000  C
  N3       1.0000 0.81107  0.92746  0.48794  Biso   1.000  N
  H5       1.0000 0.91028  0.52943  0.57946  Biso   1.000  H
  H6       1.0000 0.81871  0.60240  0.66700  Biso   1.000  H
  H7       1.0000 0.84420  0.46004  0.96051  Biso   1.000  H
  H8       1.0000 0.91824  0.76709  0.58066  Biso   1.000  H
  H9       1.0000 0.74328  0.28446  0.73304  Biso   1.000  H
