data_image0
_cell_length_a       16.1093
_cell_length_b       14.5197
_cell_length_c       15.1862
_cell_angle_alpha    89.9953
_cell_angle_beta     89.9994
_cell_angle_gamma    83.5708

_symmetry_space_group_name_H-M    "P 1"
_symmetry_int_tables_number       1

loop_
  _symmetry_equiv_pos_as_xyz
  'x, y, z'

loop_
  _atom_site_label
  _atom_site_occupancy
  _atom_site_fract_x
  _atom_site_fract_y
  _atom_site_fract_z
  _atom_site_thermal_displace_type
  _atom_site_B_iso_or_equiv
  _atom_site_type_symbol
  O1       1.0000 0.10334  0.11854  0.92683  Biso   1.000  O
  O2       1.0000 0.86130  0.13329  0.92681  Biso   1.000  O
  O3       1.0000 0.98874  0.99166  0.92683  Biso   1.000  O
  O4       1.0000 0.97590  0.26017  0.92681  Biso   1.000  O
  O5       1.0000 0.98873  0.99166  0.07328  Biso   1.000  O
  O6       1.0000 0.86129  0.13329  0.07327  Biso   1.000  O
  O7       1.0000 0.10333  0.11854  0.07328  Biso   1.000  O
  Zn1      1.0000 0.98231  0.12591  0.09653  Biso   1.000  Zn
  Zn2      1.0000 0.98232  0.12592  0.90356  Biso   1.000  Zn
  O8       1.0000 0.97589  0.26017  0.07327  Biso   1.000  O
  C1       1.0000 0.83032  0.13269  0.00004  Biso   1.000  C
  C2       1.0000 0.73802  0.13090  0.00003  Biso   1.000  C
  C3       1.0000 0.98813  0.95730  0.00006  Biso   1.000  C
  C4       1.0000 0.98634  0.85493  0.00006  Biso   1.000  C
  C5       1.0000 0.51589  0.21077  0.00004  Biso   1.000  C
  C6       1.0000 0.42916  0.20908  0.00004  Biso   1.000  C
  C7       1.0000 0.44875  0.04105  0.00005  Biso   1.000  C
  C8       1.0000 0.53547  0.04274  0.00005  Biso   1.000  C
  C9       1.0000 0.56904  0.12761  0.00004  Biso   1.000  C
  C10      1.0000 0.39559  0.12422  0.00005  Biso   1.000  C
  C11      1.0000 0.30156  0.12239  0.00005  Biso   1.000  C
  C12      1.0000 0.66307  0.12944  0.00004  Biso   1.000  C
  C13      1.0000 0.97974  0.48005  0.00003  Biso   1.000  C
  C14      1.0000 0.98157  0.58435  0.00004  Biso   1.000  C
  C15      1.0000 0.98304  0.66748  0.00004  Biso   1.000  C
  C16      1.0000 0.98487  0.77179  0.00005  Biso   1.000  C
  C17      1.0000 0.13431  0.11914  0.00005  Biso   1.000  C
  C18      1.0000 0.22661  0.12093  0.00005  Biso   1.000  C
  C19      1.0000 0.97649  0.29453  0.00004  Biso   1.000  C
  C20      1.0000 0.97829  0.39690  0.00003  Biso   1.000  C
  N1       1.0000 0.98231  0.12591  0.22822  Biso   1.000  N
  N2       1.0000 0.98233  0.12591  0.77187  Biso   1.000  N
  C21      1.0000 0.03875  0.06322  0.45395  Biso   1.000  C
  C22      1.0000 0.03876  0.06322  0.54614  Biso   1.000  C
  C23      1.0000 0.92587  0.18861  0.54614  Biso   1.000  C
  C24      1.0000 0.92587  0.18860  0.45395  Biso   1.000  C
  C25      1.0000 0.98231  0.12591  0.40786  Biso   1.000  C
  C26      1.0000 0.98232  0.12591  0.59224  Biso   1.000  C
  C27      1.0000 0.98232  0.12591  0.69219  Biso   1.000  C
  C28      1.0000 0.98231  0.12591  0.30790  Biso   1.000  C
  H1       1.0000 0.54321  0.27988  0.00004  Biso   1.000  H
  H2       1.0000 0.38589  0.27681  0.00004  Biso   1.000  H
  O9       1.0000 0.09361  0.00223  0.40932  Biso   1.000  O
  C29      1.0000 0.20560  0.87789  0.41905  Biso   1.000  C
  C30      1.0000 0.14351  0.94690  0.46971  Biso   1.000  C
  H3       1.0000 0.24598  0.83316  0.46786  Biso   1.000  H
  H4       1.0000 0.16968  0.83174  0.37593  Biso   1.000  H
  H5       1.0000 0.24715  0.91774  0.37586  Biso   1.000  H
  H6       1.0000 0.10194  0.90714  0.51295  Biso   1.000  H
  H7       1.0000 0.17949  0.99305  0.51278  Biso   1.000  H
  H8       1.0000 0.42141  0.97195  0.00006  Biso   1.000  H
  H9       1.0000 0.57875  0.97501  0.00005  Biso   1.000  H
  H10      1.0000 0.08472  0.01217  0.58367  Biso   1.000  H
  H11      1.0000 0.87992  0.23965  0.58367  Biso   1.000  H
  O10      1.0000 0.87101  0.24960  0.40930  Biso   1.000  O
  C31      1.0000 0.75901  0.37393  0.41902  Biso   1.000  C
  C32      1.0000 0.82110  0.30493  0.46969  Biso   1.000  C
  H12      1.0000 0.71863  0.41867  0.46782  Biso   1.000  H
  H13      1.0000 0.79492  0.42007  0.37587  Biso   1.000  H
  H14      1.0000 0.71745  0.33407  0.37585  Biso   1.000  H
  H15      1.0000 0.86267  0.34470  0.51291  Biso   1.000  H
  H16      1.0000 0.78514  0.25878  0.51278  Biso   1.000  H
