data_image0
_cell_length_a       21.2954
_cell_length_b       21.2954
_cell_length_c       16.9594
_cell_angle_alpha    90.0292
_cell_angle_beta     89.9814
_cell_angle_gamma    89.9549

_symmetry_space_group_name_H-M    "P 1"
_symmetry_int_tables_number       1

loop_
  _symmetry_equiv_pos_as_xyz
  'x, y, z'

loop_
  _atom_site_label
  _atom_site_occupancy
  _atom_site_fract_x
  _atom_site_fract_y
  _atom_site_fract_z
  _atom_site_thermal_displace_type
  _atom_site_B_iso_or_equiv
  _atom_site_type_symbol
  Zn1      1.0000 0.96232  0.25037  0.55308  Biso   1.000  Zn
  Zn2      1.0000 0.96223  0.35564  0.68527  Biso   1.000  Zn
  Zn3      1.0000 0.85705  0.25042  0.68525  Biso   1.000  Zn
  Zn4      1.0000 0.85701  0.35563  0.55313  Biso   1.000  Zn
  O1       1.0000 0.90966  0.30302  0.61918  Biso   1.000  O
  O2       1.0000 0.05040  0.26432  0.57060  Biso   1.000  O
  O3       1.0000 0.94826  0.34171  0.79587  Biso   1.000  O
  O4       1.0000 0.87107  0.16232  0.66769  Biso   1.000  O
  O5       1.0000 0.05033  0.34166  0.66772  Biso   1.000  O
  O6       1.0000 0.94841  0.16229  0.57059  Biso   1.000  O
  O7       1.0000 0.87099  0.26440  0.79586  Biso   1.000  O
  O8       1.0000 0.76896  0.26439  0.66773  Biso   1.000  O
  O9       1.0000 0.87100  0.34165  0.44251  Biso   1.000  O
  O10      1.0000 0.76893  0.34169  0.57067  Biso   1.000  O
  O11      1.0000 0.94837  0.26431  0.44248  Biso   1.000  O
  O12      1.0000 0.94822  0.44373  0.66776  Biso   1.000  O
  O13      1.0000 0.87092  0.44372  0.57069  Biso   1.000  O
  C1       1.0000 0.74610  0.30305  0.61920  Biso   1.000  C
  C2       1.0000 0.67614  0.30307  0.61919  Biso   1.000  C
  C3       1.0000 0.64332  0.26287  0.56855  Biso   1.000  C
  C4       1.0000 0.57758  0.26285  0.56854  Biso   1.000  C
  C5       1.0000 0.54465  0.30305  0.61918  Biso   1.000  C
  C6       1.0000 0.57747  0.34326  0.66983  Biso   1.000  C
  C7       1.0000 0.64321  0.34327  0.66984  Biso   1.000  C
  N1       1.0000 0.44138  0.35813  0.62535  Biso   1.000  N
  N2       1.0000 0.37893  0.35812  0.62534  Biso   1.000  N
  C8       1.0000 0.34658  0.30302  0.61916  Biso   1.000  C
  N3       1.0000 0.37904  0.24793  0.61298  Biso   1.000  N
  N4       1.0000 0.44150  0.24795  0.61298  Biso   1.000  N
  C9       1.0000 0.47337  0.30304  0.61918  Biso   1.000  C
  C10      1.0000 0.24248  0.26279  0.56851  Biso   1.000  C
  C11      1.0000 0.17674  0.26277  0.56851  Biso   1.000  C
  C12      1.0000 0.17663  0.34319  0.66980  Biso   1.000  C
  C13      1.0000 0.24237  0.34320  0.66980  Biso   1.000  C
  C14      1.0000 0.27529  0.30300  0.61915  Biso   1.000  C
  C15      1.0000 0.90957  0.46657  0.61922  Biso   1.000  C
  C16      1.0000 0.90960  0.53653  0.61920  Biso   1.000  C
  C17      1.0000 0.94988  0.56938  0.66970  Biso   1.000  C
  C18      1.0000 0.94991  0.63513  0.66968  Biso   1.000  C
  C19      1.0000 0.90964  0.66802  0.61917  Biso   1.000  C
  C20      1.0000 0.86935  0.63516  0.56866  Biso   1.000  C
  C21      1.0000 0.86933  0.56942  0.56868  Biso   1.000  C
  N5       1.0000 0.85458  0.77130  0.61314  Biso   1.000  N
  N6       1.0000 0.85460  0.83375  0.61313  Biso   1.000  N
  C22      1.0000 0.90971  0.86609  0.61911  Biso   1.000  C
  N7       1.0000 0.96480  0.83362  0.62512  Biso   1.000  N
  N8       1.0000 0.96478  0.77117  0.62514  Biso   1.000  N
  C23      1.0000 0.90967  0.73930  0.61914  Biso   1.000  C
  C24      1.0000 0.95004  0.97023  0.66959  Biso   1.000  C
  C25      1.0000 0.95007  0.03597  0.66956  Biso   1.000  C
  C26      1.0000 0.86950  0.03600  0.56855  Biso   1.000  C
  C27      1.0000 0.86948  0.97026  0.56857  Biso   1.000  C
  C28      1.0000 0.90974  0.93738  0.61910  Biso   1.000  C
  C29      1.0000 0.07385  0.30299  0.61916  Biso   1.000  C
  C30      1.0000 0.14381  0.30297  0.61915  Biso   1.000  C
  C31      1.0000 0.90969  0.30297  0.41301  Biso   1.000  C
  C32      1.0000 0.90971  0.30296  0.32515  Biso   1.000  C
  C33      1.0000 0.90976  0.13882  0.61911  Biso   1.000  C
  C34      1.0000 0.90980  0.06886  0.61905  Biso   1.000  C
  C35      1.0000 0.86943  0.34321  0.28390  Biso   1.000  C
  C36      1.0000 0.94999  0.26268  0.28386  Biso   1.000  C
  C37      1.0000 0.95000  0.26266  0.20131  Biso   1.000  C
  C38      1.0000 0.90973  0.30291  0.16006  Biso   1.000  C
  C39      1.0000 0.86944  0.34319  0.20134  Biso   1.000  C
  C40      1.0000 0.99029  0.22237  0.16002  Biso   1.000  C
  C41      1.0000 0.99030  0.22235  0.07747  Biso   1.000  C
  C42      1.0000 0.95003  0.26261  0.03621  Biso   1.000  C
  C43      1.0000 0.90974  0.30289  0.07750  Biso   1.000  C
  C44      1.0000 0.86947  0.34315  0.03624  Biso   1.000  C
  C45      1.0000 0.82918  0.38344  0.07754  Biso   1.000  C
  C46      1.0000 0.82917  0.38345  0.16009  Biso   1.000  C
  C47      1.0000 0.95004  0.26259  0.95366  Biso   1.000  C
  C48      1.0000 0.86948  0.34313  0.95369  Biso   1.000  C
  C49      1.0000 0.90966  0.30301  0.82455  Biso   1.000  C
  C50      1.0000 0.90976  0.30285  0.91240  Biso   1.000  C
  H1       1.0000 0.26929  0.23006  0.52727  Biso   1.000  H
  O14      1.0000 0.99353  0.07140  0.72403  Biso   1.000  O
  H2       1.0000 0.02556  0.10128  0.68861  Biso   1.000  H
  H3       1.0000 0.98267  0.54261  0.71084  Biso   1.000  H
  O15      1.0000 0.99348  0.21915  0.90912  Biso   1.000  O
  H4       1.0000 0.02149  0.19117  0.95168  Biso   1.000  H
  O16      1.0000 0.03375  0.17891  0.03293  Biso   1.000  O
  H5       1.0000 0.08315  0.18970  0.04876  Biso   1.000  H
  O17      1.0000 0.67883  0.21950  0.51394  Biso   1.000  O
  H6       1.0000 0.64497  0.19154  0.47873  Biso   1.000  H
  H7       1.0000 0.55066  0.37599  0.71106  Biso   1.000  H
  H8       1.0000 0.15002  0.23003  0.52727  Biso   1.000  H
  H9       1.0000 0.66993  0.37601  0.71108  Biso   1.000  H
  H10      1.0000 0.14982  0.37592  0.71103  Biso   1.000  H
  H11      1.0000 0.83667  0.94351  0.52746  Biso   1.000  H
  H12      1.0000 0.26909  0.37594  0.71104  Biso   1.000  H
  H13      1.0000 0.98278  0.22990  0.31745  Biso   1.000  H
  H14      1.0000 0.98272  0.66188  0.71080  Biso   1.000  H
  O18      1.0000 0.82606  0.07147  0.51407  Biso   1.000  O
  H15      1.0000 0.83284  0.12270  0.52255  Biso   1.000  H
  O19      1.0000 0.99348  0.93475  0.72405  Biso   1.000  O
  H16      1.0000 0.96533  0.90485  0.76432  Biso   1.000  H
  H17      1.0000 0.83657  0.66195  0.52754  Biso   1.000  H
  O20      1.0000 0.82603  0.38655  0.90919  Biso   1.000  O
  H18      1.0000 0.79802  0.41456  0.95178  Biso   1.000  H
  H19      1.0000 0.79638  0.41621  0.04393  Biso   1.000  H
  O21      1.0000 0.82586  0.53399  0.51423  Biso   1.000  O
  H20      1.0000 0.83662  0.54656  0.45217  Biso   1.000  H
  O22      1.0000 0.54218  0.21949  0.51391  Biso   1.000  O
  H21      1.0000 0.57612  0.19154  0.47869  Biso   1.000  H
  H22      1.0000 0.79637  0.41625  0.19371  Biso   1.000  H
  O23      1.0000 0.82598  0.38666  0.32843  Biso   1.000  O
  H23      1.0000 0.83273  0.37991  0.39276  Biso   1.000  H
  H24      1.0000 0.02307  0.18960  0.19361  Biso   1.000  H
