data_image0
_cell_length_a       33.5106
_cell_length_b       33.5097
_cell_length_c       33.5065
_cell_angle_alpha    60.0042
_cell_angle_beta     60.0084
_cell_angle_gamma    59.9948

_symmetry_space_group_name_H-M    "P 1"
_symmetry_int_tables_number       1

loop_
  _symmetry_equiv_pos_as_xyz
  'x, y, z'

loop_
  _atom_site_label
  _atom_site_occupancy
  _atom_site_fract_x
  _atom_site_fract_y
  _atom_site_fract_z
  _atom_site_thermal_displace_type
  _atom_site_B_iso_or_equiv
  _atom_site_type_symbol
  O1       1.0000 0.05543  0.41692  0.48752  Biso   1.000  O
  O2       1.0000 0.02093  0.54602  0.39282  Biso   1.000  O
  O3       1.0000 0.10269  0.46435  0.39273  Biso   1.000  O
  O4       1.0000 0.97367  0.49860  0.48761  Biso   1.000  O
  O5       1.0000 0.12982  0.49147  0.41977  Biso   1.000  O
  O6       1.0000 0.04806  0.57315  0.41986  Biso   1.000  O
  O7       1.0000 0.08256  0.44404  0.51456  Biso   1.000  O
  Cu1      1.0000 0.06779  0.51107  0.46968  Biso   1.000  Cu
  Cu2      1.0000 0.03570  0.47899  0.43770  Biso   1.000  Cu
  O8       1.0000 0.00080  0.52572  0.51465  Biso   1.000  O
  N1       1.0000 0.09036  0.53363  0.49217  Biso   1.000  N
  N2       1.0000 0.01314  0.45643  0.41521  Biso   1.000  N
  C1       1.0000 0.14303  0.72029  0.54474  Biso   1.000  C
  C2       1.0000 0.14317  0.58625  0.67871  Biso   1.000  C
  C3       1.0000 0.14304  0.58628  0.54474  Biso   1.000  C
  C4       1.0000 0.27709  0.58631  0.54464  Biso   1.000  C
  C5       1.0000 0.15779  0.67607  0.55946  Biso   1.000  C
  C6       1.0000 0.15787  0.60101  0.63449  Biso   1.000  C
  C7       1.0000 0.23287  0.60104  0.55941  Biso   1.000  C
  C8       1.0000 0.15780  0.60102  0.55946  Biso   1.000  C
  C9       1.0000 0.12424  0.77658  0.52599  Biso   1.000  C
  C10      1.0000 0.12426  0.56751  0.52600  Biso   1.000  C
  C11      1.0000 0.17658  0.61978  0.57821  Biso   1.000  C
  C12      1.0000 0.35894  0.60043  0.50151  Biso   1.000  C
  C13      1.0000 0.41010  0.58339  0.48442  Biso   1.000  C
  C14      1.0000 0.41014  0.50060  0.51600  Biso   1.000  C
  C15      1.0000 0.35897  0.51764  0.53308  Biso   1.000  C
  C16      1.0000 0.13655  0.80218  0.47569  Biso   1.000  C
  C17      1.0000 0.11947  0.85335  0.45866  Biso   1.000  C
  C18      1.0000 0.07776  0.85332  0.54222  Biso   1.000  C
  C19      1.0000 0.09484  0.80215  0.55926  Biso   1.000  C
  C20      1.0000 0.07395  0.57986  0.53840  Biso   1.000  C
  C21      1.0000 0.05688  0.56280  0.52135  Biso   1.000  C
  C22      1.0000 0.14043  0.52105  0.47952  Biso   1.000  C
  C23      1.0000 0.15750  0.53811  0.49656  Biso   1.000  C
  C24      1.0000 0.07416  0.57982  0.76062  Biso   1.000  C
  C25      1.0000 0.05715  0.56274  0.81179  Biso   1.000  C
  C26      1.0000 0.14073  0.52099  0.81172  Biso   1.000  C
  C27      1.0000 0.15774  0.53806  0.76055  Biso   1.000  C
  C28      1.0000 0.12445  0.56748  0.73500  Biso   1.000  C
  C29      1.0000 0.33337  0.56756  0.52584  Biso   1.000  C
  C30      1.0000 0.97939  0.42235  0.17030  Biso   1.000  C
  C31      1.0000 0.97906  0.21190  0.38090  Biso   1.000  C
  C32      1.0000 0.97909  0.42236  0.38099  Biso   1.000  C
  C33      1.0000 0.76866  0.42258  0.38059  Biso   1.000  C
  C34      1.0000 0.87027  0.38862  0.34687  Biso   1.000  C
  C35      1.0000 0.94528  0.38854  0.34702  Biso   1.000  C
  C36      1.0000 0.92655  0.36980  0.32819  Biso   1.000  C
  C37      1.0000 0.91238  0.28797  0.37124  Biso   1.000  C
  C38      1.0000 0.92940  0.23680  0.38832  Biso   1.000  C
  C39      1.0000 0.01219  0.23672  0.35687  Biso   1.000  C
  C40      1.0000 0.99517  0.28789  0.33980  Biso   1.000  C
  C41      1.0000 0.84462  0.37629  0.39716  Biso   1.000  C
  C42      1.0000 0.79345  0.39340  0.41413  Biso   1.000  C
  C43      1.0000 0.79358  0.43516  0.33053  Biso   1.000  C
  C44      1.0000 0.84475  0.41805  0.31355  Biso   1.000  C
  C45      1.0000 0.93295  0.43884  0.33464  Biso   1.000  C
  C46      1.0000 0.94997  0.45587  0.35176  Biso   1.000  C
  C47      1.0000 0.99166  0.37230  0.39361  Biso   1.000  C
  C48      1.0000 0.97463  0.35526  0.37650  Biso   1.000  C
  C49      1.0000 0.93308  0.43883  0.24630  Biso   1.000  C
  C50      1.0000 0.95021  0.45586  0.19513  Biso   1.000  C
  C51      1.0000 0.99195  0.37228  0.19518  Biso   1.000  C
  C52      1.0000 0.97483  0.35525  0.24635  Biso   1.000  C
  C53      1.0000 0.94539  0.38853  0.27191  Biso   1.000  C
  C54      1.0000 0.94527  0.31351  0.34698  Biso   1.000  C
  C55      1.0000 0.99788  0.44174  0.11403  Biso   1.000  C
  C56      1.0000 0.99712  0.15562  0.39994  Biso   1.000  C
  C57      1.0000 0.99750  0.44176  0.39947  Biso   1.000  C
  C58      1.0000 0.71238  0.44172  0.39860  Biso   1.000  C
  N3       1.0000 0.43497  0.53372  0.49190  Biso   1.000  N
  O9       1.0000 0.59120  0.52925  0.37515  Biso   1.000  O
  O10      1.0000 0.59140  0.43423  0.50412  Biso   1.000  O
  O11      1.0000 0.59131  0.43445  0.42233  Biso   1.000  O
  O12      1.0000 0.59128  0.52903  0.45694  Biso   1.000  O
  O13      1.0000 0.51002  0.46148  0.44951  Biso   1.000  O
  O14      1.0000 0.51011  0.46126  0.53130  Biso   1.000  O
  O15      1.0000 0.50991  0.55628  0.40233  Biso   1.000  O
  Cu3      1.0000 0.50259  0.51124  0.46930  Biso   1.000  Cu
  Cu4      1.0000 0.59872  0.47927  0.43715  Biso   1.000  Cu
  O16      1.0000 0.51000  0.55606  0.48412  Biso   1.000  O
  N4       1.0000 0.66633  0.45679  0.41454  Biso   1.000  N
  N5       1.0000 0.09032  0.87819  0.49216  Biso   1.000  N
  O17      1.0000 0.97366  0.03450  0.48758  Biso   1.000  O
  O18      1.0000 0.10263  0.03454  0.39254  Biso   1.000  O
  O19      1.0000 0.02080  0.03451  0.39281  Biso   1.000  O
  O20      1.0000 0.05549  0.03454  0.48731  Biso   1.000  O
  O21      1.0000 0.04793  0.95321  0.41990  Biso   1.000  O
  O22      1.0000 0.12976  0.95325  0.41963  Biso   1.000  O
  O23      1.0000 0.00079  0.95321  0.51467  Biso   1.000  O
  Cu5      1.0000 0.06776  0.94581  0.46962  Biso   1.000  Cu
  Cu6      1.0000 0.03566  0.04195  0.43759  Biso   1.000  Cu
  O24      1.0000 0.08262  0.95325  0.51440  Biso   1.000  O
  N6       1.0000 0.01309  0.10956  0.41505  Biso   1.000  N
  N7       1.0000 0.09067  0.53358  0.83661  Biso   1.000  N
  O25      1.0000 0.08612  0.41694  0.99291  Biso   1.000  O
  O26      1.0000 0.99112  0.54595  0.99295  Biso   1.000  O
  O27      1.0000 0.99134  0.46414  0.99293  Biso   1.000  O
  O28      1.0000 0.08590  0.49875  0.99293  Biso   1.000  O
  O29      1.0000 0.01841  0.49125  0.91164  Biso   1.000  O
  O30      1.0000 0.01819  0.57306  0.91167  Biso   1.000  O
  O31      1.0000 0.11319  0.44405  0.91162  Biso   1.000  O
  Cu7      1.0000 0.06816  0.51103  0.90422  Biso   1.000  Cu
  Cu8      1.0000 0.03615  0.47897  0.00035  Biso   1.000  Cu
  O32      1.0000 0.11296  0.52586  0.91164  Biso   1.000  O
  N8       1.0000 0.01363  0.45641  0.06797  Biso   1.000  N
  C59      1.0000 0.03126  0.57586  0.39329  Biso   1.000  C
  C60      1.0000 0.13251  0.47471  0.39318  Biso   1.000  C
  C61      1.0000 0.07223  0.41421  0.51409  Biso   1.000  C
  C62      1.0000 0.97098  0.51536  0.51420  Biso   1.000  C
  C63      1.0000 0.55078  0.43466  0.53395  Biso   1.000  C
  C64      1.0000 0.55067  0.43493  0.43267  Biso   1.000  C
  C65      1.0000 0.55053  0.55585  0.37249  Biso   1.000  C
  C66      1.0000 0.55064  0.55558  0.47378  Biso   1.000  C
  C67      1.0000 0.13241  0.99400  0.39296  Biso   1.000  C
  C68      1.0000 0.03111  0.99386  0.39333  Biso   1.000  C
  C69      1.0000 0.97098  0.99385  0.51421  Biso   1.000  C
  C70      1.0000 0.07231  0.99390  0.51388  Biso   1.000  C
  C71      1.0000 0.99157  0.57576  0.95232  Biso   1.000  C
  C72      1.0000 0.99185  0.47445  0.95227  Biso   1.000  C
  C73      1.0000 0.11273  0.41424  0.95226  Biso   1.000  C
  C74      1.0000 0.11246  0.51556  0.95229  Biso   1.000  C
  H1       1.0000 0.04705  0.60377  0.73982  Biso   1.000  H
  O33      1.0000 0.85856  0.31561  0.37899  Biso   1.000  O
  H2       1.0000 0.84625  0.30580  0.36087  Biso   1.000  H
  H3       1.0000 0.55063  0.58529  0.48118  Biso   1.000  H
  O34      1.0000 0.02150  0.62498  0.35389  Biso   1.000  O
  H4       1.0000 0.02577  0.62000  0.32145  Biso   1.000  H
  H5       1.0000 0.16937  0.99424  0.36305  Biso   1.000  H
  O35      1.0000 0.08215  0.99390  0.55321  Biso   1.000  O
  H6       1.0000 0.11997  0.99391  0.53921  Biso   1.000  H
  O36      1.0000 0.00262  0.57612  0.53472  Biso   1.000  O
  H7       1.0000 0.99282  0.59642  0.50091  Biso   1.000  H
  H8       1.0000 0.96175  0.61281  0.95233  Biso   1.000  H
  O37      1.0000 0.15181  0.52536  0.95228  Biso   1.000  O
  H9       1.0000 0.13783  0.56318  0.95229  Biso   1.000  H
  O38      1.0000 0.02127  0.99385  0.35400  Biso   1.000  O
  H10      1.0000 0.98345  0.99384  0.36800  Biso   1.000  H
  H11      1.0000 0.93394  0.99384  0.54405  Biso   1.000  H
  H12      1.0000 0.55083  0.40483  0.57100  Biso   1.000  H
  O39      1.0000 0.00290  0.57607  0.83942  Biso   1.000  O
  H13      1.0000 0.98262  0.59940  0.81305  Biso   1.000  H
  O40      1.0000 0.15225  0.36516  0.95224  Biso   1.000  O
  H14      1.0000 0.16261  0.34810  0.98537  Biso   1.000  H
  O41      1.0000 0.95252  0.46466  0.95222  Biso   1.000  O
  H15      1.0000 0.96651  0.42685  0.95219  Biso   1.000  H
  H16      1.0000 0.55047  0.58568  0.33545  Biso   1.000  H
  O42      1.0000 0.17664  0.48926  0.83927  Biso   1.000  O
  H17      1.0000 0.19994  0.50958  0.82943  Biso   1.000  H
  O43      1.0000 0.21199  0.52475  0.73292  Biso   1.000  O
  H18      1.0000 0.23228  0.50143  0.75928  Biso   1.000  H
  O44      1.0000 0.16826  0.77460  0.43981  Biso   1.000  O
  H19      1.0000 0.17808  0.73472  0.46011  Biso   1.000  H
  O45      1.0000 0.03811  0.61156  0.57015  Biso   1.000  O
  H20      1.0000 0.00026  0.61728  0.57590  Biso   1.000  H
  H21      1.0000 0.16750  0.49710  0.45556  Biso   1.000  H
  O46      1.0000 0.89393  0.20925  0.41448  Biso   1.000  O
  H22      1.0000 0.91415  0.16937  0.42514  Biso   1.000  H
  H23      1.0000 0.07960  0.37713  0.54384  Biso   1.000  H
  O47      1.0000 0.98810  0.30100  0.27397  Biso   1.000  O
  H24      1.0000 0.97436  0.28426  0.26412  Biso   1.000  H
  O48      1.0000 0.21176  0.52479  0.48320  Biso   1.000  O
  H25      1.0000 0.23200  0.50147  0.45987  Biso   1.000  H
  H26      1.0000 0.33816  0.49087  0.55290  Biso   1.000  H
  H27      1.0000 0.43097  0.45995  0.52189  Biso   1.000  H
  H28      1.0000 0.16957  0.46741  0.36339  Biso   1.000  H
  O49      1.0000 0.55069  0.39557  0.42286  Biso   1.000  O
  H29      1.0000 0.58385  0.36313  0.42708  Biso   1.000  H
  H30      1.0000 0.02195  0.30868  0.32004  Biso   1.000  H
  O50      1.0000 0.43769  0.61885  0.45818  Biso   1.000  O
  H31      1.0000 0.41129  0.65642  0.45601  Biso   1.000  H
  O51      1.0000 0.92189  0.52502  0.55367  Biso   1.000  O
  H32      1.0000 0.89795  0.56282  0.53980  Biso   1.000  H
  H33      1.0000 0.12950  0.87419  0.41770  Biso   1.000  H
  O52      1.0000 0.33133  0.65428  0.49370  Biso   1.000  O
  H34      1.0000 0.35770  0.67427  0.47392  Biso   1.000  H
  H35      1.0000 0.08481  0.78131  0.60022  Biso   1.000  H
  O53      1.0000 0.04606  0.88090  0.57810  Biso   1.000  O
  H36      1.0000 0.01227  0.87107  0.60143  Biso   1.000  H
  O54      1.0000 0.93692  0.51012  0.16752  Biso   1.000  O
  H37      1.0000 0.89659  0.52691  0.17727  Biso   1.000  H
  O55      1.0000 0.90133  0.47472  0.27387  Biso   1.000  O
  H38      1.0000 0.89565  0.51256  0.24747  Biso   1.000  H
  H39      1.0000 0.90905  0.46593  0.31063  Biso   1.000  H
  O56      1.0000 0.02370  0.33639  0.16762  Biso   1.000  O
  H40      1.0000 0.02938  0.29855  0.19402  Biso   1.000  H
  H41      1.0000 0.93993  0.49683  0.34169  Biso   1.000  H
  H42      1.0000 0.98467  0.31430  0.38658  Biso   1.000  H
  O57      1.0000 0.02332  0.33641  0.42541  Biso   1.000  O
  H43      1.0000 0.02902  0.29857  0.43114  Biso   1.000  H
  O58      1.0000 0.06602  0.20907  0.34913  Biso   1.000  O
  H44      1.0000 0.08603  0.23543  0.32938  Biso   1.000  H
  H45      1.0000 0.86539  0.35232  0.42429  Biso   1.000  H
  H46      1.0000 0.77281  0.45912  0.30340  Biso   1.000  H
  O59      1.0000 0.76579  0.38010  0.46838  Biso   1.000  O
  H47      1.0000 0.79213  0.35676  0.48869  Biso   1.000  H
  H48      1.0000 0.86563  0.42810  0.27260  Biso   1.000  H
