data_image0
_cell_length_a       8.8775
_cell_length_b       8.8775
_cell_length_c       23.775
_cell_angle_alpha    90
_cell_angle_beta     90
_cell_angle_gamma    120

_symmetry_space_group_name_H-M    "P 1"
_symmetry_int_tables_number       1

loop_
  _symmetry_equiv_pos_as_xyz
  'x, y, z'

loop_
  _atom_site_label
  _atom_site_occupancy
  _atom_site_fract_x
  _atom_site_fract_y
  _atom_site_fract_z
  _atom_site_thermal_displace_type
  _atom_site_B_iso_or_equiv
  _atom_site_type_symbol
  Zn1      1.0000 0.03998  0.33327  0.54408  Biso   1.000  Zn
  P1       1.0000 0.96469  0.64561  0.58275  Biso   1.000  P
  O1       1.0000 0.05050  0.54360  0.56563  Biso   1.000  O
  O2       1.0000 0.85500  0.65070  0.53186  Biso   1.000  O
  O3       1.0000 0.10320  0.83230  0.59661  Biso   1.000  O
  O4       1.0000 0.84240  0.56880  0.63314  Biso   1.000  O
  Zn2      1.0000 0.66673  0.70671  0.54408  Biso   1.000  Zn
  P2       1.0000 0.35439  0.31908  0.58275  Biso   1.000  P
  O5       1.0000 0.45640  0.50690  0.56563  Biso   1.000  O
  O6       1.0000 0.34930  0.20430  0.53186  Biso   1.000  O
  O7       1.0000 0.16770  0.27090  0.59661  Biso   1.000  O
  O8       1.0000 0.43120  0.27360  0.63314  Biso   1.000  O
  Zn3      1.0000 0.29329  0.96002  0.54408  Biso   1.000  Zn
  P3       1.0000 0.68092  0.03531  0.58275  Biso   1.000  P
  O9       1.0000 0.49310  0.94950  0.56563  Biso   1.000  O
  O10      1.0000 0.79570  0.14500  0.53186  Biso   1.000  O
  O11      1.0000 0.72910  0.89680  0.59661  Biso   1.000  O
  O12      1.0000 0.72640  0.15760  0.63314  Biso   1.000  O
  Zn4      1.0000 0.66673  0.96002  0.95592  Biso   1.000  Zn
  P4       1.0000 0.35439  0.03531  0.91725  Biso   1.000  P
  O13      1.0000 0.45640  0.94950  0.93437  Biso   1.000  O
  O14      1.0000 0.34930  0.14500  0.96814  Biso   1.000  O
  O15      1.0000 0.16770  0.89680  0.90339  Biso   1.000  O
  O16      1.0000 0.43120  0.15760  0.86686  Biso   1.000  O
  Zn5      1.0000 0.29329  0.33327  0.95592  Biso   1.000  Zn
  P5       1.0000 0.68092  0.64561  0.91725  Biso   1.000  P
  O17      1.0000 0.49310  0.54360  0.93437  Biso   1.000  O
  O18      1.0000 0.79570  0.65070  0.96814  Biso   1.000  O
  O19      1.0000 0.72910  0.83230  0.90339  Biso   1.000  O
  O20      1.0000 0.72640  0.56880  0.86686  Biso   1.000  O
  Zn6      1.0000 0.03998  0.70671  0.95592  Biso   1.000  Zn
  P6       1.0000 0.96469  0.31908  0.91725  Biso   1.000  P
  O21      1.0000 0.05050  0.50690  0.93437  Biso   1.000  O
  O22      1.0000 0.85500  0.20430  0.96814  Biso   1.000  O
  O23      1.0000 0.10320  0.27090  0.90339  Biso   1.000  O
  O24      1.0000 0.84240  0.27360  0.86686  Biso   1.000  O
  Zn7      1.0000 0.96002  0.66673  0.45592  Biso   1.000  Zn
  P7       1.0000 0.03531  0.35439  0.41725  Biso   1.000  P
  O25      1.0000 0.94950  0.45640  0.43437  Biso   1.000  O
  O26      1.0000 0.14500  0.34930  0.46814  Biso   1.000  O
  O27      1.0000 0.89680  0.16770  0.40339  Biso   1.000  O
  O28      1.0000 0.15760  0.43120  0.36686  Biso   1.000  O
  Zn8      1.0000 0.33327  0.29329  0.45592  Biso   1.000  Zn
  P8       1.0000 0.64561  0.68092  0.41725  Biso   1.000  P
  O29      1.0000 0.54360  0.49310  0.43437  Biso   1.000  O
  O30      1.0000 0.65070  0.79570  0.46814  Biso   1.000  O
  O31      1.0000 0.83230  0.72910  0.40339  Biso   1.000  O
  O32      1.0000 0.56880  0.72640  0.36686  Biso   1.000  O
  Zn9      1.0000 0.70671  0.03998  0.45592  Biso   1.000  Zn
  P9       1.0000 0.31908  0.96469  0.41725  Biso   1.000  P
  O33      1.0000 0.50690  0.05050  0.43437  Biso   1.000  O
  O34      1.0000 0.20430  0.85500  0.46814  Biso   1.000  O
  O35      1.0000 0.27090  0.10320  0.40339  Biso   1.000  O
  O36      1.0000 0.27360  0.84240  0.36686  Biso   1.000  O
  Zn10     1.0000 0.33327  0.03998  0.04408  Biso   1.000  Zn
  P10      1.0000 0.64561  0.96469  0.08275  Biso   1.000  P
  O37      1.0000 0.54360  0.05050  0.06563  Biso   1.000  O
  O38      1.0000 0.65070  0.85500  0.03186  Biso   1.000  O
  O39      1.0000 0.83230  0.10320  0.09661  Biso   1.000  O
  O40      1.0000 0.56880  0.84240  0.13314  Biso   1.000  O
  Zn11     1.0000 0.70671  0.66673  0.04408  Biso   1.000  Zn
  P11      1.0000 0.31908  0.35439  0.08275  Biso   1.000  P
  O41      1.0000 0.50690  0.45640  0.06563  Biso   1.000  O
  O42      1.0000 0.20430  0.34930  0.03186  Biso   1.000  O
  O43      1.0000 0.27090  0.16770  0.09661  Biso   1.000  O
  O44      1.0000 0.27360  0.43120  0.13314  Biso   1.000  O
  Zn12     1.0000 0.96002  0.29329  0.04408  Biso   1.000  Zn
  P12      1.0000 0.03531  0.68092  0.08275  Biso   1.000  P
  O45      1.0000 0.94950  0.49310  0.06563  Biso   1.000  O
  O46      1.0000 0.14500  0.79570  0.03186  Biso   1.000  O
  O47      1.0000 0.89680  0.72910  0.09661  Biso   1.000  O
  O48      1.0000 0.15760  0.72640  0.13314  Biso   1.000  O
  Zn13     1.0000 0.66667  0.33333  0.64938  Biso   1.000  Zn
  Zn14     1.0000 0.66667  0.33333  0.85062  Biso   1.000  Zn
  Zn15     1.0000 0.33333  0.66667  0.35062  Biso   1.000  Zn
  Zn16     1.0000 0.33333  0.66667  0.14938  Biso   1.000  Zn
  Cl1      1.0000 0.66667  0.33333  0.75000  Biso   1.000  Cl
  Cl2      1.0000 0.33333  0.66667  0.25000  Biso   1.000  Cl
