data_image0
_cell_length_a       7.0822
_cell_length_b       20.72
_cell_length_c       22.878
_cell_angle_alpha    90
_cell_angle_beta     90
_cell_angle_gamma    90

_symmetry_space_group_name_H-M    P 1
_symmetry_int_tables_number       1

loop_
  _symmetry_equiv_pos_as_xyz
  'x, y, z'

loop_
  _atom_site_label
  _atom_site_occupancy
  _atom_site_fract_x
  _atom_site_fract_y
  _atom_site_fract_z
  _atom_site_thermal_displace_type
  _atom_site_B_iso_or_equiv
  _atom_site_type_symbol
  Na1      1.0000 0.82640  0.54417  0.95041  Biso   1.000  Na
  Na2      1.0000 0.67360  0.95583  0.45041  Biso   1.000  Na
  Na3      1.0000 0.82640  0.45583  0.54959  Biso   1.000  Na
  Na4      1.0000 0.67360  0.04417  0.04959  Biso   1.000  Na
  Na5      1.0000 0.17360  0.45583  0.04959  Biso   1.000  Na
  Na6      1.0000 0.32640  0.04417  0.54959  Biso   1.000  Na
  Na7      1.0000 0.17360  0.54417  0.45041  Biso   1.000  Na
  Na8      1.0000 0.32640  0.95583  0.95041  Biso   1.000  Na
  Cd1      1.0000 0.77942  0.04032  0.90310  Biso   1.000  Cd
  Cd2      1.0000 0.72058  0.45968  0.40310  Biso   1.000  Cd
  Cd3      1.0000 0.77942  0.95968  0.59690  Biso   1.000  Cd
  Cd4      1.0000 0.72058  0.54032  0.09690  Biso   1.000  Cd
  Cd5      1.0000 0.22058  0.95968  0.09690  Biso   1.000  Cd
  Cd6      1.0000 0.27942  0.54032  0.59690  Biso   1.000  Cd
  Cd7      1.0000 0.22058  0.04032  0.40310  Biso   1.000  Cd
  Cd8      1.0000 0.27942  0.45968  0.90310  Biso   1.000  Cd
  H1       1.0000 0.78090  0.27630  0.89020  Biso   1.000  H
  H2       1.0000 0.73710  0.20510  0.05200  Biso   1.000  H
  H3       1.0000 0.71070  0.30840  0.08870  Biso   1.000  H
  H4       1.0000 0.03010  0.97930  0.80480  Biso   1.000  H
  H5       1.0000 0.01970  0.05190  0.78580  Biso   1.000  H
  H6       1.0000 0.54810  0.95230  0.80950  Biso   1.000  H
  H7       1.0000 0.74610  0.91860  0.81430  Biso   1.000  H
  H8       1.0000 0.73220  0.10340  0.77880  Biso   1.000  H
  H9       1.0000 0.54200  0.06530  0.78450  Biso   1.000  H
  H10      1.0000 0.71910  0.22370  0.39020  Biso   1.000  H
  H11      1.0000 0.76290  0.29490  0.55200  Biso   1.000  H
  H12      1.0000 0.78930  0.19160  0.58870  Biso   1.000  H
  H13      1.0000 0.46990  0.52070  0.30480  Biso   1.000  H
  H14      1.0000 0.48030  0.44810  0.28580  Biso   1.000  H
  H15      1.0000 0.95190  0.54770  0.30950  Biso   1.000  H
  H16      1.0000 0.75390  0.58140  0.31430  Biso   1.000  H
  H17      1.0000 0.76780  0.39660  0.27880  Biso   1.000  H
  H18      1.0000 0.95800  0.43470  0.28450  Biso   1.000  H
  H19      1.0000 0.78090  0.72370  0.60980  Biso   1.000  H
  H20      1.0000 0.73710  0.79490  0.44800  Biso   1.000  H
  H21      1.0000 0.71070  0.69160  0.41130  Biso   1.000  H
  H22      1.0000 0.03010  0.02070  0.69520  Biso   1.000  H
  H23      1.0000 0.01970  0.94810  0.71420  Biso   1.000  H
  H24      1.0000 0.54810  0.04770  0.69050  Biso   1.000  H
  H25      1.0000 0.74610  0.08140  0.68570  Biso   1.000  H
  H26      1.0000 0.73220  0.89660  0.72120  Biso   1.000  H
  H27      1.0000 0.54200  0.93470  0.71550  Biso   1.000  H
  H28      1.0000 0.71910  0.77630  0.10980  Biso   1.000  H
  H29      1.0000 0.76290  0.70510  0.94800  Biso   1.000  H
  H30      1.0000 0.78930  0.80840  0.91130  Biso   1.000  H
  H31      1.0000 0.46990  0.47930  0.19520  Biso   1.000  H
  H32      1.0000 0.48030  0.55190  0.21420  Biso   1.000  H
  H33      1.0000 0.95190  0.45230  0.19050  Biso   1.000  H
  H34      1.0000 0.75390  0.41860  0.18570  Biso   1.000  H
  H35      1.0000 0.76780  0.60340  0.22120  Biso   1.000  H
  H36      1.0000 0.95800  0.56530  0.21550  Biso   1.000  H
  H37      1.0000 0.21910  0.72370  0.10980  Biso   1.000  H
  H38      1.0000 0.26290  0.79490  0.94800  Biso   1.000  H
  H39      1.0000 0.28930  0.69160  0.91130  Biso   1.000  H
  H40      1.0000 0.96990  0.02070  0.19520  Biso   1.000  H
  H41      1.0000 0.98030  0.94810  0.21420  Biso   1.000  H
  H42      1.0000 0.45190  0.04770  0.19050  Biso   1.000  H
  H43      1.0000 0.25390  0.08140  0.18570  Biso   1.000  H
  H44      1.0000 0.26780  0.89660  0.22120  Biso   1.000  H
  H45      1.0000 0.45800  0.93470  0.21550  Biso   1.000  H
  H46      1.0000 0.28090  0.77630  0.60980  Biso   1.000  H
  H47      1.0000 0.23710  0.70510  0.44800  Biso   1.000  H
  H48      1.0000 0.21070  0.80840  0.41130  Biso   1.000  H
  H49      1.0000 0.53010  0.47930  0.69520  Biso   1.000  H
  H50      1.0000 0.51970  0.55190  0.71420  Biso   1.000  H
  H51      1.0000 0.04810  0.45230  0.69050  Biso   1.000  H
  H52      1.0000 0.24610  0.41860  0.68570  Biso   1.000  H
  H53      1.0000 0.23220  0.60340  0.72120  Biso   1.000  H
  H54      1.0000 0.04200  0.56530  0.71550  Biso   1.000  H
  H55      1.0000 0.21910  0.27630  0.39020  Biso   1.000  H
  H56      1.0000 0.26290  0.20510  0.55200  Biso   1.000  H
  H57      1.0000 0.28930  0.30840  0.58870  Biso   1.000  H
  H58      1.0000 0.96990  0.97930  0.30480  Biso   1.000  H
  H59      1.0000 0.98030  0.05190  0.28580  Biso   1.000  H
  H60      1.0000 0.45190  0.95230  0.30950  Biso   1.000  H
  H61      1.0000 0.25390  0.91860  0.31430  Biso   1.000  H
  H62      1.0000 0.26780  0.10340  0.27880  Biso   1.000  H
  H63      1.0000 0.45800  0.06530  0.28450  Biso   1.000  H
  H64      1.0000 0.28090  0.22370  0.89020  Biso   1.000  H
  H65      1.0000 0.23710  0.29490  0.05200  Biso   1.000  H
  H66      1.0000 0.21070  0.19160  0.08870  Biso   1.000  H
  H67      1.0000 0.53010  0.52070  0.80480  Biso   1.000  H
  H68      1.0000 0.51970  0.44810  0.78580  Biso   1.000  H
  H69      1.0000 0.04810  0.54770  0.80950  Biso   1.000  H
  H70      1.0000 0.24610  0.58140  0.81430  Biso   1.000  H
  H71      1.0000 0.23220  0.39660  0.77880  Biso   1.000  H
  H72      1.0000 0.04200  0.43470  0.78450  Biso   1.000  H
  C1       1.0000 0.73820  0.35620  0.01170  Biso   1.000  C
  C2       1.0000 0.76970  0.28290  0.93030  Biso   1.000  C
  C3       1.0000 0.76940  0.16250  0.94320  Biso   1.000  C
  C4       1.0000 0.76140  0.34530  0.95120  Biso   1.000  C
  C5       1.0000 0.76200  0.22980  0.96690  Biso   1.000  C
  C6       1.0000 0.74150  0.24020  0.02670  Biso   1.000  C
  C7       1.0000 0.72740  0.30230  0.04870  Biso   1.000  C
  C8       1.0000 0.72000  0.42020  0.04140  Biso   1.000  C
  C9       1.0000 0.95830  0.01030  0.78210  Biso   1.000  C
  C10      1.0000 0.67600  0.95220  0.79440  Biso   1.000  C
  C11      1.0000 0.67200  0.06200  0.77180  Biso   1.000  C
  C12      1.0000 0.76180  0.14380  0.51170  Biso   1.000  C
  C13      1.0000 0.73030  0.21710  0.43030  Biso   1.000  C
  C14      1.0000 0.73060  0.33750  0.44320  Biso   1.000  C
  C15      1.0000 0.73860  0.15470  0.45120  Biso   1.000  C
  C16      1.0000 0.73800  0.27020  0.46690  Biso   1.000  C
  C17      1.0000 0.75850  0.25980  0.52670  Biso   1.000  C
  C18      1.0000 0.77260  0.19770  0.54870  Biso   1.000  C
  C19      1.0000 0.78000  0.07980  0.54140  Biso   1.000  C
  C20      1.0000 0.54170  0.48970  0.28210  Biso   1.000  C
  C21      1.0000 0.82400  0.54780  0.29440  Biso   1.000  C
  C22      1.0000 0.82800  0.43800  0.27180  Biso   1.000  C
  C23      1.0000 0.73820  0.64380  0.48830  Biso   1.000  C
  C24      1.0000 0.76970  0.71710  0.56970  Biso   1.000  C
  C25      1.0000 0.76940  0.83750  0.55680  Biso   1.000  C
  C26      1.0000 0.76140  0.65470  0.54880  Biso   1.000  C
  C27      1.0000 0.76200  0.77020  0.53310  Biso   1.000  C
  C28      1.0000 0.74150  0.75980  0.47330  Biso   1.000  C
  C29      1.0000 0.72740  0.69770  0.45130  Biso   1.000  C
  C30      1.0000 0.72000  0.57980  0.45860  Biso   1.000  C
  C31      1.0000 0.95830  0.98970  0.71790  Biso   1.000  C
  C32      1.0000 0.67600  0.04780  0.70560  Biso   1.000  C
  C33      1.0000 0.67200  0.93800  0.72820  Biso   1.000  C
  C34      1.0000 0.76180  0.85620  0.98830  Biso   1.000  C
  C35      1.0000 0.73030  0.78290  0.06970  Biso   1.000  C
  C36      1.0000 0.73060  0.66250  0.05680  Biso   1.000  C
  C37      1.0000 0.73860  0.84530  0.04880  Biso   1.000  C
  C38      1.0000 0.73800  0.72980  0.03310  Biso   1.000  C
  C39      1.0000 0.75850  0.74020  0.97330  Biso   1.000  C
  C40      1.0000 0.77260  0.80230  0.95130  Biso   1.000  C
  C41      1.0000 0.78000  0.92020  0.95860  Biso   1.000  C
  C42      1.0000 0.54170  0.51030  0.21790  Biso   1.000  C
  C43      1.0000 0.82400  0.45220  0.20560  Biso   1.000  C
  C44      1.0000 0.82800  0.56200  0.22820  Biso   1.000  C
  C45      1.0000 0.26180  0.64380  0.98830  Biso   1.000  C
  C46      1.0000 0.23030  0.71710  0.06970  Biso   1.000  C
  C47      1.0000 0.23060  0.83750  0.05680  Biso   1.000  C
  C48      1.0000 0.23860  0.65470  0.04880  Biso   1.000  C
  C49      1.0000 0.23800  0.77020  0.03310  Biso   1.000  C
  C50      1.0000 0.25850  0.75980  0.97330  Biso   1.000  C
  C51      1.0000 0.27260  0.69770  0.95130  Biso   1.000  C
  C52      1.0000 0.28000  0.57980  0.95860  Biso   1.000  C
  C53      1.0000 0.04170  0.98970  0.21790  Biso   1.000  C
  C54      1.0000 0.32400  0.04780  0.20560  Biso   1.000  C
  C55      1.0000 0.32800  0.93800  0.22820  Biso   1.000  C
  C56      1.0000 0.23820  0.85620  0.48830  Biso   1.000  C
  C57      1.0000 0.26970  0.78290  0.56970  Biso   1.000  C
  C58      1.0000 0.26940  0.66250  0.55680  Biso   1.000  C
  C59      1.0000 0.26140  0.84530  0.54880  Biso   1.000  C
  C60      1.0000 0.26200  0.72980  0.53310  Biso   1.000  C
  C61      1.0000 0.24150  0.74020  0.47330  Biso   1.000  C
  C62      1.0000 0.22740  0.80230  0.45130  Biso   1.000  C
  C63      1.0000 0.22000  0.92020  0.45860  Biso   1.000  C
  C64      1.0000 0.45830  0.51030  0.71790  Biso   1.000  C
  C65      1.0000 0.17600  0.45220  0.70560  Biso   1.000  C
  C66      1.0000 0.17200  0.56200  0.72820  Biso   1.000  C
  C67      1.0000 0.26180  0.35620  0.51170  Biso   1.000  C
  C68      1.0000 0.23030  0.28290  0.43030  Biso   1.000  C
  C69      1.0000 0.23060  0.16250  0.44320  Biso   1.000  C
  C70      1.0000 0.23860  0.34530  0.45120  Biso   1.000  C
  C71      1.0000 0.23800  0.22980  0.46690  Biso   1.000  C
  C72      1.0000 0.25850  0.24020  0.52670  Biso   1.000  C
  C73      1.0000 0.27260  0.30230  0.54870  Biso   1.000  C
  C74      1.0000 0.28000  0.42020  0.54140  Biso   1.000  C
  C75      1.0000 0.04170  0.01030  0.28210  Biso   1.000  C
  C76      1.0000 0.32400  0.95220  0.29440  Biso   1.000  C
  C77      1.0000 0.32800  0.06200  0.27180  Biso   1.000  C
  C78      1.0000 0.23820  0.14380  0.01170  Biso   1.000  C
  C79      1.0000 0.26970  0.21710  0.93030  Biso   1.000  C
  C80      1.0000 0.26940  0.33750  0.94320  Biso   1.000  C
  C81      1.0000 0.26140  0.15470  0.95120  Biso   1.000  C
  C82      1.0000 0.26200  0.27020  0.96690  Biso   1.000  C
  C83      1.0000 0.24150  0.25980  0.02670  Biso   1.000  C
  C84      1.0000 0.22740  0.19770  0.04870  Biso   1.000  C
  C85      1.0000 0.22000  0.07980  0.04140  Biso   1.000  C
  C86      1.0000 0.45830  0.48970  0.78210  Biso   1.000  C
  C87      1.0000 0.17600  0.54780  0.79440  Biso   1.000  C
  C88      1.0000 0.17200  0.43800  0.77180  Biso   1.000  C
  S1       1.0000 0.76330  0.40906  0.89904  Biso   1.000  S
  S2       1.0000 0.73670  0.09094  0.39904  Biso   1.000  S
  S3       1.0000 0.76330  0.59094  0.60096  Biso   1.000  S
  S4       1.0000 0.73670  0.90906  0.10096  Biso   1.000  S
  S5       1.0000 0.23670  0.59094  0.10096  Biso   1.000  S
  S6       1.0000 0.26330  0.90906  0.60096  Biso   1.000  S
  S7       1.0000 0.23670  0.40906  0.39904  Biso   1.000  S
  S8       1.0000 0.26330  0.09094  0.89904  Biso   1.000  S
  N1       1.0000 0.76400  0.01460  0.80600  Biso   1.000  N
  N2       1.0000 0.73600  0.48540  0.30600  Biso   1.000  N
  N3       1.0000 0.76400  0.98540  0.69400  Biso   1.000  N
  N4       1.0000 0.73600  0.51460  0.19400  Biso   1.000  N
  N5       1.0000 0.23600  0.98540  0.19400  Biso   1.000  N
  N6       1.0000 0.26400  0.51460  0.69400  Biso   1.000  N
  N7       1.0000 0.23600  0.01460  0.30600  Biso   1.000  N
  N8       1.0000 0.26400  0.48540  0.80600  Biso   1.000  N
  O1       1.0000 0.78390  0.15420  0.88970  Biso   1.000  O
  O2       1.0000 0.93970  0.44490  0.90450  Biso   1.000  O
  O3       1.0000 0.75990  0.11610  0.97840  Biso   1.000  O
  O4       1.0000 0.82800  0.46420  0.03000  Biso   1.000  O
  O5       1.0000 0.73650  0.37880  0.84380  Biso   1.000  O
  O6       1.0000 0.60920  0.45280  0.91510  Biso   1.000  O
  O7       1.0000 0.76020  0.60910  0.87140  Biso   1.000  O
  O8       1.0000 0.59490  0.42720  0.08110  Biso   1.000  O
  O9       1.0000 0.71610  0.34580  0.38970  Biso   1.000  O
  O10      1.0000 0.56030  0.05510  0.40450  Biso   1.000  O
  O11      1.0000 0.74010  0.38390  0.47840  Biso   1.000  O
  O12      1.0000 0.67200  0.03580  0.53000  Biso   1.000  O
  O13      1.0000 0.76350  0.12120  0.34380  Biso   1.000  O
  O14      1.0000 0.89080  0.04720  0.41510  Biso   1.000  O
  O15      1.0000 0.73980  0.89090  0.37140  Biso   1.000  O
  O16      1.0000 0.90510  0.07280  0.58110  Biso   1.000  O
  O17      1.0000 0.78390  0.84580  0.61030  Biso   1.000  O
  O18      1.0000 0.93970  0.55510  0.59550  Biso   1.000  O
  O19      1.0000 0.75990  0.88390  0.52160  Biso   1.000  O
  O20      1.0000 0.82800  0.53580  0.47000  Biso   1.000  O
  O21      1.0000 0.73650  0.62120  0.65620  Biso   1.000  O
  O22      1.0000 0.60920  0.54720  0.58490  Biso   1.000  O
  O23      1.0000 0.76020  0.39090  0.62860  Biso   1.000  O
  O24      1.0000 0.59490  0.57280  0.41890  Biso   1.000  O
  O25      1.0000 0.71610  0.65420  0.11030  Biso   1.000  O
  O26      1.0000 0.56030  0.94490  0.09550  Biso   1.000  O
  O27      1.0000 0.74010  0.61610  0.02160  Biso   1.000  O
  O28      1.0000 0.67200  0.96420  0.97000  Biso   1.000  O
  O29      1.0000 0.76350  0.87880  0.15620  Biso   1.000  O
  O30      1.0000 0.89080  0.95280  0.08490  Biso   1.000  O
  O31      1.0000 0.73980  0.10910  0.12860  Biso   1.000  O
  O32      1.0000 0.90510  0.92720  0.91890  Biso   1.000  O
  O33      1.0000 0.21610  0.84580  0.11030  Biso   1.000  O
  O34      1.0000 0.06030  0.55510  0.09550  Biso   1.000  O
  O35      1.0000 0.24010  0.88390  0.02160  Biso   1.000  O
  O36      1.0000 0.17200  0.53580  0.97000  Biso   1.000  O
  O37      1.0000 0.26350  0.62120  0.15620  Biso   1.000  O
  O38      1.0000 0.39080  0.54720  0.08490  Biso   1.000  O
  O39      1.0000 0.23980  0.39090  0.12860  Biso   1.000  O
  O40      1.0000 0.40510  0.57280  0.91890  Biso   1.000  O
  O41      1.0000 0.28390  0.65420  0.61030  Biso   1.000  O
  O42      1.0000 0.43970  0.94490  0.59550  Biso   1.000  O
  O43      1.0000 0.25990  0.61610  0.52160  Biso   1.000  O
  O44      1.0000 0.32800  0.96420  0.47000  Biso   1.000  O
  O45      1.0000 0.23650  0.87880  0.65620  Biso   1.000  O
  O46      1.0000 0.10920  0.95280  0.58490  Biso   1.000  O
  O47      1.0000 0.26020  0.10910  0.62860  Biso   1.000  O
  O48      1.0000 0.09490  0.92720  0.41890  Biso   1.000  O
  O49      1.0000 0.21610  0.15420  0.38970  Biso   1.000  O
  O50      1.0000 0.06030  0.44490  0.40450  Biso   1.000  O
  O51      1.0000 0.24010  0.11610  0.47840  Biso   1.000  O
  O52      1.0000 0.17200  0.46420  0.53000  Biso   1.000  O
  O53      1.0000 0.26350  0.37880  0.34380  Biso   1.000  O
  O54      1.0000 0.39080  0.45280  0.41510  Biso   1.000  O
  O55      1.0000 0.23980  0.60910  0.37140  Biso   1.000  O
  O56      1.0000 0.40510  0.42720  0.58110  Biso   1.000  O
  O57      1.0000 0.28390  0.34580  0.88970  Biso   1.000  O
  O58      1.0000 0.43970  0.05510  0.90450  Biso   1.000  O
  O59      1.0000 0.25990  0.38390  0.97840  Biso   1.000  O
  O60      1.0000 0.32800  0.03580  0.03000  Biso   1.000  O
  O61      1.0000 0.23650  0.12120  0.84380  Biso   1.000  O
  O62      1.0000 0.10920  0.04720  0.91510  Biso   1.000  O
  O63      1.0000 0.26020  0.89090  0.87140  Biso   1.000  O
  O64      1.0000 0.09490  0.07280  0.08110  Biso   1.000  O
