data_image0
_cell_length_a       9.2553
_cell_length_b       9.35367
_cell_length_c       13.8735
_cell_angle_alpha    109.701
_cell_angle_beta     101.758
_cell_angle_gamma    90

_symmetry_space_group_name_H-M    P 1
_symmetry_int_tables_number       1

loop_
  _symmetry_equiv_pos_as_xyz
  'x, y, z'

loop_
  _atom_site_label
  _atom_site_occupancy
  _atom_site_fract_x
  _atom_site_fract_y
  _atom_site_fract_z
  _atom_site_thermal_displace_type
  _atom_site_B_iso_or_equiv
  _atom_site_type_symbol
  Cu1      1.0000 0.03860  0.02030  0.38460  Biso   1.000  Cu
  Cu2      1.0000 0.46140  0.63570  0.61540  Biso   1.000  Cu
  Cu3      1.0000 0.96140  0.97970  0.61540  Biso   1.000  Cu
  Cu4      1.0000 0.53860  0.36430  0.38460  Biso   1.000  Cu
  H1       1.0000 0.82334  0.93081  0.18072  Biso   1.000  H
  H2       1.0000 0.68184  0.72310  0.04864  Biso   1.000  H
  H3       1.0000 0.81792  0.46746  0.23376  Biso   1.000  H
  H4       1.0000 0.95505  0.68382  0.35980  Biso   1.000  H
  H5       1.0000 0.58907  0.46518  0.99258  Biso   1.000  H
  H6       1.0000 0.58465  0.39326  0.07648  Biso   1.000  H
  H7       1.0000 0.80901  0.26485  0.04674  Biso   1.000  H
  H8       1.0000 0.67666  0.75009  0.81928  Biso   1.000  H
  H9       1.0000 0.81816  0.67446  0.95136  Biso   1.000  H
  H10      1.0000 0.68208  0.23370  0.76624  Biso   1.000  H
  H11      1.0000 0.54495  0.32402  0.64020  Biso   1.000  H
  H12      1.0000 0.91093  0.47260  0.00742  Biso   1.000  H
  H13      1.0000 0.91535  0.31678  0.92352  Biso   1.000  H
  H14      1.0000 0.69099  0.21811  0.95326  Biso   1.000  H
  H15      1.0000 0.17666  0.06919  0.81928  Biso   1.000  H
  H16      1.0000 0.31816  0.27690  0.95136  Biso   1.000  H
  H17      1.0000 0.18208  0.53254  0.76624  Biso   1.000  H
  H18      1.0000 0.04495  0.31618  0.64020  Biso   1.000  H
  H19      1.0000 0.41093  0.53482  0.00742  Biso   1.000  H
  H20      1.0000 0.41535  0.60674  0.92352  Biso   1.000  H
  H21      1.0000 0.19099  0.73515  0.95326  Biso   1.000  H
  H22      1.0000 0.32334  0.24991  0.18072  Biso   1.000  H
  H23      1.0000 0.18184  0.32554  0.04864  Biso   1.000  H
  H24      1.0000 0.31792  0.76630  0.23376  Biso   1.000  H
  H25      1.0000 0.45505  0.67598  0.35980  Biso   1.000  H
  H26      1.0000 0.08907  0.52740  0.99258  Biso   1.000  H
  H27      1.0000 0.08465  0.68322  0.07648  Biso   1.000  H
  H28      1.0000 0.30901  0.78189  0.04674  Biso   1.000  H
  C1       1.0000 0.76960  0.25680  0.30160  Biso   1.000  C
  C2       1.0000 0.77500  0.20250  0.39200  Biso   1.000  C
  C3       1.0000 0.82190  0.83460  0.19140  Biso   1.000  C
  C4       1.0000 0.73720  0.71240  0.11200  Biso   1.000  C
  C5       1.0000 0.73630  0.57390  0.12860  Biso   1.000  C
  C6       1.0000 0.81740  0.56250  0.22140  Biso   1.000  C
  C7       1.0000 0.89880  0.69170  0.29580  Biso   1.000  C
  C8       1.0000 0.64687  0.43600  0.04600  Biso   1.000  C
  C9       1.0000 0.73040  0.95520  0.69840  Biso   1.000  C
  C10      1.0000 0.72500  0.81050  0.60800  Biso   1.000  C
  C11      1.0000 0.67810  0.64320  0.80860  Biso   1.000  C
  C12      1.0000 0.76280  0.60040  0.88800  Biso   1.000  C
  C13      1.0000 0.76370  0.44530  0.87140  Biso   1.000  C
  C14      1.0000 0.68260  0.34110  0.77860  Biso   1.000  C
  C15      1.0000 0.60120  0.39590  0.70420  Biso   1.000  C
  C16      1.0000 0.85313  0.39000  0.95400  Biso   1.000  C
  C17      1.0000 0.23040  0.74320  0.69840  Biso   1.000  C
  C18      1.0000 0.22500  0.79750  0.60800  Biso   1.000  C
  C19      1.0000 0.17810  0.16540  0.80860  Biso   1.000  C
  C20      1.0000 0.26280  0.28760  0.88800  Biso   1.000  C
  C21      1.0000 0.26370  0.42610  0.87140  Biso   1.000  C
  C22      1.0000 0.18260  0.43750  0.77860  Biso   1.000  C
  C23      1.0000 0.10120  0.30830  0.70420  Biso   1.000  C
  C24      1.0000 0.35313  0.56400  0.95400  Biso   1.000  C
  C25      1.0000 0.26960  0.04480  0.30160  Biso   1.000  C
  C26      1.0000 0.27500  0.18950  0.39200  Biso   1.000  C
  C27      1.0000 0.32190  0.35680  0.19140  Biso   1.000  C
  C28      1.0000 0.23720  0.39960  0.11200  Biso   1.000  C
  C29      1.0000 0.23630  0.55470  0.12860  Biso   1.000  C
  C30      1.0000 0.31740  0.65890  0.22140  Biso   1.000  C
  C31      1.0000 0.39880  0.60410  0.29580  Biso   1.000  C
  C32      1.0000 0.14687  0.61000  0.04600  Biso   1.000  C
  C33      1.0000 0.75000  0.32000  0.00000  Biso   1.000  C
  C34      1.0000 0.25000  0.68000  0.00000  Biso   1.000  C
  N1       1.0000 0.67580  0.24640  0.45080  Biso   1.000  N
  N2       1.0000 0.70640  0.18270  0.52540  Biso   1.000  N
  N3       1.0000 0.82280  0.10190  0.50980  Biso   1.000  N
  N4       1.0000 0.86600  0.11350  0.42700  Biso   1.000  N
  N5       1.0000 0.90200  0.82740  0.28200  Biso   1.000  N
  N6       1.0000 0.82420  0.79560  0.54920  Biso   1.000  N
  N7       1.0000 0.79360  0.65730  0.47460  Biso   1.000  N
  N8       1.0000 0.67720  0.59210  0.49020  Biso   1.000  N
  N9       1.0000 0.63400  0.68650  0.57300  Biso   1.000  N
  N10      1.0000 0.59800  0.54540  0.71800  Biso   1.000  N
  N11      1.0000 0.32420  0.75360  0.54920  Biso   1.000  N
  N12      1.0000 0.29360  0.81730  0.47460  Biso   1.000  N
  N13      1.0000 0.17720  0.89810  0.49020  Biso   1.000  N
  N14      1.0000 0.13400  0.88650  0.57300  Biso   1.000  N
  N15      1.0000 0.09800  0.17260  0.71800  Biso   1.000  N
  N16      1.0000 0.17580  0.20440  0.45080  Biso   1.000  N
  N17      1.0000 0.20640  0.34270  0.52540  Biso   1.000  N
  N18      1.0000 0.32280  0.40790  0.50980  Biso   1.000  N
  N19      1.0000 0.36600  0.31350  0.42700  Biso   1.000  N
  N20      1.0000 0.40200  0.45460  0.28200  Biso   1.000  N
  O1       1.0000 0.86640  0.22820  0.25040  Biso   1.000  O
  O2       1.0000 0.65500  0.32950  0.28900  Biso   1.000  O
  O3       1.0000 0.63360  0.97780  0.74960  Biso   1.000  O
  O4       1.0000 0.84500  0.04050  0.71100  Biso   1.000  O
  O5       1.0000 0.13360  0.77180  0.74960  Biso   1.000  O
  O6       1.0000 0.34500  0.67050  0.71100  Biso   1.000  O
  O7       1.0000 0.36640  0.02220  0.25040  Biso   1.000  O
  O8       1.0000 0.15500  0.95950  0.28900  Biso   1.000  O
