data_image0
_cell_length_a       9.2741
_cell_length_b       9.38991
_cell_length_c       15.0567
_cell_angle_alpha    108.169
_cell_angle_beta     92.5244
_cell_angle_gamma    90

_symmetry_space_group_name_H-M    P 1
_symmetry_int_tables_number       1

loop_
  _symmetry_equiv_pos_as_xyz
  'x, y, z'

loop_
  _atom_site_label
  _atom_site_occupancy
  _atom_site_fract_x
  _atom_site_fract_y
  _atom_site_fract_z
  _atom_site_thermal_displace_type
  _atom_site_B_iso_or_equiv
  _atom_site_type_symbol
  Cu1      1.0000 0.87996  0.36179  0.38492  Biso   1.000  Cu
  Cu2      1.0000 0.62004  0.97687  0.61508  Biso   1.000  Cu
  Cu3      1.0000 0.12004  0.63821  0.61508  Biso   1.000  Cu
  Cu4      1.0000 0.37996  0.02313  0.38492  Biso   1.000  Cu
  H1       1.0000 0.14310  0.70440  0.25400  Biso   1.000  H
  H2       1.0000 0.03560  0.63170  0.36640  Biso   1.000  H
  H3       1.0000 0.04340  0.29860  0.07020  Biso   1.000  H
  H4       1.0000 0.93070  0.24000  0.18800  Biso   1.000  H
  H5       1.0000 0.10830  0.60340  0.04260  Biso   1.000  H
  H6       1.0000 0.25440  0.63270  0.10400  Biso   1.000  H
  H7       1.0000 0.32240  0.38520  0.03040  Biso   1.000  H
  H8       1.0000 0.35690  0.45040  0.74600  Biso   1.000  H
  H9       1.0000 0.46440  0.26530  0.63360  Biso   1.000  H
  H10      1.0000 0.45660  0.22840  0.92980  Biso   1.000  H
  H11      1.0000 0.56930  0.05200  0.81200  Biso   1.000  H
  H12      1.0000 0.39170  0.56080  0.95740  Biso   1.000  H
  H13      1.0000 0.24560  0.52870  0.89600  Biso   1.000  H
  H14      1.0000 0.17760  0.35480  0.96960  Biso   1.000  H
  H15      1.0000 0.85690  0.29560  0.74600  Biso   1.000  H
  H16      1.0000 0.96440  0.36830  0.63360  Biso   1.000  H
  H17      1.0000 0.95660  0.70140  0.92980  Biso   1.000  H
  H18      1.0000 0.06930  0.76000  0.81200  Biso   1.000  H
  H19      1.0000 0.89170  0.39660  0.95740  Biso   1.000  H
  H20      1.0000 0.74560  0.36730  0.89600  Biso   1.000  H
  H21      1.0000 0.67760  0.61480  0.96960  Biso   1.000  H
  H22      1.0000 0.64310  0.54960  0.25400  Biso   1.000  H
  H23      1.0000 0.53560  0.73470  0.36640  Biso   1.000  H
  H24      1.0000 0.54340  0.77160  0.07020  Biso   1.000  H
  H25      1.0000 0.43070  0.94800  0.18800  Biso   1.000  H
  H26      1.0000 0.60830  0.43920  0.04260  Biso   1.000  H
  H27      1.0000 0.75440  0.47130  0.10400  Biso   1.000  H
  H28      1.0000 0.82240  0.64520  0.03040  Biso   1.000  H
  C1       1.0000 0.10220  0.60770  0.23880  Biso   1.000  C
  C2       1.0000 0.03680  0.56380  0.30540  Biso   1.000  C
  C3       1.0000 0.04260  0.36910  0.13020  Biso   1.000  C
  C4       1.0000 0.10840  0.50900  0.14780  Biso   1.000  C
  C5       1.0000 0.97620  0.33420  0.20140  Biso   1.000  C
  C6       1.0000 0.18040  0.55650  0.07360  Biso   1.000  C
  C7       1.0000 0.14040  0.20130  0.40640  Biso   1.000  C
  C8       1.0000 0.09920  0.06760  0.32440  Biso   1.000  C
  C9       1.0000 0.39780  0.36890  0.76120  Biso   1.000  C
  C10      1.0000 0.46320  0.25840  0.69460  Biso   1.000  C
  C11      1.0000 0.45740  0.23890  0.86980  Biso   1.000  C
  C12      1.0000 0.39160  0.36120  0.85220  Biso   1.000  C
  C13      1.0000 0.52380  0.13280  0.79860  Biso   1.000  C
  C14      1.0000 0.31960  0.48290  0.92640  Biso   1.000  C
  C15      1.0000 0.35960  0.79490  0.59360  Biso   1.000  C
  C16      1.0000 0.40080  0.74320  0.67560  Biso   1.000  C
  C17      1.0000 0.89780  0.39230  0.76120  Biso   1.000  C
  C18      1.0000 0.96320  0.43620  0.69460  Biso   1.000  C
  C19      1.0000 0.95740  0.63090  0.86980  Biso   1.000  C
  C20      1.0000 0.89160  0.49100  0.85220  Biso   1.000  C
  C21      1.0000 0.02380  0.66580  0.79860  Biso   1.000  C
  C22      1.0000 0.81960  0.44350  0.92640  Biso   1.000  C
  C23      1.0000 0.85960  0.79870  0.59360  Biso   1.000  C
  C24      1.0000 0.90080  0.93240  0.67560  Biso   1.000  C
  C25      1.0000 0.60220  0.63110  0.23880  Biso   1.000  C
  C26      1.0000 0.53680  0.74160  0.30540  Biso   1.000  C
  C27      1.0000 0.54260  0.76110  0.13020  Biso   1.000  C
  C28      1.0000 0.60840  0.63880  0.14780  Biso   1.000  C
  C29      1.0000 0.47620  0.86720  0.20140  Biso   1.000  C
  C30      1.0000 0.68040  0.51710  0.07360  Biso   1.000  C
  C31      1.0000 0.64040  0.20510  0.40640  Biso   1.000  C
  C32      1.0000 0.59920  0.25680  0.32440  Biso   1.000  C
  C33      1.0000 0.25000  0.43090  0.00000  Biso   1.000  C
  C34      1.0000 0.75000  0.56910  0.00000  Biso   1.000  C
  N1       1.0000 0.97400  0.42877  0.28854  Biso   1.000  N
  N2       1.0000 0.07230  0.32768  0.44316  Biso   1.000  N
  N3       1.0000 0.15920  0.41133  0.51246  Biso   1.000  N
  N4       1.0000 0.27970  0.33805  0.51710  Biso   1.000  N
  N5       1.0000 0.26900  0.20487  0.44994  Biso   1.000  N
  N6       1.0000 0.52600  0.14023  0.71146  Biso   1.000  N
  N7       1.0000 0.42770  0.88452  0.55684  Biso   1.000  N
  N8       1.0000 0.34080  0.89887  0.48754  Biso   1.000  N
  N9       1.0000 0.22030  0.82095  0.48290  Biso   1.000  N
  N10      1.0000 0.23100  0.75493  0.55006  Biso   1.000  N
  N11      1.0000 0.02600  0.57123  0.71146  Biso   1.000  N
  N12      1.0000 0.92770  0.67232  0.55684  Biso   1.000  N
  N13      1.0000 0.84080  0.58867  0.48754  Biso   1.000  N
  N14      1.0000 0.72030  0.66195  0.48290  Biso   1.000  N
  N15      1.0000 0.73100  0.79513  0.55006  Biso   1.000  N
  N16      1.0000 0.47400  0.85977  0.28854  Biso   1.000  N
  N17      1.0000 0.57230  0.11548  0.44316  Biso   1.000  N
  N18      1.0000 0.65920  0.10113  0.51246  Biso   1.000  N
  N19      1.0000 0.77970  0.17905  0.51710  Biso   1.000  N
  N20      1.0000 0.76900  0.24507  0.44994  Biso   1.000  N
  O1       1.0000 0.19830  0.97110  0.30540  Biso   1.000  O
  O2       1.0000 0.97960  0.06282  0.28504  Biso   1.000  O
  O3       1.0000 0.30170  0.66570  0.69460  Biso   1.000  O
  O4       1.0000 0.52040  0.77778  0.71496  Biso   1.000  O
  O5       1.0000 0.80170  0.02890  0.69460  Biso   1.000  O
  O6       1.0000 0.02040  0.93718  0.71496  Biso   1.000  O
  O7       1.0000 0.69830  0.33430  0.30540  Biso   1.000  O
  O8       1.0000 0.47960  0.22222  0.28504  Biso   1.000  O
