data_image0
_cell_length_a       29.3951
_cell_length_b       29.3951
_cell_length_c       29.4188
_cell_angle_alpha    60.0267
_cell_angle_beta     60.0267
_cell_angle_gamma    90

_symmetry_space_group_name_H-M    P 1
_symmetry_int_tables_number       1

loop_
  _symmetry_equiv_pos_as_xyz
  'x, y, z'

loop_
  _atom_site_label
  _atom_site_occupancy
  _atom_site_fract_x
  _atom_site_fract_y
  _atom_site_fract_z
  _atom_site_thermal_displace_type
  _atom_site_B_iso_or_equiv
  _atom_site_type_symbol
  Co1      1.0000 0.24154  0.50886  0.26906  Biso   1.000  Co
  Co2      1.0000 0.14435  0.51113  0.36696  Biso   1.000  Co
  Co3      1.0000 0.48940  0.22208  0.26906  Biso   1.000  Co
  Co4      1.0000 0.48869  0.12191  0.36696  Biso   1.000  Co
  Co5      1.0000 0.50886  0.48940  0.26906  Biso   1.000  Co
  Co6      1.0000 0.51113  0.48869  0.36696  Biso   1.000  Co
  Co7      1.0000 0.22208  0.24154  0.26906  Biso   1.000  Co
  Co8      1.0000 0.12191  0.14435  0.36696  Biso   1.000  Co
  Co9      1.0000 0.75846  0.49114  0.73094  Biso   1.000  Co
  Co10     1.0000 0.85565  0.48887  0.63304  Biso   1.000  Co
  Co11     1.0000 0.51060  0.77792  0.73094  Biso   1.000  Co
  Co12     1.0000 0.51131  0.87809  0.63304  Biso   1.000  Co
  Co13     1.0000 0.49114  0.51060  0.73094  Biso   1.000  Co
  Co14     1.0000 0.48887  0.51131  0.63304  Biso   1.000  Co
  Co15     1.0000 0.77792  0.75846  0.73094  Biso   1.000  Co
  Co16     1.0000 0.87809  0.85565  0.63304  Biso   1.000  Co
  Co17     1.0000 0.52208  0.86563  0.00000  Biso   1.000  Co
  Co18     1.0000 0.51883  0.76686  0.00000  Biso   1.000  Co
  Co19     1.0000 0.47792  0.13437  1.00000  Biso   1.000  Co
  Co20     1.0000 0.48117  0.23314  0.00000  Biso   1.000  Co
  Co21     1.0000 0.86563  0.47792  0.00000  Biso   1.000  Co
  Co22     1.0000 0.76686  0.48117  0.00000  Biso   1.000  Co
  Co23     1.0000 0.13437  0.52208  0.00000  Biso   1.000  Co
  Co24     1.0000 0.23314  0.51883  0.00000  Biso   1.000  Co
  H1       1.0000 0.69090  0.82010  0.84220  Biso   1.000  H
  H2       1.0000 0.65030  0.31830  0.85100  Biso   1.000  H
  H3       1.0000 0.17210  0.34390  0.34160  Biso   1.000  H
  H4       1.0000 0.84290  0.94190  0.73560  Biso   1.000  H
  H5       1.0000 0.70130  0.94090  0.87000  Biso   1.000  H
  H6       1.0000 0.66170  0.17400  0.87040  Biso   1.000  H
  H7       1.0000 0.78300  0.32330  0.70360  Biso   1.000  H
  H8       1.0000 0.05180  0.32690  0.50660  Biso   1.000  H
  H9       1.0000 0.05110  0.19530  0.49780  Biso   1.000  H
  H10      1.0000 0.77320  0.01300  0.84240  Biso   1.000  H
  H11      1.0000 0.74330  0.03080  0.80560  Biso   1.000  H
  H12      1.0000 0.98800  0.15180  0.62000  Biso   1.000  H
  H13      1.0000 0.96600  0.16550  0.57600  Biso   1.000  H
  H14      1.0000 0.83540  0.22440  0.76680  Biso   1.000  H
  H15      1.0000 0.83670  0.26090  0.70300  Biso   1.000  H
  H16      1.0000 0.91830  0.23250  0.64360  Biso   1.000  H
  H17      1.0000 0.76660  0.11680  0.80000  Biso   1.000  H
  H18      1.0000 0.88640  0.07400  0.69660  Biso   1.000  H
  H19      1.0000 0.46690  0.33770  0.84220  Biso   1.000  H
  H20      1.0000 0.49870  0.83070  0.85100  Biso   1.000  H
  H21      1.0000 0.48630  0.31450  0.34160  Biso   1.000  H
  H22      1.0000 0.42150  0.32250  0.73560  Biso   1.000  H
  H23      1.0000 0.42870  0.18910  0.87000  Biso   1.000  H
  H24      1.0000 0.46790  0.95560  0.87040  Biso   1.000  H
  H25      1.0000 0.51340  0.97310  0.70360  Biso   1.000  H
  H26      1.0000 0.44160  0.16650  0.50660  Biso   1.000  H
  H27      1.0000 0.45110  0.30690  0.49780  Biso   1.000  H
  H28      1.0000 0.38440  0.14460  0.84240  Biso   1.000  H
  H29      1.0000 0.45110  0.16360  0.80560  Biso   1.000  H
  H30      1.0000 0.39200  0.22820  0.62000  Biso   1.000  H
  H31      1.0000 0.45800  0.25850  0.57600  Biso   1.000  H
  H32      1.0000 0.39780  0.00880  0.76680  Biso   1.000  H
  H33      1.0000 0.46030  0.03610  0.70300  Biso   1.000  H
  H34      1.0000 0.43810  0.12390  0.64360  Biso   1.000  H
  H35      1.0000 0.43340  0.08320  0.80000  Biso   1.000  H
  H36      1.0000 0.41700  0.22940  0.69660  Biso   1.000  H
  H37      1.0000 0.82010  0.46690  0.84220  Biso   1.000  H
  H38      1.0000 0.31830  0.49870  0.85100  Biso   1.000  H
  H39      1.0000 0.34390  0.48630  0.34160  Biso   1.000  H
  H40      1.0000 0.94190  0.42150  0.73560  Biso   1.000  H
  H41      1.0000 0.94090  0.42870  0.87000  Biso   1.000  H
  H42      1.0000 0.17400  0.46790  0.87040  Biso   1.000  H
  H43      1.0000 0.32330  0.51340  0.70360  Biso   1.000  H
  H44      1.0000 0.32690  0.44160  0.50660  Biso   1.000  H
  H45      1.0000 0.19530  0.45110  0.49780  Biso   1.000  H
  H46      1.0000 0.01300  0.38440  0.84240  Biso   1.000  H
  H47      1.0000 0.03080  0.45110  0.80560  Biso   1.000  H
  H48      1.0000 0.15180  0.39200  0.62000  Biso   1.000  H
  H49      1.0000 0.16550  0.45800  0.57600  Biso   1.000  H
  H50      1.0000 0.22440  0.39780  0.76680  Biso   1.000  H
  H51      1.0000 0.26090  0.46030  0.70300  Biso   1.000  H
  H52      1.0000 0.23250  0.43810  0.64360  Biso   1.000  H
  H53      1.0000 0.11680  0.43340  0.80000  Biso   1.000  H
  H54      1.0000 0.07400  0.41700  0.69660  Biso   1.000  H
  H55      1.0000 0.33770  0.69090  0.84220  Biso   1.000  H
  H56      1.0000 0.83070  0.65030  0.85100  Biso   1.000  H
  H57      1.0000 0.31450  0.17210  0.34160  Biso   1.000  H
  H58      1.0000 0.32250  0.84290  0.73560  Biso   1.000  H
  H59      1.0000 0.18910  0.70130  0.87000  Biso   1.000  H
  H60      1.0000 0.95560  0.66170  0.87040  Biso   1.000  H
  H61      1.0000 0.97310  0.78300  0.70360  Biso   1.000  H
  H62      1.0000 0.16650  0.05180  0.50660  Biso   1.000  H
  H63      1.0000 0.30690  0.05110  0.49780  Biso   1.000  H
  H64      1.0000 0.14460  0.77320  0.84240  Biso   1.000  H
  H65      1.0000 0.16360  0.74330  0.80560  Biso   1.000  H
  H66      1.0000 0.22820  0.98800  0.62000  Biso   1.000  H
  H67      1.0000 0.25850  0.96600  0.57600  Biso   1.000  H
  H68      1.0000 0.00880  0.83540  0.76680  Biso   1.000  H
  H69      1.0000 0.03610  0.83670  0.70300  Biso   1.000  H
  H70      1.0000 0.12390  0.91830  0.64360  Biso   1.000  H
  H71      1.0000 0.08320  0.76660  0.80000  Biso   1.000  H
  H72      1.0000 0.22940  0.88640  0.69660  Biso   1.000  H
  H73      1.0000 0.30910  0.17990  0.15780  Biso   1.000  H
  H74      1.0000 0.34970  0.68170  0.14900  Biso   1.000  H
  H75      1.0000 0.82790  0.65610  0.65840  Biso   1.000  H
  H76      1.0000 0.15710  0.05810  0.26440  Biso   1.000  H
  H77      1.0000 0.29870  0.05910  0.13000  Biso   1.000  H
  H78      1.0000 0.33830  0.82600  0.12960  Biso   1.000  H
  H79      1.0000 0.21700  0.67670  0.29640  Biso   1.000  H
  H80      1.0000 0.94820  0.67310  0.49340  Biso   1.000  H
  H81      1.0000 0.94890  0.80470  0.50220  Biso   1.000  H
  H82      1.0000 0.22680  0.98700  0.15760  Biso   1.000  H
  H83      1.0000 0.25670  0.96920  0.19440  Biso   1.000  H
  H84      1.0000 0.01200  0.84820  0.38000  Biso   1.000  H
  H85      1.0000 0.03400  0.83450  0.42400  Biso   1.000  H
  H86      1.0000 0.16460  0.77560  0.23320  Biso   1.000  H
  H87      1.0000 0.16330  0.73910  0.29700  Biso   1.000  H
  H88      1.0000 0.08170  0.76750  0.35640  Biso   1.000  H
  H89      1.0000 0.23340  0.88320  0.20000  Biso   1.000  H
  H90      1.0000 0.11360  0.92600  0.30340  Biso   1.000  H
  H91      1.0000 0.53310  0.66230  0.15780  Biso   1.000  H
  H92      1.0000 0.50130  0.16930  0.14900  Biso   1.000  H
  H93      1.0000 0.51370  0.68550  0.65840  Biso   1.000  H
  H94      1.0000 0.57850  0.67750  0.26440  Biso   1.000  H
  H95      1.0000 0.57130  0.81090  0.13000  Biso   1.000  H
  H96      1.0000 0.53210  0.04440  0.12960  Biso   1.000  H
  H97      1.0000 0.48660  0.02690  0.29640  Biso   1.000  H
  H98      1.0000 0.55840  0.83350  0.49340  Biso   1.000  H
  H99      1.0000 0.54890  0.69310  0.50220  Biso   1.000  H
  H100     1.0000 0.61560  0.85540  0.15760  Biso   1.000  H
  H101     1.0000 0.54890  0.83640  0.19440  Biso   1.000  H
  H102     1.0000 0.60800  0.77180  0.38000  Biso   1.000  H
  H103     1.0000 0.54200  0.74150  0.42400  Biso   1.000  H
  H104     1.0000 0.60220  0.99120  0.23320  Biso   1.000  H
  H105     1.0000 0.53970  0.96390  0.29700  Biso   1.000  H
  H106     1.0000 0.56190  0.87610  0.35640  Biso   1.000  H
  H107     1.0000 0.56660  0.91680  0.20000  Biso   1.000  H
  H108     1.0000 0.58300  0.77060  0.30340  Biso   1.000  H
  H109     1.0000 0.17990  0.53310  0.15780  Biso   1.000  H
  H110     1.0000 0.68170  0.50130  0.14900  Biso   1.000  H
  H111     1.0000 0.65610  0.51370  0.65840  Biso   1.000  H
  H112     1.0000 0.05810  0.57850  0.26440  Biso   1.000  H
  H113     1.0000 0.05910  0.57130  0.13000  Biso   1.000  H
  H114     1.0000 0.82600  0.53210  0.12960  Biso   1.000  H
  H115     1.0000 0.67670  0.48660  0.29640  Biso   1.000  H
  H116     1.0000 0.67310  0.55840  0.49340  Biso   1.000  H
  H117     1.0000 0.80470  0.54890  0.50220  Biso   1.000  H
  H118     1.0000 0.98700  0.61560  0.15760  Biso   1.000  H
  H119     1.0000 0.96920  0.54890  0.19440  Biso   1.000  H
  H120     1.0000 0.84820  0.60800  0.38000  Biso   1.000  H
  H121     1.0000 0.83450  0.54200  0.42400  Biso   1.000  H
  H122     1.0000 0.77560  0.60220  0.23320  Biso   1.000  H
  H123     1.0000 0.73910  0.53970  0.29700  Biso   1.000  H
  H124     1.0000 0.76750  0.56190  0.35640  Biso   1.000  H
  H125     1.0000 0.88320  0.56660  0.20000  Biso   1.000  H
  H126     1.0000 0.92600  0.58300  0.30340  Biso   1.000  H
  H127     1.0000 0.66230  0.30910  0.15780  Biso   1.000  H
  H128     1.0000 0.16930  0.34970  0.14900  Biso   1.000  H
  H129     1.0000 0.68550  0.82790  0.65840  Biso   1.000  H
  H130     1.0000 0.67750  0.15710  0.26440  Biso   1.000  H
  H131     1.0000 0.81090  0.29870  0.13000  Biso   1.000  H
  H132     1.0000 0.04440  0.33830  0.12960  Biso   1.000  H
  H133     1.0000 0.02690  0.21700  0.29640  Biso   1.000  H
  H134     1.0000 0.83350  0.94820  0.49340  Biso   1.000  H
  H135     1.0000 0.69310  0.94890  0.50220  Biso   1.000  H
  H136     1.0000 0.85540  0.22680  0.15760  Biso   1.000  H
  H137     1.0000 0.83640  0.25670  0.19440  Biso   1.000  H
  H138     1.0000 0.77180  0.01200  0.38000  Biso   1.000  H
  H139     1.0000 0.74150  0.03400  0.42400  Biso   1.000  H
  H140     1.0000 0.99120  0.16460  0.23320  Biso   1.000  H
  H141     1.0000 0.96390  0.16330  0.29700  Biso   1.000  H
  H142     1.0000 0.87610  0.08170  0.35640  Biso   1.000  H
  H143     1.0000 0.91680  0.23340  0.20000  Biso   1.000  H
  H144     1.0000 0.77060  0.11360  0.30340  Biso   1.000  H
  C1       1.0000 0.71110  0.85540  0.82720  Biso   1.000  C
  C2       1.0000 0.76660  0.88130  0.77440  Biso   1.000  C
  C3       1.0000 0.68510  0.87960  0.85780  Biso   1.000  C
  C4       1.0000 0.75410  0.38630  0.74780  Biso   1.000  C
  C5       1.0000 0.58320  0.21940  0.91240  Biso   1.000  C
  C6       1.0000 0.67060  0.29920  0.83420  Biso   1.000  C
  C7       1.0000 0.64560  0.24580  0.85960  Biso   1.000  C
  C8       1.0000 0.72670  0.32570  0.78280  Biso   1.000  C
  C9       1.0000 0.13820  0.24500  0.37300  Biso   1.000  C
  C10      1.0000 0.13870  0.40740  0.38600  Biso   1.000  C
  C11      1.0000 0.13740  0.32280  0.38240  Biso   1.000  C
  C12      1.0000 0.11190  0.34720  0.41560  Biso   1.000  C
  C13      1.0000 0.11190  0.26850  0.40940  Biso   1.000  C
  C14      1.0000 0.79250  0.85660  0.73740  Biso   1.000  C
  C15      1.0000 0.62330  0.85020  0.91100  Biso   1.000  C
  C16      1.0000 0.80350  0.92850  0.76340  Biso   1.000  C
  C17      1.0000 0.71830  0.92650  0.84520  Biso   1.000  C
  C18      1.0000 0.67810  0.21320  0.84580  Biso   1.000  C
  C19      1.0000 0.75510  0.30290  0.74860  Biso   1.000  C
  C20      1.0000 0.06630  0.31240  0.48160  Biso   1.000  C
  C21      1.0000 0.06600  0.23430  0.47620  Biso   1.000  C
  C22      1.0000 0.77350  0.94910  0.79800  Biso   1.000  C
  C23      1.0000 0.73290  0.23910  0.79700  Biso   1.000  C
  C24      1.0000 0.04380  0.25750  0.50840  Biso   1.000  C
  C25      1.0000 0.77910  0.02980  0.80040  Biso   1.000  C
  C26      1.0000 0.96730  0.17370  0.60420  Biso   1.000  C
  C27      1.0000 0.82100  0.22320  0.74320  Biso   1.000  C
  C28      1.0000 0.90880  0.15680  0.66060  Biso   1.000  C
  C29      1.0000 0.89300  0.19560  0.67200  Biso   1.000  C
  C30      1.0000 0.80360  0.12820  0.76440  Biso   1.000  C
  C31      1.0000 0.83700  0.18150  0.72800  Biso   1.000  C
  C32      1.0000 0.82280  0.08680  0.75040  Biso   1.000  C
  C33      1.0000 0.87320  0.10120  0.70300  Biso   1.000  C
  C34      1.0000 0.46170  0.31740  0.82720  Biso   1.000  C
  C35      1.0000 0.45900  0.34430  0.77440  Biso   1.000  C
  C36      1.0000 0.45710  0.26260  0.85780  Biso   1.000  C
  C37      1.0000 0.49810  0.86590  0.74780  Biso   1.000  C
  C38      1.0000 0.50440  0.86820  0.91240  Biso   1.000  C
  C39      1.0000 0.49520  0.86660  0.83420  Biso   1.000  C
  C40      1.0000 0.49480  0.89460  0.85960  Biso   1.000  C
  C41      1.0000 0.49050  0.89150  0.78280  Biso   1.000  C
  C42      1.0000 0.48880  0.38200  0.37300  Biso   1.000  C
  C43      1.0000 0.47530  0.20660  0.38600  Biso   1.000  C
  C44      1.0000 0.48020  0.29480  0.38240  Biso   1.000  C
  C45      1.0000 0.47250  0.23720  0.41560  Biso   1.000  C
  C46      1.0000 0.47870  0.32210  0.40940  Biso   1.000  C
  C47      1.0000 0.47010  0.40600  0.73740  Biso   1.000  C
  C48      1.0000 0.46570  0.23880  0.91100  Biso   1.000  C
  C49      1.0000 0.43310  0.30810  0.76340  Biso   1.000  C
  C50      1.0000 0.43650  0.22830  0.84520  Biso   1.000  C
  C51      1.0000 0.47610  0.94100  0.84580  Biso   1.000  C
  C52      1.0000 0.49630  0.94850  0.74860  Biso   1.000  C
  C53      1.0000 0.45210  0.20600  0.48160  Biso   1.000  C
  C54      1.0000 0.45780  0.28950  0.47620  Biso   1.000  C
  C55      1.0000 0.42850  0.25290  0.79800  Biso   1.000  C
  C56      1.0000 0.47010  0.96390  0.79700  Biso   1.000  C
  C57      1.0000 0.44780  0.23410  0.50840  Biso   1.000  C
  C58      1.0000 0.42050  0.16980  0.80040  Biso   1.000  C
  C59      1.0000 0.42850  0.22210  0.60420  Biso   1.000  C
  C60      1.0000 0.43580  0.03360  0.74320  Biso   1.000  C
  C61      1.0000 0.43060  0.18260  0.66060  Biso   1.000  C
  C62      1.0000 0.43500  0.13240  0.67200  Biso   1.000  C
  C63      1.0000 0.43200  0.10740  0.76440  Biso   1.000  C
  C64      1.0000 0.43500  0.09050  0.72800  Biso   1.000  C
  C65      1.0000 0.42680  0.16280  0.75040  Biso   1.000  C
  C66      1.0000 0.42380  0.19580  0.70300  Biso   1.000  C
  C67      1.0000 0.85540  0.46170  0.82720  Biso   1.000  C
  C68      1.0000 0.88130  0.45900  0.77440  Biso   1.000  C
  C69      1.0000 0.87960  0.45710  0.85780  Biso   1.000  C
  C70      1.0000 0.38630  0.49810  0.74780  Biso   1.000  C
  C71      1.0000 0.21940  0.50440  0.91240  Biso   1.000  C
  C72      1.0000 0.29920  0.49520  0.83420  Biso   1.000  C
  C73      1.0000 0.24580  0.49480  0.85960  Biso   1.000  C
  C74      1.0000 0.32570  0.49050  0.78280  Biso   1.000  C
  C75      1.0000 0.24500  0.48880  0.37300  Biso   1.000  C
  C76      1.0000 0.40740  0.47530  0.38600  Biso   1.000  C
  C77      1.0000 0.32280  0.48020  0.38240  Biso   1.000  C
  C78      1.0000 0.34720  0.47250  0.41560  Biso   1.000  C
  C79      1.0000 0.26850  0.47870  0.40940  Biso   1.000  C
  C80      1.0000 0.85660  0.47010  0.73740  Biso   1.000  C
  C81      1.0000 0.85020  0.46570  0.91100  Biso   1.000  C
  C82      1.0000 0.92850  0.43310  0.76340  Biso   1.000  C
  C83      1.0000 0.92650  0.43650  0.84520  Biso   1.000  C
  C84      1.0000 0.21320  0.47610  0.84580  Biso   1.000  C
  C85      1.0000 0.30290  0.49630  0.74860  Biso   1.000  C
  C86      1.0000 0.31240  0.45210  0.48160  Biso   1.000  C
  C87      1.0000 0.23430  0.45780  0.47620  Biso   1.000  C
  C88      1.0000 0.94910  0.42850  0.79800  Biso   1.000  C
  C89      1.0000 0.23910  0.47010  0.79700  Biso   1.000  C
  C90      1.0000 0.25750  0.44780  0.50840  Biso   1.000  C
  C91      1.0000 0.02980  0.42050  0.80040  Biso   1.000  C
  C92      1.0000 0.17370  0.42850  0.60420  Biso   1.000  C
  C93      1.0000 0.22320  0.43580  0.74320  Biso   1.000  C
  C94      1.0000 0.15680  0.43060  0.66060  Biso   1.000  C
  C95      1.0000 0.19560  0.43500  0.67200  Biso   1.000  C
  C96      1.0000 0.12820  0.43200  0.76440  Biso   1.000  C
  C97      1.0000 0.18150  0.43500  0.72800  Biso   1.000  C
  C98      1.0000 0.08680  0.42680  0.75040  Biso   1.000  C
  C99      1.0000 0.10120  0.42380  0.70300  Biso   1.000  C
  C100     1.0000 0.31740  0.71110  0.82720  Biso   1.000  C
  C101     1.0000 0.34430  0.76660  0.77440  Biso   1.000  C
  C102     1.0000 0.26260  0.68510  0.85780  Biso   1.000  C
  C103     1.0000 0.86590  0.75410  0.74780  Biso   1.000  C
  C104     1.0000 0.86820  0.58320  0.91240  Biso   1.000  C
  C105     1.0000 0.86660  0.67060  0.83420  Biso   1.000  C
  C106     1.0000 0.89460  0.64560  0.85960  Biso   1.000  C
  C107     1.0000 0.89150  0.72670  0.78280  Biso   1.000  C
  C108     1.0000 0.38200  0.13820  0.37300  Biso   1.000  C
  C109     1.0000 0.20660  0.13870  0.38600  Biso   1.000  C
  C110     1.0000 0.29480  0.13740  0.38240  Biso   1.000  C
  C111     1.0000 0.23720  0.11190  0.41560  Biso   1.000  C
  C112     1.0000 0.32210  0.11190  0.40940  Biso   1.000  C
  C113     1.0000 0.40600  0.79250  0.73740  Biso   1.000  C
  C114     1.0000 0.23880  0.62330  0.91100  Biso   1.000  C
  C115     1.0000 0.30810  0.80350  0.76340  Biso   1.000  C
  C116     1.0000 0.22830  0.71830  0.84520  Biso   1.000  C
  C117     1.0000 0.94100  0.67810  0.84580  Biso   1.000  C
  C118     1.0000 0.94850  0.75510  0.74860  Biso   1.000  C
  C119     1.0000 0.20600  0.06630  0.48160  Biso   1.000  C
  C120     1.0000 0.28950  0.06600  0.47620  Biso   1.000  C
  C121     1.0000 0.25290  0.77350  0.79800  Biso   1.000  C
  C122     1.0000 0.96390  0.73290  0.79700  Biso   1.000  C
  C123     1.0000 0.23410  0.04380  0.50840  Biso   1.000  C
  C124     1.0000 0.16980  0.77910  0.80040  Biso   1.000  C
  C125     1.0000 0.22210  0.96730  0.60420  Biso   1.000  C
  C126     1.0000 0.03360  0.82100  0.74320  Biso   1.000  C
  C127     1.0000 0.18260  0.90880  0.66060  Biso   1.000  C
  C128     1.0000 0.13240  0.89300  0.67200  Biso   1.000  C
  C129     1.0000 0.10740  0.80360  0.76440  Biso   1.000  C
  C130     1.0000 0.09050  0.83700  0.72800  Biso   1.000  C
  C131     1.0000 0.16280  0.82280  0.75040  Biso   1.000  C
  C132     1.0000 0.19580  0.87320  0.70300  Biso   1.000  C
  C133     1.0000 0.28890  0.14460  0.17280  Biso   1.000  C
  C134     1.0000 0.23340  0.11870  0.22560  Biso   1.000  C
  C135     1.0000 0.31490  0.12040  0.14220  Biso   1.000  C
  C136     1.0000 0.24590  0.61370  0.25220  Biso   1.000  C
  C137     1.0000 0.41680  0.78060  0.08760  Biso   1.000  C
  C138     1.0000 0.32940  0.70080  0.16580  Biso   1.000  C
  C139     1.0000 0.35440  0.75420  0.14040  Biso   1.000  C
  C140     1.0000 0.27330  0.67430  0.21720  Biso   1.000  C
  C141     1.0000 0.86180  0.75500  0.62700  Biso   1.000  C
  C142     1.0000 0.86130  0.59260  0.61400  Biso   1.000  C
  C143     1.0000 0.86260  0.67720  0.61760  Biso   1.000  C
  C144     1.0000 0.88810  0.65280  0.58440  Biso   1.000  C
  C145     1.0000 0.88810  0.73150  0.59060  Biso   1.000  C
  C146     1.0000 0.20750  0.14340  0.26260  Biso   1.000  C
  C147     1.0000 0.37670  0.14980  0.08900  Biso   1.000  C
  C148     1.0000 0.19650  0.07150  0.23660  Biso   1.000  C
  C149     1.0000 0.28170  0.07350  0.15480  Biso   1.000  C
  C150     1.0000 0.32190  0.78680  0.15420  Biso   1.000  C
  C151     1.0000 0.24490  0.69710  0.25140  Biso   1.000  C
  C152     1.0000 0.93370  0.68760  0.51840  Biso   1.000  C
  C153     1.0000 0.93400  0.76570  0.52380  Biso   1.000  C
  C154     1.0000 0.22650  0.05090  0.20200  Biso   1.000  C
  C155     1.0000 0.26710  0.76090  0.20300  Biso   1.000  C
  C156     1.0000 0.95620  0.74250  0.49160  Biso   1.000  C
  C157     1.0000 0.22090  0.97020  0.19960  Biso   1.000  C
  C158     1.0000 0.03270  0.82630  0.39580  Biso   1.000  C
  C159     1.0000 0.17900  0.77680  0.25680  Biso   1.000  C
  C160     1.0000 0.09120  0.84320  0.33940  Biso   1.000  C
  C161     1.0000 0.10700  0.80440  0.32800  Biso   1.000  C
  C162     1.0000 0.19640  0.87180  0.23560  Biso   1.000  C
  C163     1.0000 0.16300  0.81850  0.27200  Biso   1.000  C
  C164     1.0000 0.17720  0.91320  0.24960  Biso   1.000  C
  C165     1.0000 0.12680  0.89880  0.29700  Biso   1.000  C
  C166     1.0000 0.53830  0.68260  0.17280  Biso   1.000  C
  C167     1.0000 0.54100  0.65570  0.22560  Biso   1.000  C
  C168     1.0000 0.54290  0.73740  0.14220  Biso   1.000  C
  C169     1.0000 0.50190  0.13410  0.25220  Biso   1.000  C
  C170     1.0000 0.49560  0.13180  0.08760  Biso   1.000  C
  C171     1.0000 0.50480  0.13340  0.16580  Biso   1.000  C
  C172     1.0000 0.50520  0.10540  0.14040  Biso   1.000  C
  C173     1.0000 0.50950  0.10850  0.21720  Biso   1.000  C
  C174     1.0000 0.51120  0.61800  0.62700  Biso   1.000  C
  C175     1.0000 0.52470  0.79340  0.61400  Biso   1.000  C
  C176     1.0000 0.51980  0.70520  0.61760  Biso   1.000  C
  C177     1.0000 0.52750  0.76280  0.58440  Biso   1.000  C
  C178     1.0000 0.52130  0.67790  0.59060  Biso   1.000  C
  C179     1.0000 0.52990  0.59400  0.26260  Biso   1.000  C
  C180     1.0000 0.53430  0.76120  0.08900  Biso   1.000  C
  C181     1.0000 0.56690  0.69190  0.23660  Biso   1.000  C
  C182     1.0000 0.56350  0.77170  0.15480  Biso   1.000  C
  C183     1.0000 0.52390  0.05900  0.15420  Biso   1.000  C
  C184     1.0000 0.50370  0.05150  0.25140  Biso   1.000  C
  C185     1.0000 0.54790  0.79400  0.51840  Biso   1.000  C
  C186     1.0000 0.54220  0.71050  0.52380  Biso   1.000  C
  C187     1.0000 0.57150  0.74710  0.20200  Biso   1.000  C
  C188     1.0000 0.52990  0.03610  0.20300  Biso   1.000  C
  C189     1.0000 0.55220  0.76590  0.49160  Biso   1.000  C
  C190     1.0000 0.57950  0.83020  0.19960  Biso   1.000  C
  C191     1.0000 0.57150  0.77790  0.39580  Biso   1.000  C
  C192     1.0000 0.56420  0.96640  0.25680  Biso   1.000  C
  C193     1.0000 0.56940  0.81740  0.33940  Biso   1.000  C
  C194     1.0000 0.56500  0.86760  0.32800  Biso   1.000  C
  C195     1.0000 0.56800  0.89260  0.23560  Biso   1.000  C
  C196     1.0000 0.56500  0.90950  0.27200  Biso   1.000  C
  C197     1.0000 0.57320  0.83720  0.24960  Biso   1.000  C
  C198     1.0000 0.57620  0.80420  0.29700  Biso   1.000  C
  C199     1.0000 0.14460  0.53830  0.17280  Biso   1.000  C
  C200     1.0000 0.11870  0.54100  0.22560  Biso   1.000  C
  C201     1.0000 0.12040  0.54290  0.14220  Biso   1.000  C
  C202     1.0000 0.61370  0.50190  0.25220  Biso   1.000  C
  C203     1.0000 0.78060  0.49560  0.08760  Biso   1.000  C
  C204     1.0000 0.70080  0.50480  0.16580  Biso   1.000  C
  C205     1.0000 0.75420  0.50520  0.14040  Biso   1.000  C
  C206     1.0000 0.67430  0.50950  0.21720  Biso   1.000  C
  C207     1.0000 0.75500  0.51120  0.62700  Biso   1.000  C
  C208     1.0000 0.59260  0.52470  0.61400  Biso   1.000  C
  C209     1.0000 0.67720  0.51980  0.61760  Biso   1.000  C
  C210     1.0000 0.65280  0.52750  0.58440  Biso   1.000  C
  C211     1.0000 0.73150  0.52130  0.59060  Biso   1.000  C
  C212     1.0000 0.14340  0.52990  0.26260  Biso   1.000  C
  C213     1.0000 0.14980  0.53430  0.08900  Biso   1.000  C
  C214     1.0000 0.07150  0.56690  0.23660  Biso   1.000  C
  C215     1.0000 0.07350  0.56350  0.15480  Biso   1.000  C
  C216     1.0000 0.78680  0.52390  0.15420  Biso   1.000  C
  C217     1.0000 0.69710  0.50370  0.25140  Biso   1.000  C
  C218     1.0000 0.68760  0.54790  0.51840  Biso   1.000  C
  C219     1.0000 0.76570  0.54220  0.52380  Biso   1.000  C
  C220     1.0000 0.05090  0.57150  0.20200  Biso   1.000  C
  C221     1.0000 0.76090  0.52990  0.20300  Biso   1.000  C
  C222     1.0000 0.74250  0.55220  0.49160  Biso   1.000  C
  C223     1.0000 0.97020  0.57950  0.19960  Biso   1.000  C
  C224     1.0000 0.82630  0.57150  0.39580  Biso   1.000  C
  C225     1.0000 0.77680  0.56420  0.25680  Biso   1.000  C
  C226     1.0000 0.84320  0.56940  0.33940  Biso   1.000  C
  C227     1.0000 0.80440  0.56500  0.32800  Biso   1.000  C
  C228     1.0000 0.87180  0.56800  0.23560  Biso   1.000  C
  C229     1.0000 0.81850  0.56500  0.27200  Biso   1.000  C
  C230     1.0000 0.91320  0.57320  0.24960  Biso   1.000  C
  C231     1.0000 0.89880  0.57620  0.29700  Biso   1.000  C
  C232     1.0000 0.68260  0.28890  0.17280  Biso   1.000  C
  C233     1.0000 0.65570  0.23340  0.22560  Biso   1.000  C
  C234     1.0000 0.73740  0.31490  0.14220  Biso   1.000  C
  C235     1.0000 0.13410  0.24590  0.25220  Biso   1.000  C
  C236     1.0000 0.13180  0.41680  0.08760  Biso   1.000  C
  C237     1.0000 0.13340  0.32940  0.16580  Biso   1.000  C
  C238     1.0000 0.10540  0.35440  0.14040  Biso   1.000  C
  C239     1.0000 0.10850  0.27330  0.21720  Biso   1.000  C
  C240     1.0000 0.61800  0.86180  0.62700  Biso   1.000  C
  C241     1.0000 0.79340  0.86130  0.61400  Biso   1.000  C
  C242     1.0000 0.70520  0.86260  0.61760  Biso   1.000  C
  C243     1.0000 0.76280  0.88810  0.58440  Biso   1.000  C
  C244     1.0000 0.67790  0.88810  0.59060  Biso   1.000  C
  C245     1.0000 0.59400  0.20750  0.26260  Biso   1.000  C
  C246     1.0000 0.76120  0.37670  0.08900  Biso   1.000  C
  C247     1.0000 0.69190  0.19650  0.23660  Biso   1.000  C
  C248     1.0000 0.77170  0.28170  0.15480  Biso   1.000  C
  C249     1.0000 0.05900  0.32190  0.15420  Biso   1.000  C
  C250     1.0000 0.05150  0.24490  0.25140  Biso   1.000  C
  C251     1.0000 0.79400  0.93370  0.51840  Biso   1.000  C
  C252     1.0000 0.71050  0.93400  0.52380  Biso   1.000  C
  C253     1.0000 0.74710  0.22650  0.20200  Biso   1.000  C
  C254     1.0000 0.03610  0.26710  0.20300  Biso   1.000  C
  C255     1.0000 0.76590  0.95620  0.49160  Biso   1.000  C
  C256     1.0000 0.83020  0.22090  0.19960  Biso   1.000  C
  C257     1.0000 0.77790  0.03270  0.39580  Biso   1.000  C
  C258     1.0000 0.96640  0.17900  0.25680  Biso   1.000  C
  C259     1.0000 0.81740  0.09120  0.33940  Biso   1.000  C
  C260     1.0000 0.86760  0.10700  0.32800  Biso   1.000  C
  C261     1.0000 0.89260  0.19640  0.23560  Biso   1.000  C
  C262     1.0000 0.90950  0.16300  0.27200  Biso   1.000  C
  C263     1.0000 0.83720  0.17720  0.24960  Biso   1.000  C
  C264     1.0000 0.80420  0.12680  0.29700  Biso   1.000  C
  O1       1.0000 0.18709  0.43069  0.33422  Biso   1.000  O
  O2       1.0000 0.11155  0.42945  0.41170  Biso   1.000  O
  O3       1.0000 0.10942  0.19612  0.39636  Biso   1.000  O
  O4       1.0000 0.18705  0.27155  0.32230  Biso   1.000  O
  O5       1.0000 0.80260  0.40920  0.69760  Biso   1.000  O
  O6       1.0000 0.72770  0.40940  0.77260  Biso   1.000  O
  O7       1.0000 0.84266  0.88536  0.68528  Biso   1.000  O
  O8       1.0000 0.76570  0.80870  0.76120  Biso   1.000  O
  O9       1.0000 0.60118  0.88008  0.93364  Biso   1.000  O
  O10      1.0000 0.60001  0.80341  0.93218  Biso   1.000  O
  O11      1.0000 0.55990  0.17020  0.93260  Biso   1.000  O
  O12      1.0000 0.56043  0.24693  0.93254  Biso   1.000  O
  O13      1.0000 0.29230  0.49480  0.20320  Biso   1.000  O
  O14      1.0000 0.08920  0.52320  0.43640  Biso   1.000  O
  O15      1.0000 0.54480  0.94040  0.98360  Biso   1.000  O
  O16      1.0000 0.80440  0.00090  0.77240  Biso   1.000  O
  O17      1.0000 0.99510  0.23110  0.56900  Biso   1.000  O
  O18      1.0000 0.76130  0.20520  0.78200  Biso   1.000  O
  O19      1.0000 0.47869  0.23509  0.33422  Biso   1.000  O
  O20      1.0000 0.47675  0.15885  0.41170  Biso   1.000  O
  O21      1.0000 0.49422  0.40752  0.39636  Biso   1.000  O
  O22      1.0000 0.49065  0.40615  0.32230  Biso   1.000  O
  O23      1.0000 0.49980  0.89320  0.69760  Biso   1.000  O
  O24      1.0000 0.49970  0.81800  0.77260  Biso   1.000  O
  O25      1.0000 0.47206  0.42936  0.68528  Biso   1.000  O
  O26      1.0000 0.47310  0.43010  0.76120  Biso   1.000  O
  O27      1.0000 0.46518  0.18628  0.93364  Biso   1.000  O
  O28      1.0000 0.46781  0.26441  0.93218  Biso   1.000  O
  O29      1.0000 0.50750  0.89720  0.93260  Biso   1.000  O
  O30      1.0000 0.50703  0.82053  0.93254  Biso   1.000  O
  O31      1.0000 0.50450  0.30200  0.20320  Biso   1.000  O
  O32      1.0000 0.47440  0.04040  0.43640  Biso   1.000  O
  O33      1.0000 0.47160  0.07600  0.98360  Biso   1.000  O
  O34      1.0000 0.42320  0.22670  0.77240  Biso   1.000  O
  O35      1.0000 0.43590  0.19990  0.56900  Biso   1.000  O
  O36      1.0000 0.45670  0.01280  0.78200  Biso   1.000  O
  O37      1.0000 0.43069  0.47869  0.33422  Biso   1.000  O
  O38      1.0000 0.42945  0.47675  0.41170  Biso   1.000  O
  O39      1.0000 0.19612  0.49422  0.39636  Biso   1.000  O
  O40      1.0000 0.27155  0.49065  0.32230  Biso   1.000  O
  O41      1.0000 0.40920  0.49980  0.69760  Biso   1.000  O
  O42      1.0000 0.40940  0.49970  0.77260  Biso   1.000  O
  O43      1.0000 0.88536  0.47206  0.68528  Biso   1.000  O
  O44      1.0000 0.80870  0.47310  0.76120  Biso   1.000  O
  O45      1.0000 0.88008  0.46518  0.93364  Biso   1.000  O
  O46      1.0000 0.80341  0.46781  0.93218  Biso   1.000  O
  O47      1.0000 0.17020  0.50750  0.93260  Biso   1.000  O
  O48      1.0000 0.24693  0.50703  0.93254  Biso   1.000  O
  O49      1.0000 0.49480  0.50450  0.20320  Biso   1.000  O
  O50      1.0000 0.52320  0.47440  0.43640  Biso   1.000  O
  O51      1.0000 0.94040  0.47160  0.98360  Biso   1.000  O
  O52      1.0000 0.00090  0.42320  0.77240  Biso   1.000  O
  O53      1.0000 0.23110  0.43590  0.56900  Biso   1.000  O
  O54      1.0000 0.20520  0.45670  0.78200  Biso   1.000  O
  O55      1.0000 0.23509  0.18709  0.33422  Biso   1.000  O
  O56      1.0000 0.15885  0.11155  0.41170  Biso   1.000  O
  O57      1.0000 0.40752  0.10942  0.39636  Biso   1.000  O
  O58      1.0000 0.40615  0.18705  0.32230  Biso   1.000  O
  O59      1.0000 0.89320  0.80260  0.69760  Biso   1.000  O
  O60      1.0000 0.81800  0.72770  0.77260  Biso   1.000  O
  O61      1.0000 0.42936  0.84266  0.68528  Biso   1.000  O
  O62      1.0000 0.43010  0.76570  0.76120  Biso   1.000  O
  O63      1.0000 0.18628  0.60118  0.93364  Biso   1.000  O
  O64      1.0000 0.26441  0.60001  0.93218  Biso   1.000  O
  O65      1.0000 0.89720  0.55990  0.93260  Biso   1.000  O
  O66      1.0000 0.82053  0.56043  0.93254  Biso   1.000  O
  O67      1.0000 0.30200  0.29230  0.20320  Biso   1.000  O
  O68      1.0000 0.04040  0.08920  0.43640  Biso   1.000  O
  O69      1.0000 0.07600  0.54480  0.98360  Biso   1.000  O
  O70      1.0000 0.22670  0.80440  0.77240  Biso   1.000  O
  O71      1.0000 0.19990  0.99510  0.56900  Biso   1.000  O
  O72      1.0000 0.01280  0.76130  0.78200  Biso   1.000  O
  O73      1.0000 0.81291  0.56931  0.66578  Biso   1.000  O
  O74      1.0000 0.88845  0.57055  0.58830  Biso   1.000  O
  O75      1.0000 0.89058  0.80388  0.60364  Biso   1.000  O
  O76      1.0000 0.81295  0.72845  0.67770  Biso   1.000  O
  O77      1.0000 0.19740  0.59080  0.30240  Biso   1.000  O
  O78      1.0000 0.27230  0.59060  0.22740  Biso   1.000  O
  O79      1.0000 0.15734  0.11464  0.31472  Biso   1.000  O
  O80      1.0000 0.23430  0.19130  0.23880  Biso   1.000  O
  O81      1.0000 0.39882  0.11992  0.06636  Biso   1.000  O
  O82      1.0000 0.39999  0.19659  0.06782  Biso   1.000  O
  O83      1.0000 0.44010  0.82980  0.06740  Biso   1.000  O
  O84      1.0000 0.43957  0.75307  0.06746  Biso   1.000  O
  O85      1.0000 0.70770  0.50520  0.79680  Biso   1.000  O
  O86      1.0000 0.91080  0.47680  0.56360  Biso   1.000  O
  O87      1.0000 0.45520  0.05960  0.01640  Biso   1.000  O
  O88      1.0000 0.19560  0.99910  0.22760  Biso   1.000  O
  O89      1.0000 0.00490  0.76890  0.43100  Biso   1.000  O
  O90      1.0000 0.23870  0.79480  0.21800  Biso   1.000  O
  O91      1.0000 0.52131  0.76491  0.66578  Biso   1.000  O
  O92      1.0000 0.52325  0.84115  0.58830  Biso   1.000  O
  O93      1.0000 0.50578  0.59248  0.60364  Biso   1.000  O
  O94      1.0000 0.50935  0.59385  0.67770  Biso   1.000  O
  O95      1.0000 0.50020  0.10680  0.30240  Biso   1.000  O
  O96      1.0000 0.50030  0.18200  0.22740  Biso   1.000  O
  O97      1.0000 0.52794  0.57064  0.31472  Biso   1.000  O
  O98      1.0000 0.52690  0.56990  0.23880  Biso   1.000  O
  O99      1.0000 0.53482  0.81372  0.06636  Biso   1.000  O
  O100     1.0000 0.53219  0.73559  0.06782  Biso   1.000  O
  O101     1.0000 0.49250  0.10280  0.06740  Biso   1.000  O
  O102     1.0000 0.49297  0.17947  0.06746  Biso   1.000  O
  O103     1.0000 0.49550  0.69800  0.79680  Biso   1.000  O
  O104     1.0000 0.52560  0.95960  0.56360  Biso   1.000  O
  O105     1.0000 0.52840  0.92400  0.01640  Biso   1.000  O
  O106     1.0000 0.57680  0.77330  0.22760  Biso   1.000  O
  O107     1.0000 0.56410  0.80010  0.43100  Biso   1.000  O
  O108     1.0000 0.54330  0.98720  0.21800  Biso   1.000  O
  O109     1.0000 0.56931  0.52131  0.66578  Biso   1.000  O
  O110     1.0000 0.57055  0.52325  0.58830  Biso   1.000  O
  O111     1.0000 0.80388  0.50578  0.60364  Biso   1.000  O
  O112     1.0000 0.72845  0.50935  0.67770  Biso   1.000  O
  O113     1.0000 0.59080  0.50020  0.30240  Biso   1.000  O
  O114     1.0000 0.59060  0.50030  0.22740  Biso   1.000  O
  O115     1.0000 0.11464  0.52794  0.31472  Biso   1.000  O
  O116     1.0000 0.19130  0.52690  0.23880  Biso   1.000  O
  O117     1.0000 0.11992  0.53482  0.06636  Biso   1.000  O
  O118     1.0000 0.19659  0.53219  0.06782  Biso   1.000  O
  O119     1.0000 0.82980  0.49250  0.06740  Biso   1.000  O
  O120     1.0000 0.75307  0.49297  0.06746  Biso   1.000  O
  O121     1.0000 0.50520  0.49550  0.79680  Biso   1.000  O
  O122     1.0000 0.47680  0.52560  0.56360  Biso   1.000  O
  O123     1.0000 0.05960  0.52840  0.01640  Biso   1.000  O
  O124     1.0000 0.99910  0.57680  0.22760  Biso   1.000  O
  O125     1.0000 0.76890  0.56410  0.43100  Biso   1.000  O
  O126     1.0000 0.79480  0.54330  0.21800  Biso   1.000  O
  O127     1.0000 0.76491  0.81291  0.66578  Biso   1.000  O
  O128     1.0000 0.84115  0.88845  0.58830  Biso   1.000  O
  O129     1.0000 0.59248  0.89058  0.60364  Biso   1.000  O
  O130     1.0000 0.59385  0.81295  0.67770  Biso   1.000  O
  O131     1.0000 0.10680  0.19740  0.30240  Biso   1.000  O
  O132     1.0000 0.18200  0.27230  0.22740  Biso   1.000  O
  O133     1.0000 0.57064  0.15734  0.31472  Biso   1.000  O
  O134     1.0000 0.56990  0.23430  0.23880  Biso   1.000  O
  O135     1.0000 0.81372  0.39882  0.06636  Biso   1.000  O
  O136     1.0000 0.73559  0.39999  0.06782  Biso   1.000  O
  O137     1.0000 0.10280  0.44010  0.06740  Biso   1.000  O
  O138     1.0000 0.17947  0.43957  0.06746  Biso   1.000  O
  O139     1.0000 0.69800  0.70770  0.79680  Biso   1.000  O
  O140     1.0000 0.95960  0.91080  0.56360  Biso   1.000  O
  O141     1.0000 0.92400  0.45520  0.01640  Biso   1.000  O
  O142     1.0000 0.77330  0.19560  0.22760  Biso   1.000  O
  O143     1.0000 0.80010  0.00490  0.43100  Biso   1.000  O
  O144     1.0000 0.98720  0.23870  0.21800  Biso   1.000  O
  O145     1.0000 0.50450  0.69770  0.00000  Biso   1.000  O
  O146     1.0000 0.49550  0.30230  0.00000  Biso   1.000  O
  O147     1.0000 0.69770  0.49550  1.00000  Biso   1.000  O
  O148     1.0000 0.30230  0.50450  0.00000  Biso   1.000  O
