data_image0
_cell_length_a       7.16678
_cell_length_b       9.8524
_cell_length_c       12.3722
_cell_angle_alpha    91.2854
_cell_angle_beta     106.836
_cell_angle_gamma    85.5579

_symmetry_space_group_name_H-M    P 1
_symmetry_int_tables_number       1

loop_
  _symmetry_equiv_pos_as_xyz
  'x, y, z'

loop_
  _atom_site_label
  _atom_site_occupancy
  _atom_site_fract_x
  _atom_site_fract_y
  _atom_site_fract_z
  _atom_site_thermal_displace_type
  _atom_site_B_iso_or_equiv
  _atom_site_type_symbol
  Co1      1.0000 0.50000  0.50000  0.50000  Biso   1.000  Co
  Co2      1.0000 0.00000  0.50000  0.50000  Biso   1.000  Co
  H1       1.0000 0.54780  0.14320  0.63420  Biso   1.000  H
  H2       1.0000 0.10430  0.08770  0.63040  Biso   1.000  H
  H3       1.0000 0.50190  0.30230  0.08660  Biso   1.000  H
  H4       1.0000 0.59690  0.30480  0.28040  Biso   1.000  H
  H5       1.0000 0.08640  0.85680  0.63420  Biso   1.000  H
  H6       1.0000 0.52610  0.91230  0.63040  Biso   1.000  H
  H7       1.0000 0.58470  0.69770  0.08660  Biso   1.000  H
  H8       1.0000 0.68350  0.69520  0.28040  Biso   1.000  H
  H9       1.0000 0.45220  0.85680  0.36580  Biso   1.000  H
  H10      1.0000 0.89570  0.91230  0.36960  Biso   1.000  H
  H11      1.0000 0.49810  0.69770  0.91340  Biso   1.000  H
  H12      1.0000 0.40310  0.69520  0.71960  Biso   1.000  H
  H13      1.0000 0.91360  0.14320  0.36580  Biso   1.000  H
  H14      1.0000 0.47390  0.08770  0.36960  Biso   1.000  H
  H15      1.0000 0.41530  0.30230  0.91340  Biso   1.000  H
  H16      1.0000 0.31650  0.30480  0.71960  Biso   1.000  H
  C1       1.0000 0.82627  0.14150  0.62854  Biso   1.000  C
  C2       1.0000 0.65550  0.08580  0.63140  Biso   1.000  C
  C3       1.0000 0.98720  0.05290  0.63020  Biso   1.000  C
  C4       1.0000 0.82804  0.29170  0.61108  Biso   1.000  C
  C5       1.0000 0.53750  0.38310  0.12460  Biso   1.000  C
  C6       1.0000 0.59479  0.38400  0.24038  Biso   1.000  C
  C7       1.0000 0.80227  0.85850  0.62854  Biso   1.000  C
  C8       1.0000 0.97590  0.91420  0.63140  Biso   1.000  C
  C9       1.0000 0.64300  0.94710  0.63020  Biso   1.000  C
  C10      1.0000 0.78304  0.70830  0.61108  Biso   1.000  C
  C11      1.0000 0.58710  0.61690  0.12460  Biso   1.000  C
  C12      1.0000 0.64559  0.61600  0.24038  Biso   1.000  C
  C13      1.0000 0.17373  0.85850  0.37146  Biso   1.000  C
  C14      1.0000 0.34450  0.91420  0.36860  Biso   1.000  C
  C15      1.0000 0.01280  0.94710  0.36980  Biso   1.000  C
  C16      1.0000 0.17196  0.70830  0.38892  Biso   1.000  C
  C17      1.0000 0.46250  0.61690  0.87540  Biso   1.000  C
  C18      1.0000 0.40521  0.61600  0.75962  Biso   1.000  C
  C19      1.0000 0.19773  0.14150  0.37146  Biso   1.000  C
  C20      1.0000 0.02410  0.08580  0.36860  Biso   1.000  C
  C21      1.0000 0.35700  0.05290  0.36980  Biso   1.000  C
  C22      1.0000 0.21696  0.29170  0.38892  Biso   1.000  C
  C23      1.0000 0.41290  0.38310  0.87540  Biso   1.000  C
  C24      1.0000 0.35441  0.38400  0.75962  Biso   1.000  C
  C25      1.0000 0.53140  0.50000  0.06280  Biso   1.000  C
  C26      1.0000 0.46860  0.50000  0.93720  Biso   1.000  C
  N1       1.0000 0.64770  0.50000  0.29540  Biso   1.000  N
  N2       1.0000 0.35230  0.50000  0.70460  Biso   1.000  N
  O1       1.0000 0.68254  0.36640  0.61928  Biso   1.000  O
  O2       1.0000 0.97499  0.33000  0.58718  Biso   1.000  O
  O3       1.0000 0.93674  0.63360  0.61928  Biso   1.000  O
  O4       1.0000 0.61219  0.67000  0.58718  Biso   1.000  O
  O5       1.0000 0.31746  0.63360  0.38072  Biso   1.000  O
  O6       1.0000 0.02501  0.67000  0.41282  Biso   1.000  O
  O7       1.0000 0.06326  0.36640  0.38072  Biso   1.000  O
  O8       1.0000 0.38781  0.33000  0.41282  Biso   1.000  O
  O9       1.0000 0.70414  0.50000  0.40828  Biso   1.000  O
  O10      1.0000 0.29586  0.50000  0.59172  Biso   1.000  O
