data_image0
_cell_length_a       18.191
_cell_length_b       17.177
_cell_length_c       13.6923
_cell_angle_alpha    90
_cell_angle_beta     129.741
_cell_angle_gamma    90

_symmetry_space_group_name_H-M    "P 1"
_symmetry_int_tables_number       1

loop_
  _symmetry_equiv_pos_as_xyz
  'x, y, z'

loop_
  _atom_site_label
  _atom_site_occupancy
  _atom_site_fract_x
  _atom_site_fract_y
  _atom_site_fract_z
  _atom_site_thermal_displace_type
  _atom_site_B_iso_or_equiv
  _atom_site_type_symbol
  C1       1.0000 0.34210  0.16623  0.25060  Biso   1.000  C
  C2       1.0000 0.33780  0.10033  0.31950  Biso   1.000  C
  C3       1.0000 0.26090  0.04920  0.25440  Biso   1.000  C
  H1       1.0000 0.20890  0.05870  0.16970  Biso   1.000  H
  C4       1.0000 0.26070  0.98430  0.31430  Biso   1.000  C
  H2       1.0000 0.20890  0.95030  0.26910  Biso   1.000  H
  C5       1.0000 0.33710  0.96960  0.44090  Biso   1.000  C
  C6       1.0000 0.41230  0.02180  0.50670  Biso   1.000  C
  H3       1.0000 0.46300  0.01370  0.59250  Biso   1.000  H
  C7       1.0000 0.41270  0.08600  0.44610  Biso   1.000  C
  H4       1.0000 0.46440  0.12010  0.49150  Biso   1.000  H
  C8       1.0000 0.34160  0.89654  0.50620  Biso   1.000  C
  C9       1.0000 0.46360  0.32840  0.02220  Biso   1.000  C
  H5       1.0000 0.46930  0.27790  0.00320  Biso   1.000  H
  C10      1.0000 0.49340  0.39030  0.99160  Biso   1.000  C
  H6       1.0000 0.52000  0.38110  0.95300  Biso   1.000  H
  C11      1.0000 0.48450  0.46640  0.01730  Biso   1.000  C
  C12      1.0000 0.44320  0.47680  0.07400  Biso   1.000  C
  H7       1.0000 0.43550  0.52680  0.09240  Biso   1.000  H
  C13      1.0000 0.41390  0.41400  0.10280  Biso   1.000  C
  H8       1.0000 0.38510  0.42180  0.13870  Biso   1.000  H
  N1       1.0000 0.42630  0.34093  0.07970  Biso   1.000  N
  O1       1.0000 0.42156  0.20048  0.31030  Biso   1.000  O
  O2       1.0000 0.26787  0.18176  0.13990  Biso   1.000  O
  O3       1.0000 0.41410  0.88958  0.62120  Biso   1.000  O
  O4       1.0000 0.27345  0.84896  0.43950  Biso   1.000  O
  O5       1.0000 0.39984  0.28121  0.11340  Biso   1.000  O
  C14      1.0000 0.84210  0.66623  0.25060  Biso   1.000  C
  C15      1.0000 0.83780  0.60033  0.31950  Biso   1.000  C
  C16      1.0000 0.76090  0.54920  0.25440  Biso   1.000  C
  H9       1.0000 0.70890  0.55870  0.16970  Biso   1.000  H
  C17      1.0000 0.76070  0.48430  0.31430  Biso   1.000  C
  H10      1.0000 0.70890  0.45030  0.26910  Biso   1.000  H
  C18      1.0000 0.83710  0.46960  0.44090  Biso   1.000  C
  C19      1.0000 0.91230  0.52180  0.50670  Biso   1.000  C
  H11      1.0000 0.96300  0.51370  0.59250  Biso   1.000  H
  C20      1.0000 0.91270  0.58600  0.44610  Biso   1.000  C
  H12      1.0000 0.96440  0.62010  0.49150  Biso   1.000  H
  C21      1.0000 0.84160  0.39654  0.50620  Biso   1.000  C
  C22      1.0000 0.96360  0.82840  0.02220  Biso   1.000  C
  H13      1.0000 0.96930  0.77790  0.00320  Biso   1.000  H
  C23      1.0000 0.99340  0.89030  0.99160  Biso   1.000  C
  H14      1.0000 0.02000  0.88110  0.95300  Biso   1.000  H
  C24      1.0000 0.98450  0.96640  0.01730  Biso   1.000  C
  C25      1.0000 0.94320  0.97680  0.07400  Biso   1.000  C
  H15      1.0000 0.93550  0.02680  0.09240  Biso   1.000  H
  C26      1.0000 0.91390  0.91400  0.10280  Biso   1.000  C
  H16      1.0000 0.88510  0.92180  0.13870  Biso   1.000  H
  N2       1.0000 0.92630  0.84093  0.07970  Biso   1.000  N
  O6       1.0000 0.92156  0.70048  0.31030  Biso   1.000  O
  O7       1.0000 0.76787  0.68176  0.13990  Biso   1.000  O
  O8       1.0000 0.91410  0.38958  0.62120  Biso   1.000  O
  O9       1.0000 0.77345  0.34896  0.43950  Biso   1.000  O
  O10      1.0000 0.89984  0.78121  0.11340  Biso   1.000  O
  C27      1.0000 0.65790  0.16623  0.24940  Biso   1.000  C
  C28      1.0000 0.66220  0.10033  0.18050  Biso   1.000  C
  C29      1.0000 0.73910  0.04920  0.24560  Biso   1.000  C
  H17      1.0000 0.79110  0.05870  0.33030  Biso   1.000  H
  C30      1.0000 0.73930  0.98430  0.18570  Biso   1.000  C
  H18      1.0000 0.79110  0.95030  0.23090  Biso   1.000  H
  C31      1.0000 0.66290  0.96960  0.05910  Biso   1.000  C
  C32      1.0000 0.58770  0.02180  0.99330  Biso   1.000  C
  H19      1.0000 0.53700  0.01370  0.90750  Biso   1.000  H
  C33      1.0000 0.58730  0.08600  0.05390  Biso   1.000  C
  H20      1.0000 0.53560  0.12010  0.00850  Biso   1.000  H
  C34      1.0000 0.65840  0.89654  0.99380  Biso   1.000  C
  C35      1.0000 0.53640  0.32840  0.47780  Biso   1.000  C
  H21      1.0000 0.53070  0.27790  0.49680  Biso   1.000  H
  C36      1.0000 0.50660  0.39030  0.50840  Biso   1.000  C
  H22      1.0000 0.48000  0.38110  0.54700  Biso   1.000  H
  C37      1.0000 0.51550  0.46640  0.48270  Biso   1.000  C
  C38      1.0000 0.55680  0.47680  0.42600  Biso   1.000  C
  H23      1.0000 0.56450  0.52680  0.40760  Biso   1.000  H
  C39      1.0000 0.58610  0.41400  0.39720  Biso   1.000  C
  H24      1.0000 0.61490  0.42180  0.36130  Biso   1.000  H
  N3       1.0000 0.57370  0.34093  0.42030  Biso   1.000  N
  O11      1.0000 0.57844  0.20048  0.18970  Biso   1.000  O
  O12      1.0000 0.73213  0.18176  0.36010  Biso   1.000  O
  O13      1.0000 0.58590  0.88958  0.87880  Biso   1.000  O
  O14      1.0000 0.72655  0.84896  0.06050  Biso   1.000  O
  O15      1.0000 0.60016  0.28121  0.38660  Biso   1.000  O
  C40      1.0000 0.15790  0.66623  0.24940  Biso   1.000  C
  C41      1.0000 0.16220  0.60033  0.18050  Biso   1.000  C
  C42      1.0000 0.23910  0.54920  0.24560  Biso   1.000  C
  H25      1.0000 0.29110  0.55870  0.33030  Biso   1.000  H
  C43      1.0000 0.23930  0.48430  0.18570  Biso   1.000  C
  H26      1.0000 0.29110  0.45030  0.23090  Biso   1.000  H
  C44      1.0000 0.16290  0.46960  0.05910  Biso   1.000  C
  C45      1.0000 0.08770  0.52180  0.99330  Biso   1.000  C
  H27      1.0000 0.03700  0.51370  0.90750  Biso   1.000  H
  C46      1.0000 0.08730  0.58600  0.05390  Biso   1.000  C
  H28      1.0000 0.03560  0.62010  0.00850  Biso   1.000  H
  C47      1.0000 0.15840  0.39654  0.99380  Biso   1.000  C
  C48      1.0000 0.03640  0.82840  0.47780  Biso   1.000  C
  H29      1.0000 0.03070  0.77790  0.49680  Biso   1.000  H
  C49      1.0000 0.00660  0.89030  0.50840  Biso   1.000  C
  H30      1.0000 0.98000  0.88110  0.54700  Biso   1.000  H
  C50      1.0000 0.01550  0.96640  0.48270  Biso   1.000  C
  C51      1.0000 0.05680  0.97680  0.42600  Biso   1.000  C
  H31      1.0000 0.06450  0.02680  0.40760  Biso   1.000  H
  C52      1.0000 0.08610  0.91400  0.39720  Biso   1.000  C
  H32      1.0000 0.11490  0.92180  0.36130  Biso   1.000  H
  N4       1.0000 0.07370  0.84093  0.42030  Biso   1.000  N
  O16      1.0000 0.07844  0.70048  0.18970  Biso   1.000  O
  O17      1.0000 0.23213  0.68176  0.36010  Biso   1.000  O
  O18      1.0000 0.08590  0.38958  0.87880  Biso   1.000  O
  O19      1.0000 0.22655  0.34896  0.06050  Biso   1.000  O
  O20      1.0000 0.10016  0.78121  0.38660  Biso   1.000  O
  C53      1.0000 0.65790  0.83377  0.74940  Biso   1.000  C
  C54      1.0000 0.66220  0.89967  0.68050  Biso   1.000  C
  C55      1.0000 0.73910  0.95080  0.74560  Biso   1.000  C
  H33      1.0000 0.79110  0.94130  0.83030  Biso   1.000  H
  C56      1.0000 0.73930  0.01570  0.68570  Biso   1.000  C
  H34      1.0000 0.79110  0.04970  0.73090  Biso   1.000  H
  C57      1.0000 0.66290  0.03040  0.55910  Biso   1.000  C
  C58      1.0000 0.58770  0.97820  0.49330  Biso   1.000  C
  H35      1.0000 0.53700  0.98630  0.40750  Biso   1.000  H
  C59      1.0000 0.58730  0.91400  0.55390  Biso   1.000  C
  H36      1.0000 0.53560  0.87990  0.50850  Biso   1.000  H
  C60      1.0000 0.65840  0.10346  0.49380  Biso   1.000  C
  C61      1.0000 0.53640  0.67160  0.97780  Biso   1.000  C
  H37      1.0000 0.53070  0.72210  0.99680  Biso   1.000  H
  C62      1.0000 0.50660  0.60970  0.00840  Biso   1.000  C
  H38      1.0000 0.48000  0.61890  0.04700  Biso   1.000  H
  C63      1.0000 0.51550  0.53360  0.98270  Biso   1.000  C
  C64      1.0000 0.55680  0.52320  0.92600  Biso   1.000  C
  H39      1.0000 0.56450  0.47320  0.90760  Biso   1.000  H
  C65      1.0000 0.58610  0.58600  0.89720  Biso   1.000  C
  H40      1.0000 0.61490  0.57820  0.86130  Biso   1.000  H
  N5       1.0000 0.57370  0.65907  0.92030  Biso   1.000  N
  O21      1.0000 0.57844  0.79952  0.68970  Biso   1.000  O
  O22      1.0000 0.73213  0.81824  0.86010  Biso   1.000  O
  O23      1.0000 0.58590  0.11042  0.37880  Biso   1.000  O
  O24      1.0000 0.72655  0.15104  0.56050  Biso   1.000  O
  O25      1.0000 0.60016  0.71879  0.88660  Biso   1.000  O
  C66      1.0000 0.15790  0.33377  0.74940  Biso   1.000  C
  C67      1.0000 0.16220  0.39967  0.68050  Biso   1.000  C
  C68      1.0000 0.23910  0.45080  0.74560  Biso   1.000  C
  H41      1.0000 0.29110  0.44130  0.83030  Biso   1.000  H
  C69      1.0000 0.23930  0.51570  0.68570  Biso   1.000  C
  H42      1.0000 0.29110  0.54970  0.73090  Biso   1.000  H
  C70      1.0000 0.16290  0.53040  0.55910  Biso   1.000  C
  C71      1.0000 0.08770  0.47820  0.49330  Biso   1.000  C
  H43      1.0000 0.03700  0.48630  0.40750  Biso   1.000  H
  C72      1.0000 0.08730  0.41400  0.55390  Biso   1.000  C
  H44      1.0000 0.03560  0.37990  0.50850  Biso   1.000  H
  C73      1.0000 0.15840  0.60346  0.49380  Biso   1.000  C
  C74      1.0000 0.03640  0.17160  0.97780  Biso   1.000  C
  H45      1.0000 0.03070  0.22210  0.99680  Biso   1.000  H
  C75      1.0000 0.00660  0.10970  0.00840  Biso   1.000  C
  H46      1.0000 0.98000  0.11890  0.04700  Biso   1.000  H
  C76      1.0000 0.01550  0.03360  0.98270  Biso   1.000  C
  C77      1.0000 0.05680  0.02320  0.92600  Biso   1.000  C
  H47      1.0000 0.06450  0.97320  0.90760  Biso   1.000  H
  C78      1.0000 0.08610  0.08600  0.89720  Biso   1.000  C
  H48      1.0000 0.11490  0.07820  0.86130  Biso   1.000  H
  N6       1.0000 0.07370  0.15907  0.92030  Biso   1.000  N
  O26      1.0000 0.07844  0.29952  0.68970  Biso   1.000  O
  O27      1.0000 0.23213  0.31824  0.86010  Biso   1.000  O
  O28      1.0000 0.08590  0.61042  0.37880  Biso   1.000  O
  O29      1.0000 0.22655  0.65104  0.56050  Biso   1.000  O
  O30      1.0000 0.10016  0.21879  0.88660  Biso   1.000  O
  C79      1.0000 0.34210  0.83377  0.75060  Biso   1.000  C
  C80      1.0000 0.33780  0.89967  0.81950  Biso   1.000  C
  C81      1.0000 0.26090  0.95080  0.75440  Biso   1.000  C
  H49      1.0000 0.20890  0.94130  0.66970  Biso   1.000  H
  C82      1.0000 0.26070  0.01570  0.81430  Biso   1.000  C
  H50      1.0000 0.20890  0.04970  0.76910  Biso   1.000  H
  C83      1.0000 0.33710  0.03040  0.94090  Biso   1.000  C
  C84      1.0000 0.41230  0.97820  0.00670  Biso   1.000  C
  H51      1.0000 0.46300  0.98630  0.09250  Biso   1.000  H
  C85      1.0000 0.41270  0.91400  0.94610  Biso   1.000  C
  H52      1.0000 0.46440  0.87990  0.99150  Biso   1.000  H
  C86      1.0000 0.34160  0.10346  0.00620  Biso   1.000  C
  C87      1.0000 0.46360  0.67160  0.52220  Biso   1.000  C
  H53      1.0000 0.46930  0.72210  0.50320  Biso   1.000  H
  C88      1.0000 0.49340  0.60970  0.49160  Biso   1.000  C
  H54      1.0000 0.52000  0.61890  0.45300  Biso   1.000  H
  C89      1.0000 0.48450  0.53360  0.51730  Biso   1.000  C
  C90      1.0000 0.44320  0.52320  0.57400  Biso   1.000  C
  H55      1.0000 0.43550  0.47320  0.59240  Biso   1.000  H
  C91      1.0000 0.41390  0.58600  0.60280  Biso   1.000  C
  H56      1.0000 0.38510  0.57820  0.63870  Biso   1.000  H
  N7       1.0000 0.42630  0.65907  0.57970  Biso   1.000  N
  O31      1.0000 0.42156  0.79952  0.81030  Biso   1.000  O
  O32      1.0000 0.26787  0.81824  0.63990  Biso   1.000  O
  O33      1.0000 0.41410  0.11042  0.12120  Biso   1.000  O
  O34      1.0000 0.27345  0.15104  0.93950  Biso   1.000  O
  O35      1.0000 0.39984  0.71879  0.61340  Biso   1.000  O
  C92      1.0000 0.84210  0.33377  0.75060  Biso   1.000  C
  C93      1.0000 0.83780  0.39967  0.81950  Biso   1.000  C
  C94      1.0000 0.76090  0.45080  0.75440  Biso   1.000  C
  H57      1.0000 0.70890  0.44130  0.66970  Biso   1.000  H
  C95      1.0000 0.76070  0.51570  0.81430  Biso   1.000  C
  H58      1.0000 0.70890  0.54970  0.76910  Biso   1.000  H
  C96      1.0000 0.83710  0.53040  0.94090  Biso   1.000  C
  C97      1.0000 0.91230  0.47820  0.00670  Biso   1.000  C
  H59      1.0000 0.96300  0.48630  0.09250  Biso   1.000  H
  C98      1.0000 0.91270  0.41400  0.94610  Biso   1.000  C
  H60      1.0000 0.96440  0.37990  0.99150  Biso   1.000  H
  C99      1.0000 0.84160  0.60346  0.00620  Biso   1.000  C
  C100     1.0000 0.96360  0.17160  0.52220  Biso   1.000  C
  H61      1.0000 0.96930  0.22210  0.50320  Biso   1.000  H
  C101     1.0000 0.99340  0.10970  0.49160  Biso   1.000  C
  H62      1.0000 0.02000  0.11890  0.45300  Biso   1.000  H
  C102     1.0000 0.98450  0.03360  0.51730  Biso   1.000  C
  C103     1.0000 0.94320  0.02320  0.57400  Biso   1.000  C
  H63      1.0000 0.93550  0.97320  0.59240  Biso   1.000  H
  C104     1.0000 0.91390  0.08600  0.60280  Biso   1.000  C
  H64      1.0000 0.88510  0.07820  0.63870  Biso   1.000  H
  N8       1.0000 0.92630  0.15907  0.57970  Biso   1.000  N
  O36      1.0000 0.92156  0.29952  0.81030  Biso   1.000  O
  O37      1.0000 0.76787  0.31824  0.63990  Biso   1.000  O
  O38      1.0000 0.91410  0.61042  0.12120  Biso   1.000  O
  O39      1.0000 0.77345  0.65104  0.93950  Biso   1.000  O
  O40      1.0000 0.89984  0.21879  0.61340  Biso   1.000  O
  Co1      1.0000 0.50000  0.19734  0.25000  Biso   1.000  Co
  Co2      1.0000 0.00000  0.69734  0.25000  Biso   1.000  Co
  Co3      1.0000 0.50000  0.80266  0.75000  Biso   1.000  Co
  Co4      1.0000 0.00000  0.30266  0.75000  Biso   1.000  Co
  Co5      1.0000 0.25000  0.25000  0.00000  Biso   1.000  Co
  Co6      1.0000 0.75000  0.25000  0.50000  Biso   1.000  Co
  Co7      1.0000 0.75000  0.75000  0.00000  Biso   1.000  Co
  Co8      1.0000 0.25000  0.75000  0.50000  Biso   1.000  Co
