data_image0
_cell_length_a       8.201
_cell_length_b       10.492
_cell_length_c       11.125
_cell_angle_alpha    90
_cell_angle_beta     95.28
_cell_angle_gamma    90

_symmetry_space_group_name_H-M    P 1
_symmetry_int_tables_number       1

loop_
  _symmetry_equiv_pos_as_xyz
  'x, y, z'

loop_
  _atom_site_label
  _atom_site_occupancy
  _atom_site_fract_x
  _atom_site_fract_y
  _atom_site_fract_z
  _atom_site_thermal_displace_type
  _atom_site_B_iso_or_equiv
  _atom_site_type_symbol
  Co1      1.0000 0.00000  0.50000  0.00000  Biso   1.000  Co
  Co2      1.0000 0.50000  0.00000  0.50000  Biso   1.000  Co
  H1       1.0000 0.70160  0.40010  0.90040  Biso   1.000  H
  H2       1.0000 0.45800  0.46550  0.81230  Biso   1.000  H
  H3       1.0000 0.63700  0.82410  0.79900  Biso   1.000  H
  H4       1.0000 0.87490  0.74890  0.88910  Biso   1.000  H
  H5       1.0000 0.26800  0.82210  0.63150  Biso   1.000  H
  H6       1.0000 0.11910  0.69130  0.76060  Biso   1.000  H
  H7       1.0000 0.79840  0.90010  0.59960  Biso   1.000  H
  H8       1.0000 0.04200  0.96550  0.68770  Biso   1.000  H
  H9       1.0000 0.86300  0.32410  0.70100  Biso   1.000  H
  H10      1.0000 0.62510  0.24890  0.61090  Biso   1.000  H
  H11      1.0000 0.23200  0.32210  0.86850  Biso   1.000  H
  H12      1.0000 0.38090  0.19130  0.73940  Biso   1.000  H
  H13      1.0000 0.29840  0.59990  0.09960  Biso   1.000  H
  H14      1.0000 0.54200  0.53450  0.18770  Biso   1.000  H
  H15      1.0000 0.36300  0.17590  0.20100  Biso   1.000  H
  H16      1.0000 0.12510  0.25110  0.11090  Biso   1.000  H
  H17      1.0000 0.73200  0.17790  0.36850  Biso   1.000  H
  H18      1.0000 0.88090  0.30870  0.23940  Biso   1.000  H
  H19      1.0000 0.20160  0.09990  0.40040  Biso   1.000  H
  H20      1.0000 0.95800  0.03450  0.31230  Biso   1.000  H
  H21      1.0000 0.13700  0.67590  0.29900  Biso   1.000  H
  H22      1.0000 0.37490  0.75110  0.38910  Biso   1.000  H
  H23      1.0000 0.76800  0.67790  0.13150  Biso   1.000  H
  H24      1.0000 0.61910  0.80870  0.26060  Biso   1.000  H
  C1       1.0000 0.68530  0.48730  0.87980  Biso   1.000  C
  C2       1.0000 0.54460  0.52480  0.82890  Biso   1.000  C
  C3       1.0000 0.64860  0.73680  0.82070  Biso   1.000  C
  C4       1.0000 0.78540  0.69220  0.87230  Biso   1.000  C
  C5       1.0000 0.52210  0.65250  0.79890  Biso   1.000  C
  C6       1.0000 0.37090  0.69690  0.75070  Biso   1.000  C
  C7       1.0000 0.37230  0.78830  0.65880  Biso   1.000  C
  C8       1.0000 0.21560  0.65390  0.79910  Biso   1.000  C
  C9       1.0000 0.81470  0.98730  0.62020  Biso   1.000  C
  C10      1.0000 0.95540  0.02480  0.67110  Biso   1.000  C
  C11      1.0000 0.85140  0.23680  0.67930  Biso   1.000  C
  C12      1.0000 0.71460  0.19220  0.62770  Biso   1.000  C
  C13      1.0000 0.97790  0.15250  0.70110  Biso   1.000  C
  C14      1.0000 0.12910  0.19690  0.74930  Biso   1.000  C
  C15      1.0000 0.12770  0.28830  0.84120  Biso   1.000  C
  C16      1.0000 0.28440  0.15390  0.70090  Biso   1.000  C
  C17      1.0000 0.31470  0.51270  0.12020  Biso   1.000  C
  C18      1.0000 0.45540  0.47520  0.17110  Biso   1.000  C
  C19      1.0000 0.35140  0.26320  0.17930  Biso   1.000  C
  C20      1.0000 0.21460  0.30780  0.12770  Biso   1.000  C
  C21      1.0000 0.47790  0.34750  0.20110  Biso   1.000  C
  C22      1.0000 0.62910  0.30310  0.24930  Biso   1.000  C
  C23      1.0000 0.62770  0.21170  0.34120  Biso   1.000  C
  C24      1.0000 0.78440  0.34610  0.20090  Biso   1.000  C
  C25      1.0000 0.18530  0.01270  0.37980  Biso   1.000  C
  C26      1.0000 0.04460  0.97520  0.32890  Biso   1.000  C
  C27      1.0000 0.14860  0.76320  0.32070  Biso   1.000  C
  C28      1.0000 0.28540  0.80780  0.37230  Biso   1.000  C
  C29      1.0000 0.02210  0.84750  0.29890  Biso   1.000  C
  C30      1.0000 0.87090  0.80310  0.25070  Biso   1.000  C
  C31      1.0000 0.87230  0.71170  0.15880  Biso   1.000  C
  C32      1.0000 0.71560  0.84610  0.29910  Biso   1.000  C
  N1       1.0000 0.80490  0.56920  0.90272  Biso   1.000  N
  N2       1.0000 0.69510  0.06920  0.59728  Biso   1.000  N
  N3       1.0000 0.19510  0.43080  0.09728  Biso   1.000  N
  N4       1.0000 0.30490  0.93080  0.40272  Biso   1.000  N
  O1       1.0000 0.49890  0.83585  0.60306  Biso   1.000  O
  O2       1.0000 0.19070  0.57570  0.88302  Biso   1.000  O
  O3       1.0000 0.00110  0.33585  0.89694  Biso   1.000  O
  O4       1.0000 0.30930  0.07570  0.61698  Biso   1.000  O
  O5       1.0000 0.50110  0.16415  0.39694  Biso   1.000  O
  O6       1.0000 0.80930  0.42430  0.11698  Biso   1.000  O
  O7       1.0000 0.99890  0.66415  0.10306  Biso   1.000  O
  O8       1.0000 0.69070  0.92430  0.38302  Biso   1.000  O
