data_ADOBEB_charged
_audit_creation_date              2014-07-02
_audit_creation_method            'Materials Studio'
_symmetry_space_group_name_H-M    'P1'
_symmetry_Int_Tables_number       1
_symmetry_cell_setting            triclinic
loop_
_symmetry_equiv_pos_as_xyz
  x,y,z
_cell_length_a                    14.9160
_cell_length_b                    17.2660
_cell_length_c                    17.2660
_cell_angle_alpha                 90.0000
_cell_angle_beta                  90.0000
_cell_angle_gamma                 90.0000
loop_
_atom_site_label
_atom_site_type_symbol
_atom_site_fract_x
_atom_site_fract_y
_atom_site_fract_z
_atom_site_U_iso_or_equiv
_atom_site_adp_type
_atom_site_occupancy
Mn1    Mn    0.75000   0.74278   0.75722   0.01267  Uiso   1.00
Mn2    Mn    0.75000   0.25722   0.24278   0.01267  Uiso   1.00
Mn3    Mn    0.25000   0.75722   0.25722   0.01267  Uiso   1.00
Mn4    Mn    0.25000   0.24278   0.74278   0.01267  Uiso   1.00
V1     V     0.87422   0.87836   0.89065   0.01267  Uiso   1.00
V2     V     0.77231   0.93766   0.06998   0.01267  Uiso   1.00
V3     V     0.91366   0.81906   0.05098   0.01267  Uiso   1.00
V4     V     0.08505   0.81392   0.96987   0.01267  Uiso   1.00
V5     V     0.87422   0.12164   0.10935   0.01267  Uiso   1.00
V6     V     0.77231   0.06234   0.93002   0.01267  Uiso   1.00
V7     V     0.91366   0.18094   0.94902   0.01267  Uiso   1.00
V8     V     0.08505   0.18608   0.03013   0.01267  Uiso   1.00
V9     V     0.12578   0.89065   0.12164   0.01267  Uiso   1.00
V10    V     0.22769   0.06998   0.06234   0.01267  Uiso   1.00
V11    V     0.08634   0.05098   0.18094   0.01267  Uiso   1.00
V12    V     0.91495   0.96987   0.18608   0.01267  Uiso   1.00
V13    V     0.12578   0.10935   0.87836   0.01267  Uiso   1.00
V14    V     0.22769   0.93002   0.93766   0.01267  Uiso   1.00
V15    V     0.08634   0.94902   0.81906   0.01267  Uiso   1.00
V16    V     0.91495   0.03013   0.81392   0.01267  Uiso   1.00
V17    V     0.37422   0.37836   0.60935   0.01267  Uiso   1.00
V18    V     0.27231   0.43766   0.43002   0.01267  Uiso   1.00
V19    V     0.41366   0.31906   0.44902   0.01267  Uiso   1.00
V20    V     0.58505   0.31392   0.53013   0.01267  Uiso   1.00
V21    V     0.37422   0.62164   0.39065   0.01267  Uiso   1.00
V22    V     0.27231   0.56234   0.56998   0.01267  Uiso   1.00
V23    V     0.41366   0.68094   0.55098   0.01267  Uiso   1.00
V24    V     0.58505   0.68608   0.46987   0.01267  Uiso   1.00
V25    V     0.62578   0.39065   0.37836   0.01267  Uiso   1.00
V26    V     0.72769   0.56998   0.43766   0.01267  Uiso   1.00
V27    V     0.58634   0.55098   0.31906   0.01267  Uiso   1.00
V28    V     0.41495   0.46987   0.31392   0.01267  Uiso   1.00
V29    V     0.62578   0.60935   0.62164   0.01267  Uiso   1.00
V30    V     0.72769   0.43002   0.56234   0.01267  Uiso   1.00
V31    V     0.58634   0.44902   0.68094   0.01267  Uiso   1.00
V32    V     0.41495   0.53013   0.68608   0.01267  Uiso   1.00
H1     H     0.76170   0.74590   0.57760   0.01267  Uiso   1.00
H2     H     0.85770   0.75740   0.47620   0.01267  Uiso   1.00
H3     H     0.94210   0.81630   0.72320   0.01267  Uiso   1.00
H4     H     0.04540   0.82990   0.62430   0.01267  Uiso   1.00
H5     H     0.24010   0.76020   0.43740   0.01267  Uiso   1.00
H6     H     0.13850   0.76080   0.53860   0.01267  Uiso   1.00
H7     H     0.05410   0.82880   0.29320   0.01267  Uiso   1.00
H8     H     0.94970   0.83060   0.38920   0.01267  Uiso   1.00
H9     H     0.76170   0.25410   0.42240   0.01267  Uiso   1.00
H10    H     0.85770   0.24260   0.52380   0.01267  Uiso   1.00
H11    H     0.94210   0.18370   0.27680   0.01267  Uiso   1.00
H12    H     0.04540   0.17010   0.37570   0.01267  Uiso   1.00
H13    H     0.24010   0.23980   0.56260   0.01267  Uiso   1.00
H14    H     0.13850   0.23920   0.46140   0.01267  Uiso   1.00
H15    H     0.05410   0.17120   0.70680   0.01267  Uiso   1.00
H16    H     0.94970   0.16940   0.61080   0.01267  Uiso   1.00
H17    H     0.23830   0.57760   0.25410   0.01267  Uiso   1.00
H18    H     0.14230   0.47620   0.24260   0.01267  Uiso   1.00
H19    H     0.05790   0.72320   0.18370   0.01267  Uiso   1.00
H20    H     0.95460   0.62430   0.17010   0.01267  Uiso   1.00
H21    H     0.75990   0.43740   0.23980   0.01267  Uiso   1.00
H22    H     0.86150   0.53860   0.23920   0.01267  Uiso   1.00
H23    H     0.94590   0.29320   0.17120   0.01267  Uiso   1.00
H24    H     0.05030   0.38920   0.16940   0.01267  Uiso   1.00
H25    H     0.23830   0.42240   0.74590   0.01267  Uiso   1.00
H26    H     0.14230   0.52380   0.75740   0.01267  Uiso   1.00
H27    H     0.05790   0.27680   0.81630   0.01267  Uiso   1.00
H28    H     0.95460   0.37570   0.82990   0.01267  Uiso   1.00
H29    H     0.75990   0.56260   0.76020   0.01267  Uiso   1.00
H30    H     0.86150   0.46140   0.76080   0.01267  Uiso   1.00
H31    H     0.94590   0.70680   0.82880   0.01267  Uiso   1.00
H32    H     0.05030   0.61080   0.83060   0.01267  Uiso   1.00
H33    H     0.26170   0.24590   0.92240   0.01267  Uiso   1.00
H34    H     0.35770   0.25740   0.02380   0.01267  Uiso   1.00
H35    H     0.44210   0.31630   0.77680   0.01267  Uiso   1.00
H36    H     0.54540   0.32990   0.87570   0.01267  Uiso   1.00
H37    H     0.74010   0.26020   0.06260   0.01267  Uiso   1.00
H38    H     0.63850   0.26080   0.96140   0.01267  Uiso   1.00
H39    H     0.55410   0.32880   0.20680   0.01267  Uiso   1.00
H40    H     0.44970   0.33060   0.11080   0.01267  Uiso   1.00
H41    H     0.26170   0.75410   0.07760   0.01267  Uiso   1.00
H42    H     0.35770   0.74260   0.97620   0.01267  Uiso   1.00
H43    H     0.44210   0.68370   0.22320   0.01267  Uiso   1.00
H44    H     0.54540   0.67010   0.12430   0.01267  Uiso   1.00
H45    H     0.74010   0.73980   0.93740   0.01267  Uiso   1.00
H46    H     0.63850   0.73920   0.03860   0.01267  Uiso   1.00
H47    H     0.55410   0.67120   0.79320   0.01267  Uiso   1.00
H48    H     0.44970   0.66940   0.88920   0.01267  Uiso   1.00
H49    H     0.73830   0.07760   0.24590   0.01267  Uiso   1.00
H50    H     0.64230   0.97620   0.25740   0.01267  Uiso   1.00
H51    H     0.55790   0.22320   0.31630   0.01267  Uiso   1.00
H52    H     0.45460   0.12430   0.32990   0.01267  Uiso   1.00
H53    H     0.25990   0.93740   0.26020   0.01267  Uiso   1.00
H54    H     0.36150   0.03860   0.26080   0.01267  Uiso   1.00
H55    H     0.44590   0.79320   0.32880   0.01267  Uiso   1.00
H56    H     0.55030   0.88920   0.33060   0.01267  Uiso   1.00
H57    H     0.73830   0.92240   0.75410   0.01267  Uiso   1.00
H58    H     0.64230   0.02380   0.74260   0.01267  Uiso   1.00
H59    H     0.55790   0.77680   0.68370   0.01267  Uiso   1.00
H60    H     0.45460   0.87570   0.67010   0.01267  Uiso   1.00
H61    H     0.25990   0.06260   0.73980   0.01267  Uiso   1.00
H62    H     0.36150   0.96140   0.73920   0.01267  Uiso   1.00
H63    H     0.44590   0.20680   0.67120   0.01267  Uiso   1.00
H64    H     0.55030   0.11080   0.66940   0.01267  Uiso   1.00
C1     C     0.82000   0.76240   0.58740   0.01267  Uiso   1.00
C2     C     0.87720   0.76890   0.52610   0.01267  Uiso   1.00
C3     C     0.92540   0.80360   0.67290   0.01267  Uiso   1.00
C4     C     0.98810   0.81170   0.61340   0.01267  Uiso   1.00
C5     C     0.18080   0.77360   0.42750   0.01267  Uiso   1.00
C6     C     0.12000   0.77440   0.48900   0.01267  Uiso   1.00
C7     C     0.07110   0.81390   0.34280   0.01267  Uiso   1.00
C8     C     0.00820   0.81580   0.40030   0.01267  Uiso   1.00
C9     C     0.03210   0.79550   0.47540   0.01267  Uiso   1.00
C10    C     0.96520   0.79290   0.53890   0.01267  Uiso   1.00
C11    C     0.82000   0.23760   0.41260   0.01267  Uiso   1.00
C12    C     0.87720   0.23110   0.47390   0.01267  Uiso   1.00
C13    C     0.92540   0.19640   0.32710   0.01267  Uiso   1.00
C14    C     0.98810   0.18830   0.38660   0.01267  Uiso   1.00
C15    C     0.18080   0.22640   0.57250   0.01267  Uiso   1.00
C16    C     0.12000   0.22560   0.51100   0.01267  Uiso   1.00
C17    C     0.07110   0.18610   0.65720   0.01267  Uiso   1.00
C18    C     0.00820   0.18420   0.59970   0.01267  Uiso   1.00
C19    C     0.03210   0.20450   0.52460   0.01267  Uiso   1.00
C20    C     0.96520   0.20710   0.46110   0.01267  Uiso   1.00
C21    C     0.18000   0.58740   0.23760   0.01267  Uiso   1.00
C22    C     0.12280   0.52610   0.23110   0.01267  Uiso   1.00
C23    C     0.07460   0.67290   0.19640   0.01267  Uiso   1.00
C24    C     0.01190   0.61340   0.18830   0.01267  Uiso   1.00
C25    C     0.81920   0.42750   0.22640   0.01267  Uiso   1.00
C26    C     0.88000   0.48900   0.22560   0.01267  Uiso   1.00
C27    C     0.92890   0.34280   0.18610   0.01267  Uiso   1.00
C28    C     0.99180   0.40030   0.18420   0.01267  Uiso   1.00
C29    C     0.96790   0.47540   0.20450   0.01267  Uiso   1.00
C30    C     0.03480   0.53890   0.20710   0.01267  Uiso   1.00
C31    C     0.18000   0.41260   0.76240   0.01267  Uiso   1.00
C32    C     0.12280   0.47390   0.76890   0.01267  Uiso   1.00
C33    C     0.07460   0.32710   0.80360   0.01267  Uiso   1.00
C34    C     0.01190   0.38660   0.81170   0.01267  Uiso   1.00
C35    C     0.81920   0.57250   0.77360   0.01267  Uiso   1.00
C36    C     0.88000   0.51100   0.77440   0.01267  Uiso   1.00
C37    C     0.92890   0.65720   0.81390   0.01267  Uiso   1.00
C38    C     0.99180   0.59970   0.81580   0.01267  Uiso   1.00
C39    C     0.96790   0.52460   0.79550   0.01267  Uiso   1.00
C40    C     0.03480   0.46110   0.79290   0.01267  Uiso   1.00
C41    C     0.32000   0.26240   0.91260   0.01267  Uiso   1.00
C42    C     0.37720   0.26890   0.97390   0.01267  Uiso   1.00
C43    C     0.42540   0.30360   0.82710   0.01267  Uiso   1.00
C44    C     0.48810   0.31170   0.88660   0.01267  Uiso   1.00
C45    C     0.68080   0.27360   0.07250   0.01267  Uiso   1.00
C46    C     0.62000   0.27440   0.01100   0.01267  Uiso   1.00
C47    C     0.57110   0.31390   0.15720   0.01267  Uiso   1.00
C48    C     0.50820   0.31580   0.09970   0.01267  Uiso   1.00
C49    C     0.53210   0.29550   0.02460   0.01267  Uiso   1.00
C50    C     0.46520   0.29290   0.96110   0.01267  Uiso   1.00
C51    C     0.32000   0.73760   0.08740   0.01267  Uiso   1.00
C52    C     0.37720   0.73110   0.02610   0.01267  Uiso   1.00
C53    C     0.42540   0.69640   0.17290   0.01267  Uiso   1.00
C54    C     0.48810   0.68830   0.11340   0.01267  Uiso   1.00
C55    C     0.68080   0.72640   0.92750   0.01267  Uiso   1.00
C56    C     0.62000   0.72560   0.98900   0.01267  Uiso   1.00
C57    C     0.57110   0.68610   0.84280   0.01267  Uiso   1.00
C58    C     0.50820   0.68420   0.90030   0.01267  Uiso   1.00
C59    C     0.53210   0.70450   0.97540   0.01267  Uiso   1.00
C60    C     0.46520   0.70710   0.03890   0.01267  Uiso   1.00
C61    C     0.68000   0.08740   0.26240   0.01267  Uiso   1.00
C62    C     0.62280   0.02610   0.26890   0.01267  Uiso   1.00
C63    C     0.57460   0.17290   0.30360   0.01267  Uiso   1.00
C64    C     0.51190   0.11340   0.31170   0.01267  Uiso   1.00
C65    C     0.31920   0.92750   0.27360   0.01267  Uiso   1.00
C66    C     0.38000   0.98900   0.27440   0.01267  Uiso   1.00
C67    C     0.42890   0.84280   0.31390   0.01267  Uiso   1.00
C68    C     0.49180   0.90030   0.31580   0.01267  Uiso   1.00
C69    C     0.46790   0.97540   0.29550   0.01267  Uiso   1.00
C70    C     0.53480   0.03890   0.29290   0.01267  Uiso   1.00
C71    C     0.68000   0.91260   0.73760   0.01267  Uiso   1.00
C72    C     0.62280   0.97390   0.73110   0.01267  Uiso   1.00
C73    C     0.57460   0.82710   0.69640   0.01267  Uiso   1.00
C74    C     0.51190   0.88660   0.68830   0.01267  Uiso   1.00
C75    C     0.31920   0.07250   0.72640   0.01267  Uiso   1.00
C76    C     0.38000   0.01100   0.72560   0.01267  Uiso   1.00
C77    C     0.42890   0.15720   0.68610   0.01267  Uiso   1.00
C78    C     0.49180   0.09970   0.68420   0.01267  Uiso   1.00
C79    C     0.46790   0.02460   0.70450   0.01267  Uiso   1.00
C80    C     0.53480   0.96110   0.70710   0.01267  Uiso   1.00
N1     N     0.84230   0.77810   0.65990   0.01267  Uiso   1.00
N2     N     0.15690   0.79150   0.35450   0.01267  Uiso   1.00
N3     N     0.84230   0.22190   0.34010   0.01267  Uiso   1.00
N4     N     0.15690   0.20850   0.64550   0.01267  Uiso   1.00
N5     N     0.15770   0.65990   0.22190   0.01267  Uiso   1.00
N6     N     0.84310   0.35450   0.20850   0.01267  Uiso   1.00
N7     N     0.15770   0.34010   0.77810   0.01267  Uiso   1.00
N8     N     0.84310   0.64550   0.79150   0.01267  Uiso   1.00
N9     N     0.34230   0.27810   0.84010   0.01267  Uiso   1.00
N10    N     0.65690   0.29150   0.14550   0.01267  Uiso   1.00
N11    N     0.34230   0.72190   0.15990   0.01267  Uiso   1.00
N12    N     0.65690   0.70850   0.85450   0.01267  Uiso   1.00
N13    N     0.65770   0.15990   0.27810   0.01267  Uiso   1.00
N14    N     0.34310   0.85450   0.29150   0.01267  Uiso   1.00
N15    N     0.65770   0.84010   0.72190   0.01267  Uiso   1.00
N16    N     0.34310   0.14550   0.70850   0.01267  Uiso   1.00
O1     O     0.81940   0.81760   0.83480   0.01267  Uiso   1.00
O2     O     0.82110   0.87160   0.99300   0.01267  Uiso   1.00
O3     O     0.96260   0.81660   0.94460   0.01267  Uiso   1.00
O4     O     0.68690   0.90010   0.11380   0.01267  Uiso   1.00
O5     O     0.82140   0.97910   0.87360   0.01267  Uiso   1.00
O6     O     0.88000   0.88150   0.13270   0.01267  Uiso   1.00
O7     O     0.96370   0.92470   0.82390   0.01267  Uiso   1.00
O8     O     0.87740   0.73400   0.07150   0.01267  Uiso   1.00
O9     O     0.11940   0.72670   0.96080   0.01267  Uiso   1.00
O10    O     0.81940   0.18240   0.16520   0.01267  Uiso   1.00
O11    O     0.82110   0.12840   0.00700   0.01267  Uiso   1.00
O12    O     0.96260   0.18340   0.05540   0.01267  Uiso   1.00
O13    O     0.68690   0.09990   0.88620   0.01267  Uiso   1.00
O14    O     0.82140   0.02090   0.12640   0.01267  Uiso   1.00
O15    O     0.88000   0.11850   0.86730   0.01267  Uiso   1.00
O16    O     0.96370   0.07530   0.17610   0.01267  Uiso   1.00
O17    O     0.87740   0.26600   0.92850   0.01267  Uiso   1.00
O18    O     0.11940   0.27330   0.03920   0.01267  Uiso   1.00
O19    O     0.18060   0.83480   0.18240   0.01267  Uiso   1.00
O20    O     0.17890   0.99300   0.12840   0.01267  Uiso   1.00
O21    O     0.03740   0.94460   0.18340   0.01267  Uiso   1.00
O22    O     0.31310   0.11380   0.09990   0.01267  Uiso   1.00
O23    O     0.17860   0.87360   0.02090   0.01267  Uiso   1.00
O24    O     0.12000   0.13270   0.11850   0.01267  Uiso   1.00
O25    O     0.03630   0.82390   0.07530   0.01267  Uiso   1.00
O26    O     0.12260   0.07150   0.26600   0.01267  Uiso   1.00
O27    O     0.88060   0.96080   0.27330   0.01267  Uiso   1.00
O28    O     0.18060   0.16520   0.81760   0.01267  Uiso   1.00
O29    O     0.17890   0.00700   0.87160   0.01267  Uiso   1.00
O30    O     0.03740   0.05540   0.81660   0.01267  Uiso   1.00
O31    O     0.31310   0.88620   0.90010   0.01267  Uiso   1.00
O32    O     0.17860   0.12640   0.97910   0.01267  Uiso   1.00
O33    O     0.12000   0.86730   0.88150   0.01267  Uiso   1.00
O34    O     0.03630   0.17610   0.92470   0.01267  Uiso   1.00
O35    O     0.12260   0.92850   0.73400   0.01267  Uiso   1.00
O36    O     0.88060   0.03920   0.72670   0.01267  Uiso   1.00
O37    O     0.31940   0.31760   0.66520   0.01267  Uiso   1.00
O38    O     0.32110   0.37160   0.50700   0.01267  Uiso   1.00
O39    O     0.46260   0.31660   0.55540   0.01267  Uiso   1.00
O40    O     0.18690   0.40010   0.38620   0.01267  Uiso   1.00
O41    O     0.32140   0.47910   0.62640   0.01267  Uiso   1.00
O42    O     0.38000   0.38150   0.36730   0.01267  Uiso   1.00
O43    O     0.46370   0.42470   0.67610   0.01267  Uiso   1.00
O44    O     0.37740   0.23400   0.42850   0.01267  Uiso   1.00
O45    O     0.61940   0.22670   0.53920   0.01267  Uiso   1.00
O46    O     0.31940   0.68240   0.33480   0.01267  Uiso   1.00
O47    O     0.32110   0.62840   0.49300   0.01267  Uiso   1.00
O48    O     0.46260   0.68340   0.44460   0.01267  Uiso   1.00
O49    O     0.18690   0.59990   0.61380   0.01267  Uiso   1.00
O50    O     0.32140   0.52090   0.37360   0.01267  Uiso   1.00
O51    O     0.38000   0.61850   0.63270   0.01267  Uiso   1.00
O52    O     0.46370   0.57530   0.32390   0.01267  Uiso   1.00
O53    O     0.37740   0.76600   0.57150   0.01267  Uiso   1.00
O54    O     0.61940   0.77330   0.46080   0.01267  Uiso   1.00
O55    O     0.68060   0.33480   0.31760   0.01267  Uiso   1.00
O56    O     0.67890   0.49300   0.37160   0.01267  Uiso   1.00
O57    O     0.53740   0.44460   0.31660   0.01267  Uiso   1.00
O58    O     0.81310   0.61380   0.40010   0.01267  Uiso   1.00
O59    O     0.67860   0.37360   0.47910   0.01267  Uiso   1.00
O60    O     0.62000   0.63270   0.38150   0.01267  Uiso   1.00
O61    O     0.53630   0.32390   0.42470   0.01267  Uiso   1.00
O62    O     0.62260   0.57150   0.23400   0.01267  Uiso   1.00
O63    O     0.38060   0.46080   0.22670   0.01267  Uiso   1.00
O64    O     0.68060   0.66520   0.68240   0.01267  Uiso   1.00
O65    O     0.67890   0.50700   0.62840   0.01267  Uiso   1.00
O66    O     0.53740   0.55540   0.68340   0.01267  Uiso   1.00
O67    O     0.81310   0.38620   0.59990   0.01267  Uiso   1.00
O68    O     0.67860   0.62640   0.52090   0.01267  Uiso   1.00
O69    O     0.62000   0.36730   0.61850   0.01267  Uiso   1.00
O70    O     0.53630   0.67610   0.57530   0.01267  Uiso   1.00
O71    O     0.62260   0.42850   0.76600   0.01267  Uiso   1.00
O72    O     0.38060   0.53920   0.77330   0.01267  Uiso   1.00
O73    O     0.71830   0.00000   0.00000   0.01267  Uiso   1.00
O74    O     0.28170   0.00000   0.00000   0.01267  Uiso   1.00
O75    O     0.21830   0.50000   0.50000   0.01267  Uiso   1.00
O76    O     0.78170   0.50000   0.50000   0.01267  Uiso   1.00
Cl1    Cl    0.00000   0.00000   0.00000   0.01267  Uiso   1.00
Cl2    Cl    0.50000   0.50000   0.50000   0.01267  Uiso   1.00
