data_image0
_cell_length_a       7.10909
_cell_length_b       14.5399
_cell_length_c       16.7754
_cell_angle_alpha    104.119
_cell_angle_beta     102.233
_cell_angle_gamma    90

_symmetry_space_group_name_H-M    P 1
_symmetry_int_tables_number       1

loop_
  _symmetry_equiv_pos_as_xyz
  'x, y, z'

loop_
  _atom_site_label
  _atom_site_occupancy
  _atom_site_fract_x
  _atom_site_fract_y
  _atom_site_fract_z
  _atom_site_thermal_displace_type
  _atom_site_B_iso_or_equiv
  _atom_site_type_symbol
  Eu1      1.0000 0.50907  0.96882  0.50256  Biso   1.000  Eu
  Eu2      1.0000 0.00651  0.03118  0.49744  Biso   1.000  Eu
  H1       1.0000 0.28740  0.52700  0.10040  Biso   1.000  H
  H2       1.0000 0.30970  0.43380  0.03300  Biso   1.000  H
  H3       1.0000 0.88980  0.49500  0.11380  Biso   1.000  H
  H4       1.0000 0.91490  0.42820  0.17580  Biso   1.000  H
  H5       1.0000 0.37600  0.34560  0.13220  Biso   1.000  H
  H6       1.0000 0.36000  0.43400  0.20580  Biso   1.000  H
  H7       1.0000 0.95250  0.28760  0.07060  Biso   1.000  H
  H8       1.0000 0.89030  0.35360  0.00920  Biso   1.000  H
  H9       1.0000 0.58720  0.34020  0.25140  Biso   1.000  H
  H10      1.0000 0.78900  0.26230  0.33800  Biso   1.000  H
  H11      1.0000 0.33740  0.12720  0.37280  Biso   1.000  H
  H12      1.0000 0.13540  0.20300  0.28340  Biso   1.000  H
  H13      1.0000 0.26100  0.20980  0.86560  Biso   1.000  H
  H14      1.0000 0.11830  0.11950  0.73200  Biso   1.000  H
  H15      1.0000 0.61140  0.12730  0.79880  Biso   1.000  H
  H16      1.0000 0.75710  0.21540  0.93400  Biso   1.000  H
  H17      1.0000 0.70850  0.56210  0.20320  Biso   1.000  H
  H18      1.0000 0.56190  0.68350  0.28060  Biso   1.000  H
  H19      1.0000 0.07320  0.79000  0.42400  Biso   1.000  H
  H20      1.0000 0.22220  0.67170  0.34340  Biso   1.000  H
  H21      1.0000 0.18700  0.47300  0.89960  Biso   1.000  H
  H22      1.0000 0.27670  0.56620  0.96700  Biso   1.000  H
  H23      1.0000 0.77600  0.50500  0.88620  Biso   1.000  H
  H24      1.0000 0.73910  0.57180  0.82420  Biso   1.000  H
  H25      1.0000 0.24380  0.65440  0.86780  Biso   1.000  H
  H26      1.0000 0.15420  0.56600  0.79420  Biso   1.000  H
  H27      1.0000 0.88190  0.71240  0.92940  Biso   1.000  H
  H28      1.0000 0.88110  0.64640  0.99080  Biso   1.000  H
  H29      1.0000 0.33580  0.65980  0.74860  Biso   1.000  H
  H30      1.0000 0.45100  0.73770  0.66200  Biso   1.000  H
  H31      1.0000 0.96460  0.87280  0.62720  Biso   1.000  H
  H32      1.0000 0.85200  0.79700  0.71660  Biso   1.000  H
  H33      1.0000 0.39540  0.79020  0.13440  Biso   1.000  H
  H34      1.0000 0.38630  0.88050  0.26800  Biso   1.000  H
  H35      1.0000 0.81260  0.87270  0.20120  Biso   1.000  H
  H36      1.0000 0.82310  0.78460  0.06600  Biso   1.000  H
  H37      1.0000 0.50530  0.43790  0.79680  Biso   1.000  H
  H38      1.0000 0.28130  0.31650  0.71940  Biso   1.000  H
  H39      1.0000 0.64920  0.21000  0.57600  Biso   1.000  H
  H40      1.0000 0.87880  0.32830  0.65660  Biso   1.000  H
  C1       1.0000 0.12200  0.41310  0.10640  Biso   1.000  C
  C2       1.0000 0.21800  0.47150  0.06040  Biso   1.000  C
  C3       1.0000 0.98340  0.46910  0.15240  Biso   1.000  C
  C4       1.0000 0.28870  0.37970  0.16480  Biso   1.000  C
  C5       1.0000 0.00020  0.32990  0.04180  Biso   1.000  C
  C6       1.0000 0.34140  0.27770  0.25820  Biso   1.000  C
  C7       1.0000 0.53630  0.29660  0.27460  Biso   1.000  C
  C8       1.0000 0.65640  0.24930  0.32680  Biso   1.000  C
  C9       1.0000 0.58810  0.18460  0.36220  Biso   1.000  C
  C10      1.0000 0.38880  0.16840  0.34760  Biso   1.000  C
  C11      1.0000 0.26820  0.21500  0.29440  Biso   1.000  C
  C12      1.0000 0.02200  0.22280  0.91160  Biso   1.000  C
  C13      1.0000 0.12960  0.19320  0.85220  Biso   1.000  C
  C14      1.0000 0.04480  0.13860  0.77240  Biso   1.000  C
  C15      1.0000 0.84920  0.11290  0.75300  Biso   1.000  C
  C16      1.0000 0.74310  0.14290  0.81220  Biso   1.000  C
  C17      1.0000 0.82970  0.19710  0.89320  Biso   1.000  C
  C18      1.0000 0.74770  0.05880  0.66680  Biso   1.000  C
  C19      1.0000 0.97980  0.60840  0.26160  Biso   1.000  C
  C20      1.0000 0.78300  0.60910  0.24600  Biso   1.000  C
  C21      1.0000 0.69520  0.68000  0.29440  Biso   1.000  C
  C22      1.0000 0.80290  0.74540  0.36240  Biso   1.000  C
  C23      1.0000 0.99950  0.74420  0.37960  Biso   1.000  C
  C24      1.0000 0.08890  0.67430  0.33040  Biso   1.000  C
  C25      1.0000 0.70200  0.82290  0.41200  Biso   1.000  C
  C26      1.0000 0.72190  0.13520  0.41600  Biso   1.000  C
  C27      1.0000 0.01560  0.58690  0.89360  Biso   1.000  C
  C28      1.0000 0.15760  0.52850  0.93960  Biso   1.000  C
  C29      1.0000 0.83100  0.53090  0.84760  Biso   1.000  C
  C30      1.0000 0.12390  0.62030  0.83520  Biso   1.000  C
  C31      1.0000 0.95840  0.67010  0.95820  Biso   1.000  C
  C32      1.0000 0.08320  0.72230  0.74180  Biso   1.000  C
  C33      1.0000 0.26170  0.70340  0.72540  Biso   1.000  C
  C34      1.0000 0.32960  0.75070  0.67320  Biso   1.000  C
  C35      1.0000 0.22590  0.81540  0.63780  Biso   1.000  C
  C36      1.0000 0.04120  0.83160  0.65240  Biso   1.000  C
  C37      1.0000 0.97380  0.78500  0.70560  Biso   1.000  C
  C38      1.0000 0.11040  0.77720  0.08840  Biso   1.000  C
  C39      1.0000 0.27740  0.80680  0.14780  Biso   1.000  C
  C40      1.0000 0.27240  0.86140  0.22760  Biso   1.000  C
  C41      1.0000 0.09620  0.88710  0.24700  Biso   1.000  C
  C42      1.0000 0.93090  0.85710  0.18780  Biso   1.000  C
  C43      1.0000 0.93650  0.80290  0.10680  Biso   1.000  C
  C44      1.0000 0.08090  0.94120  0.33320  Biso   1.000  C
  C45      1.0000 0.71820  0.39160  0.73840  Biso   1.000  C
  C46      1.0000 0.53700  0.39090  0.75400  Biso   1.000  C
  C47      1.0000 0.40080  0.32000  0.70560  Biso   1.000  C
  C48      1.0000 0.44050  0.25460  0.63760  Biso   1.000  C
  C49      1.0000 0.61990  0.25580  0.62040  Biso   1.000  C
  C50      1.0000 0.75850  0.32570  0.66960  Biso   1.000  C
  C51      1.0000 0.29000  0.17710  0.58800  Biso   1.000  C
  C52      1.0000 0.30590  0.86480  0.58400  Biso   1.000  C
  O1       1.0000 0.83110  0.04050  0.60480  Biso   1.000  O
  O2       1.0000 0.58042  0.03330  0.65484  Biso   1.000  O
  O3       1.0000 0.90050  0.15930  0.43520  Biso   1.000  O
  O4       1.0000 0.65940  0.06640  0.44040  Biso   1.000  O
  O5       1.0000 0.80210  0.88890  0.47120  Biso   1.000  O
  O6       1.0000 0.52390  0.82340  0.39620  Biso   1.000  O
  O7       1.0000 0.21130  0.31800  0.20740  Biso   1.000  O
  O8       1.0000 0.08880  0.54450  0.21840  Biso   1.000  O
  O9       1.0000 0.11460  0.27930  0.98720  Biso   1.000  O
  O10      1.0000 0.22630  0.95950  0.39520  Biso   1.000  O
  O11      1.0000 0.92558  0.96670  0.34516  Biso   1.000  O
  O12      1.0000 0.46530  0.84070  0.56480  Biso   1.000  O
  O13      1.0000 0.21900  0.93360  0.55960  Biso   1.000  O
  O14      1.0000 0.33090  0.11110  0.52880  Biso   1.000  O
  O15      1.0000 0.12770  0.17660  0.60380  Biso   1.000  O
  O16      1.0000 0.00390  0.68200  0.79260  Biso   1.000  O
  O17      1.0000 0.87040  0.45550  0.78160  Biso   1.000  O
  O18      1.0000 0.12740  0.72070  0.01280  Biso   1.000  O
  O19      1.0000 0.07740  0.50000  0.00000  Biso   1.000  O
