data_image0
_cell_length_a       9.16639
_cell_length_b       9.1664
_cell_length_c       14.969
_cell_angle_alpha    79.9664
_cell_angle_beta     79.9667
_cell_angle_gamma    115.529

_symmetry_space_group_name_H-M    P 1
_symmetry_int_tables_number       1

loop_
  _symmetry_equiv_pos_as_xyz
  'x, y, z'

loop_
  _atom_site_label
  _atom_site_occupancy
  _atom_site_fract_x
  _atom_site_fract_y
  _atom_site_fract_z
  _atom_site_thermal_displace_type
  _atom_site_B_iso_or_equiv
  _atom_site_type_symbol
  La1      1.0000 0.25916  0.50916  0.48168  Biso   1.000  La
  La2      1.0000 0.49084  0.74084  0.01832  Biso   1.000  La
  La3      1.0000 0.74084  0.49084  0.51832  Biso   1.000  La
  La4      1.0000 0.50916  0.25916  0.98168  Biso   1.000  La
  H1       1.0000 0.30800  0.86800  0.57000  Biso   1.000  H
  H2       1.0000 0.12200  0.06200  0.57000  Biso   1.000  H
  H3       1.0000 0.13200  0.69200  0.93000  Biso   1.000  H
  H4       1.0000 0.93800  0.87800  0.93000  Biso   1.000  H
  H5       1.0000 0.69200  0.13200  0.43000  Biso   1.000  H
  H6       1.0000 0.87800  0.93800  0.43000  Biso   1.000  H
  H7       1.0000 0.86800  0.30800  0.07000  Biso   1.000  H
  H8       1.0000 0.06200  0.12200  0.07000  Biso   1.000  H
  C1       1.0000 0.05917  0.75137  0.55826  Biso   1.000  C
  C2       1.0000 0.21284  0.89444  0.56432  Biso   1.000  C
  C3       1.0000 0.38257  0.19037  0.55826  Biso   1.000  C
  C4       1.0000 0.22284  0.04124  0.56432  Biso   1.000  C
  C5       1.0000 0.24863  0.94083  0.94174  Biso   1.000  C
  C6       1.0000 0.10556  0.78716  0.93568  Biso   1.000  C
  C7       1.0000 0.80963  0.61743  0.94174  Biso   1.000  C
  C8       1.0000 0.95876  0.77716  0.93568  Biso   1.000  C
  C9       1.0000 0.94083  0.24863  0.44174  Biso   1.000  C
  C10      1.0000 0.78716  0.10556  0.43568  Biso   1.000  C
  C11      1.0000 0.61743  0.80963  0.44174  Biso   1.000  C
  C12      1.0000 0.77716  0.95876  0.43568  Biso   1.000  C
  C13      1.0000 0.75137  0.05917  0.05826  Biso   1.000  C
  C14      1.0000 0.89444  0.21284  0.06432  Biso   1.000  C
  C15      1.0000 0.19037  0.38257  0.05826  Biso   1.000  C
  C16      1.0000 0.04124  0.22284  0.06432  Biso   1.000  C
  C17      1.0000 0.32460  0.67540  0.25000  Biso   1.000  C
  C18      1.0000 0.42540  0.57460  0.25000  Biso   1.000  C
  C19      1.0000 0.67540  0.32460  0.75000  Biso   1.000  C
  C20      1.0000 0.57460  0.42540  0.75000  Biso   1.000  C
  O1       1.0000 0.23841  0.66119  0.32840  Biso   1.000  O
  O2       1.0000 0.07629  0.63451  0.53260  Biso   1.000  O
  O3       1.0000 0.33335  0.59045  0.63160  Biso   1.000  O
  O4       1.0000 0.91780  0.74802  0.57558  Biso   1.000  O
  O5       1.0000 0.43319  0.51041  0.32840  Biso   1.000  O
  O6       1.0000 0.39111  0.33289  0.53260  Biso   1.000  O
  O7       1.0000 0.03505  0.27795  0.63160  Biso   1.000  O
  O8       1.0000 0.50662  0.17640  0.57558  Biso   1.000  O
  O9       1.0000 0.33881  0.76159  0.17160  Biso   1.000  O
  O10      1.0000 0.36549  0.92371  0.96740  Biso   1.000  O
  O11      1.0000 0.40955  0.66665  0.86840  Biso   1.000  O
  O12      1.0000 0.25198  0.08220  0.92442  Biso   1.000  O
  O13      1.0000 0.48959  0.56681  0.17160  Biso   1.000  O
  O14      1.0000 0.66711  0.60889  0.96740  Biso   1.000  O
  O15      1.0000 0.72205  0.96495  0.86840  Biso   1.000  O
  O16      1.0000 0.82360  0.49338  0.92442  Biso   1.000  O
  O17      1.0000 0.76159  0.33881  0.67160  Biso   1.000  O
  O18      1.0000 0.92371  0.36549  0.46740  Biso   1.000  O
  O19      1.0000 0.66665  0.40955  0.36840  Biso   1.000  O
  O20      1.0000 0.08220  0.25198  0.42442  Biso   1.000  O
  O21      1.0000 0.56681  0.48959  0.67160  Biso   1.000  O
  O22      1.0000 0.60889  0.66711  0.46740  Biso   1.000  O
  O23      1.0000 0.96495  0.72205  0.36840  Biso   1.000  O
  O24      1.0000 0.49338  0.82360  0.42442  Biso   1.000  O
  O25      1.0000 0.66119  0.23841  0.82840  Biso   1.000  O
  O26      1.0000 0.63451  0.07629  0.03260  Biso   1.000  O
  O27      1.0000 0.59045  0.33335  0.13160  Biso   1.000  O
  O28      1.0000 0.74802  0.91780  0.07558  Biso   1.000  O
  O29      1.0000 0.51041  0.43319  0.82840  Biso   1.000  O
  O30      1.0000 0.33289  0.39111  0.03260  Biso   1.000  O
  O31      1.0000 0.27795  0.03505  0.13160  Biso   1.000  O
  O32      1.0000 0.17640  0.50662  0.07558  Biso   1.000  O
