data_image0
_cell_length_a       6.17512
_cell_length_b       14.7508
_cell_length_c       17.144
_cell_angle_alpha    98.6407
_cell_angle_beta     90
_cell_angle_gamma    102.082

_symmetry_space_group_name_H-M    P 1
_symmetry_int_tables_number       1

loop_
  _symmetry_equiv_pos_as_xyz
  'x, y, z'

loop_
  _atom_site_label
  _atom_site_occupancy
  _atom_site_fract_x
  _atom_site_fract_y
  _atom_site_fract_z
  _atom_site_thermal_displace_type
  _atom_site_B_iso_or_equiv
  _atom_site_type_symbol
  Zn1      1.0000 0.58053  0.00000  0.75000  Biso   1.000  Zn
  Zn2      1.0000 0.41947  0.00000  0.25000  Biso   1.000  Zn
  H1       1.0000 0.41440  0.63760  0.65140  Biso   1.000  H
  H2       1.0000 0.00160  0.82060  0.64620  Biso   1.000  H
  H3       1.0000 0.14910  0.70400  0.57060  Biso   1.000  H
  H4       1.0000 0.56280  0.52020  0.57820  Biso   1.000  H
  H5       1.0000 0.12710  0.89860  0.78850  Biso   1.000  H
  H6       1.0000 0.57400  0.09220  0.91770  Biso   1.000  H
  H7       1.0000 0.33710  0.09900  0.02090  Biso   1.000  H
  H8       1.0000 0.87800  0.90100  0.88660  Biso   1.000  H
  H9       1.0000 0.77680  0.36240  0.84860  Biso   1.000  H
  H10      1.0000 0.18100  0.17940  0.85380  Biso   1.000  H
  H11      1.0000 0.44510  0.29600  0.92940  Biso   1.000  H
  H12      1.0000 0.04260  0.47980  0.92180  Biso   1.000  H
  H13      1.0000 0.22850  0.10140  0.71150  Biso   1.000  H
  H14      1.0000 0.48180  0.90780  0.58230  Biso   1.000  H
  H15      1.0000 0.23810  0.90100  0.47910  Biso   1.000  H
  H16      1.0000 0.97700  0.09900  0.61340  Biso   1.000  H
  H17      1.0000 0.58560  0.36240  0.34860  Biso   1.000  H
  H18      1.0000 0.99840  0.17940  0.35380  Biso   1.000  H
  H19      1.0000 0.85090  0.29600  0.42940  Biso   1.000  H
  H20      1.0000 0.43720  0.47980  0.42180  Biso   1.000  H
  H21      1.0000 0.87290  0.10140  0.21150  Biso   1.000  H
  H22      1.0000 0.42600  0.90780  0.08230  Biso   1.000  H
  H23      1.0000 0.66290  0.90100  0.97910  Biso   1.000  H
  H24      1.0000 0.12200  0.09900  0.11340  Biso   1.000  H
  H25      1.0000 0.22320  0.63760  0.15140  Biso   1.000  H
  H26      1.0000 0.81900  0.82060  0.14620  Biso   1.000  H
  H27      1.0000 0.55490  0.70400  0.07060  Biso   1.000  H
  H28      1.0000 0.95740  0.52020  0.07820  Biso   1.000  H
  H29      1.0000 0.77150  0.89860  0.28850  Biso   1.000  H
  H30      1.0000 0.51820  0.09220  0.41770  Biso   1.000  H
  H31      1.0000 0.76190  0.09900  0.52090  Biso   1.000  H
  H32      1.0000 0.02300  0.90100  0.38660  Biso   1.000  H
  C1       1.0000 0.59714  0.81848  0.69990  Biso   1.000  C
  C2       1.0000 0.69613  0.74106  0.65540  Biso   1.000  C
  C3       1.0000 0.56339  0.65078  0.63520  Biso   1.000  C
  C4       1.0000 0.91201  0.75962  0.63180  Biso   1.000  C
  C5       1.0000 0.00051  0.69002  0.58710  Biso   1.000  C
  C6       1.0000 0.65175  0.58150  0.59160  Biso   1.000  C
  C7       1.0000 0.87159  0.60038  0.56670  Biso   1.000  C
  C8       1.0000 0.96053  0.52906  0.51970  Biso   1.000  C
  C9       1.0000 0.16959  0.93998  0.83650  Biso   1.000  C
  C10      1.0000 0.43049  0.05258  0.91170  Biso   1.000  C
  C11      1.0000 0.28982  0.05684  0.97360  Biso   1.000  C
  C12      1.0000 0.02110  0.94060  0.89470  Biso   1.000  C
  C13      1.0000 0.07871  0.99982  0.96710  Biso   1.000  C
  C14      1.0000 0.77866  0.18152  0.80010  Biso   1.000  C
  C15      1.0000 0.95507  0.25894  0.84460  Biso   1.000  C
  C16      1.0000 0.91261  0.34922  0.86480  Biso   1.000  C
  C17      1.0000 0.15239  0.24038  0.86820  Biso   1.000  C
  C18      1.0000 0.31049  0.30998  0.91290  Biso   1.000  C
  C19      1.0000 0.07025  0.41850  0.90840  Biso   1.000  C
  C20      1.0000 0.27121  0.39962  0.93330  Biso   1.000  C
  C21      1.0000 0.43147  0.47094  0.98030  Biso   1.000  C
  C22      1.0000 0.22961  0.06002  0.66350  Biso   1.000  C
  C23      1.0000 0.37791  0.94742  0.58830  Biso   1.000  C
  C24      1.0000 0.23298  0.94316  0.52640  Biso   1.000  C
  C25      1.0000 0.08050  0.05940  0.60530  Biso   1.000  C
  C26      1.0000 0.07889  0.00018  0.53290  Biso   1.000  C
  C27      1.0000 0.40286  0.18152  0.30010  Biso   1.000  C
  C28      1.0000 0.30387  0.25894  0.34460  Biso   1.000  C
  C29      1.0000 0.43661  0.34922  0.36480  Biso   1.000  C
  C30      1.0000 0.08799  0.24038  0.36820  Biso   1.000  C
  C31      1.0000 0.99949  0.30998  0.41290  Biso   1.000  C
  C32      1.0000 0.34825  0.41850  0.40840  Biso   1.000  C
  C33      1.0000 0.12841  0.39962  0.43330  Biso   1.000  C
  C34      1.0000 0.03947  0.47094  0.48030  Biso   1.000  C
  C35      1.0000 0.83041  0.06002  0.16350  Biso   1.000  C
  C36      1.0000 0.56951  0.94742  0.08830  Biso   1.000  C
  C37      1.0000 0.71018  0.94316  0.02640  Biso   1.000  C
  C38      1.0000 0.97890  0.05940  0.10530  Biso   1.000  C
  C39      1.0000 0.92129  0.00018  0.03290  Biso   1.000  C
  C40      1.0000 0.22134  0.81848  0.19990  Biso   1.000  C
  C41      1.0000 0.04493  0.74106  0.15540  Biso   1.000  C
  C42      1.0000 0.08739  0.65078  0.13520  Biso   1.000  C
  C43      1.0000 0.84761  0.75962  0.13180  Biso   1.000  C
  C44      1.0000 0.68951  0.69002  0.08710  Biso   1.000  C
  C45      1.0000 0.92975  0.58150  0.09160  Biso   1.000  C
  C46      1.0000 0.72879  0.60038  0.06670  Biso   1.000  C
  C47      1.0000 0.56853  0.52906  0.01970  Biso   1.000  C
  C48      1.0000 0.77039  0.93998  0.33650  Biso   1.000  C
  C49      1.0000 0.62209  0.05258  0.41170  Biso   1.000  C
  C50      1.0000 0.76702  0.05684  0.47360  Biso   1.000  C
  C51      1.0000 0.91950  0.94060  0.39470  Biso   1.000  C
  C52      1.0000 0.92111  0.99982  0.46710  Biso   1.000  C
  N1       1.0000 0.37448  0.99516  0.84330  Biso   1.000  N
  N2       1.0000 0.37932  0.00484  0.65670  Biso   1.000  N
  N3       1.0000 0.62552  0.00484  0.15670  Biso   1.000  N
  N4       1.0000 0.62068  0.99516  0.34330  Biso   1.000  N
  O1       1.0000 0.73098  0.89896  0.71438  Biso   1.000  O
  O2       1.0000 0.40106  0.80372  0.71659  Biso   1.000  O
  O3       1.0000 0.83202  0.10104  0.78562  Biso   1.000  O
  O4       1.0000 0.59734  0.19628  0.78341  Biso   1.000  O
  O5       1.0000 0.26902  0.10104  0.28562  Biso   1.000  O
  O6       1.0000 0.59894  0.19628  0.28341  Biso   1.000  O
  O7       1.0000 0.16798  0.89896  0.21438  Biso   1.000  O
  O8       1.0000 0.40266  0.80372  0.21659  Biso   1.000  O
