data_image0
_cell_length_a       14.0828
_cell_length_b       21.4518
_cell_length_c       28.2518
_cell_angle_alpha    90
_cell_angle_beta     90
_cell_angle_gamma    93.56

_symmetry_space_group_name_H-M    P 1
_symmetry_int_tables_number       1

loop_
  _symmetry_equiv_pos_as_xyz
  'x, y, z'

loop_
  _atom_site_label
  _atom_site_occupancy
  _atom_site_fract_x
  _atom_site_fract_y
  _atom_site_fract_z
  _atom_site_thermal_displace_type
  _atom_site_B_iso_or_equiv
  _atom_site_type_symbol
  Zn1      1.0000 0.89093  0.74522  0.30998  Biso   1.000  Zn
  Zn2      1.0000 0.10358  0.75466  0.31025  Biso   1.000  Zn
  Zn3      1.0000 0.10907  0.25478  0.80998  Biso   1.000  Zn
  Zn4      1.0000 0.89642  0.24534  0.81025  Biso   1.000  Zn
  H1       1.0000 0.13640  0.64250  0.42810  Biso   1.000  H
  H2       1.0000 0.84840  0.61070  0.42950  Biso   1.000  H
  H3       1.0000 0.86190  0.55670  0.49970  Biso   1.000  H
  H4       1.0000 0.86650  0.43300  0.62040  Biso   1.000  H
  H5       1.0000 0.85900  0.36240  0.68500  Biso   1.000  H
  H6       1.0000 0.14280  0.40000  0.70700  Biso   1.000  H
  H7       1.0000 0.14400  0.88530  0.43060  Biso   1.000  H
  H8       1.0000 0.85690  0.86010  0.42710  Biso   1.000  H
  H9       1.0000 0.13450  0.94700  0.49710  Biso   1.000  H
  H10      1.0000 0.13340  0.07910  0.61320  Biso   1.000  H
  H11      1.0000 0.85840  0.09920  0.70690  Biso   1.000  H
  H12      1.0000 0.14200  0.13970  0.68180  Biso   1.000  H
  H13      1.0000 0.73780  0.79250  0.24860  Biso   1.000  H
  H14      1.0000 0.72820  0.70710  0.37290  Biso   1.000  H
  H15      1.0000 0.57620  0.79650  0.24820  Biso   1.000  H
  H16      1.0000 0.56450  0.71510  0.37730  Biso   1.000  H
  H17      1.0000 0.42190  0.71250  0.24850  Biso   1.000  H
  H18      1.0000 0.42640  0.79790  0.37680  Biso   1.000  H
  H19      1.0000 0.26420  0.79770  0.37160  Biso   1.000  H
  H20      1.0000 0.25900  0.71130  0.25090  Biso   1.000  H
  H21      1.0000 0.86360  0.35750  0.92810  Biso   1.000  H
  H22      1.0000 0.15160  0.38930  0.92950  Biso   1.000  H
  H23      1.0000 0.13810  0.44330  0.99970  Biso   1.000  H
  H24      1.0000 0.13350  0.56700  0.12040  Biso   1.000  H
  H25      1.0000 0.14100  0.63760  0.18500  Biso   1.000  H
  H26      1.0000 0.85720  0.60000  0.20700  Biso   1.000  H
  H27      1.0000 0.85600  0.11470  0.93060  Biso   1.000  H
  H28      1.0000 0.14310  0.13990  0.92710  Biso   1.000  H
  H29      1.0000 0.86550  0.05300  0.99710  Biso   1.000  H
  H30      1.0000 0.86660  0.92090  0.11320  Biso   1.000  H
  H31      1.0000 0.14160  0.90080  0.20690  Biso   1.000  H
  H32      1.0000 0.85800  0.86030  0.18180  Biso   1.000  H
  H33      1.0000 0.26220  0.20750  0.74860  Biso   1.000  H
  H34      1.0000 0.27180  0.29290  0.87290  Biso   1.000  H
  H35      1.0000 0.42380  0.20350  0.74820  Biso   1.000  H
  H36      1.0000 0.43550  0.28490  0.87730  Biso   1.000  H
  H37      1.0000 0.57810  0.28750  0.74850  Biso   1.000  H
  H38      1.0000 0.57360  0.20210  0.87680  Biso   1.000  H
  H39      1.0000 0.73580  0.20230  0.87160  Biso   1.000  H
  H40      1.0000 0.74100  0.28870  0.75090  Biso   1.000  H
  C1       1.0000 0.00550  0.16800  0.74280  Biso   1.000  C
  C2       1.0000 0.98420  0.67130  0.37760  Biso   1.000  C
  C3       1.0000 0.99200  0.63260  0.42280  Biso   1.000  C
  C4       1.0000 0.08040  0.62560  0.44330  Biso   1.000  C
  C5       1.0000 0.90900  0.60620  0.44350  Biso   1.000  C
  C6       1.0000 0.08730  0.59360  0.48640  Biso   1.000  C
  C7       1.0000 0.91830  0.57360  0.48480  Biso   1.000  C
  C8       1.0000 0.00290  0.56370  0.50590  Biso   1.000  C
  C9       1.0000 0.00840  0.52770  0.54890  Biso   1.000  C
  C10      1.0000 0.00980  0.49450  0.58220  Biso   1.000  C
  C11      1.0000 0.00970  0.45560  0.62190  Biso   1.000  C
  C12      1.0000 0.09130  0.44450  0.64700  Biso   1.000  C
  C13      1.0000 0.92310  0.42540  0.63710  Biso   1.000  C
  C14      1.0000 0.91740  0.38410  0.67650  Biso   1.000  C
  C15      1.0000 0.08690  0.40550  0.68910  Biso   1.000  C
  C16      1.0000 0.00110  0.37650  0.70270  Biso   1.000  C
  C17      1.0000 0.99930  0.33130  0.74390  Biso   1.000  C
  C18      1.0000 0.00670  0.82970  0.37820  Biso   1.000  C
  C19      1.0000 0.00160  0.86850  0.42200  Biso   1.000  C
  C20      1.0000 0.08360  0.89300  0.44350  Biso   1.000  C
  C21      1.0000 0.91360  0.87710  0.44160  Biso   1.000  C
  C22      1.0000 0.91000  0.91190  0.48380  Biso   1.000  C
  C23      1.0000 0.07770  0.92860  0.48340  Biso   1.000  C
  C24      1.0000 0.99360  0.93840  0.50400  Biso   1.000  C
  C25      1.0000 0.98720  0.97750  0.54700  Biso   1.000  C
  C26      1.0000 0.98640  0.01030  0.57940  Biso   1.000  C
  C27      1.0000 0.99170  0.04980  0.62080  Biso   1.000  C
  C28      1.0000 0.07880  0.08230  0.63250  Biso   1.000  C
  C29      1.0000 0.91150  0.05700  0.64990  Biso   1.000  C
  C30      1.0000 0.91410  0.09440  0.68860  Biso   1.000  C
  C31      1.0000 0.08280  0.11910  0.67320  Biso   1.000  C
  C32      1.0000 0.00430  0.12710  0.70150  Biso   1.000  C
  C33      1.0000 0.70140  0.77570  0.27440  Biso   1.000  C
  C34      1.0000 0.69600  0.72620  0.34780  Biso   1.000  C
  C35      1.0000 0.60570  0.77790  0.27450  Biso   1.000  C
  C36      1.0000 0.59800  0.72950  0.34980  Biso   1.000  C
  C37      1.0000 0.54740  0.75370  0.31170  Biso   1.000  C
  C38      1.0000 0.44420  0.75660  0.31180  Biso   1.000  C
  C39      1.0000 0.39110  0.73040  0.27470  Biso   1.000  C
  C40      1.0000 0.39410  0.78110  0.34970  Biso   1.000  C
  C41      1.0000 0.29820  0.77980  0.34640  Biso   1.000  C
  C42      1.0000 0.29470  0.73040  0.27610  Biso   1.000  C
  C43      1.0000 0.99450  0.83200  0.24280  Biso   1.000  C
  C44      1.0000 0.01580  0.32870  0.87760  Biso   1.000  C
  C45      1.0000 0.00800  0.36740  0.92280  Biso   1.000  C
  C46      1.0000 0.91960  0.37440  0.94330  Biso   1.000  C
  C47      1.0000 0.09100  0.39380  0.94350  Biso   1.000  C
  C48      1.0000 0.91270  0.40640  0.98640  Biso   1.000  C
  C49      1.0000 0.08170  0.42640  0.98480  Biso   1.000  C
  C50      1.0000 0.99710  0.43630  0.00590  Biso   1.000  C
  C51      1.0000 0.99160  0.47230  0.04890  Biso   1.000  C
  C52      1.0000 0.99020  0.50550  0.08220  Biso   1.000  C
  C53      1.0000 0.99030  0.54440  0.12190  Biso   1.000  C
  C54      1.0000 0.90870  0.55550  0.14700  Biso   1.000  C
  C55      1.0000 0.07690  0.57460  0.13710  Biso   1.000  C
  C56      1.0000 0.08260  0.61590  0.17650  Biso   1.000  C
  C57      1.0000 0.91310  0.59450  0.18910  Biso   1.000  C
  C58      1.0000 0.99890  0.62350  0.20270  Biso   1.000  C
  C59      1.0000 0.00070  0.66870  0.24390  Biso   1.000  C
  C60      1.0000 0.99330  0.17030  0.87820  Biso   1.000  C
  C61      1.0000 0.99840  0.13150  0.92200  Biso   1.000  C
  C62      1.0000 0.91640  0.10700  0.94350  Biso   1.000  C
  C63      1.0000 0.08640  0.12290  0.94160  Biso   1.000  C
  C64      1.0000 0.09000  0.08810  0.98380  Biso   1.000  C
  C65      1.0000 0.92230  0.07140  0.98340  Biso   1.000  C
  C66      1.0000 0.00640  0.06160  0.00400  Biso   1.000  C
  C67      1.0000 0.01280  0.02250  0.04700  Biso   1.000  C
  C68      1.0000 0.01360  0.98970  0.07940  Biso   1.000  C
  C69      1.0000 0.00830  0.95020  0.12080  Biso   1.000  C
  C70      1.0000 0.92120  0.91770  0.13250  Biso   1.000  C
  C71      1.0000 0.08850  0.94300  0.14990  Biso   1.000  C
  C72      1.0000 0.08590  0.90560  0.18860  Biso   1.000  C
  C73      1.0000 0.91720  0.88090  0.17320  Biso   1.000  C
  C74      1.0000 0.99570  0.87290  0.20150  Biso   1.000  C
  C75      1.0000 0.29860  0.22430  0.77440  Biso   1.000  C
  C76      1.0000 0.30400  0.27380  0.84780  Biso   1.000  C
  C77      1.0000 0.39430  0.22210  0.77450  Biso   1.000  C
  C78      1.0000 0.40200  0.27050  0.84980  Biso   1.000  C
  C79      1.0000 0.45260  0.24630  0.81170  Biso   1.000  C
  C80      1.0000 0.55580  0.24340  0.81180  Biso   1.000  C
  C81      1.0000 0.60890  0.26960  0.77470  Biso   1.000  C
  C82      1.0000 0.60590  0.21890  0.84970  Biso   1.000  C
  C83      1.0000 0.70180  0.22020  0.84640  Biso   1.000  C
  C84      1.0000 0.70530  0.26960  0.77610  Biso   1.000  C
  Br1      1.0000 0.20603  0.58627  0.51412  Biso   1.000  Br
  Br2      1.0000 0.20835  0.48189  0.63012  Biso   1.000  Br
  Br3      1.0000 0.79009  0.92056  0.51268  Biso   1.000  Br
  Br4      1.0000 0.79503  0.01405  0.63309  Biso   1.000  Br
  Br5      1.0000 0.79397  0.41373  0.01412  Biso   1.000  Br
  Br6      1.0000 0.79165  0.51811  0.13012  Biso   1.000  Br
  Br7      1.0000 0.20991  0.07944  0.01268  Biso   1.000  Br
  Br8      1.0000 0.20497  0.98595  0.13309  Biso   1.000  Br
  N1       1.0000 0.74490  0.74960  0.31130  Biso   1.000  N
  N2       1.0000 0.24900  0.75560  0.31080  Biso   1.000  N
  N3       1.0000 0.25510  0.25040  0.81130  Biso   1.000  N
  N4       1.0000 0.75100  0.24440  0.81080  Biso   1.000  N
  O1       1.0000 0.90610  0.68680  0.36440  Biso   1.000  O
  O2       1.0000 0.06280  0.68710  0.35800  Biso   1.000  O
  O3       1.0000 0.91980  0.30560  0.75499  Biso   1.000  O
  O4       1.0000 0.07720  0.32340  0.76331  Biso   1.000  O
  O5       1.0000 0.92960  0.81550  0.35730  Biso   1.000  O
  O6       1.0000 0.08710  0.81460  0.36476  Biso   1.000  O
  O7       1.0000 0.92970  0.17730  0.76428  Biso   1.000  O
  O8       1.0000 0.08570  0.19430  0.75454  Biso   1.000  O
  O9       1.0000 0.09390  0.31320  0.86440  Biso   1.000  O
  O10      1.0000 0.93720  0.31290  0.85800  Biso   1.000  O
  O11      1.0000 0.08020  0.69440  0.25499  Biso   1.000  O
  O12      1.0000 0.92280  0.67660  0.26331  Biso   1.000  O
  O13      1.0000 0.07040  0.18450  0.85730  Biso   1.000  O
  O14      1.0000 0.91290  0.18540  0.86476  Biso   1.000  O
  O15      1.0000 0.07030  0.82270  0.26428  Biso   1.000  O
  O16      1.0000 0.91430  0.80570  0.25454  Biso   1.000  O
  Zn5      1.0000 0.20437  0.11308  0.48463  Biso   1.000  Zn
  Zn6      1.0000 0.41647  0.12150  0.48594  Biso   1.000  Zn
  Zn7      1.0000 0.20096  0.60978  0.98657  Biso   1.000  Zn
  Zn8      1.0000 0.41216  0.62354  0.98463  Biso   1.000  Zn
  H41      1.0000 0.57000  0.06160  0.53800  Biso   1.000  H
  H42      1.0000 0.73090  0.05710  0.54170  Biso   1.000  H
  H43      1.0000 0.87130  0.05940  0.43110  Biso   1.000  H
  H44      1.0000 0.88610  0.17840  0.54210  Biso   1.000  H
  H45      1.0000 0.05220  0.17420  0.53950  Biso   1.000  H
  H46      1.0000 0.03600  0.05520  0.43250  Biso   1.000  H
  H47      1.0000 0.45360  0.98640  0.59760  Biso   1.000  H
  H48      1.0000 0.16670  0.96770  0.58870  Biso   1.000  H
  H49      1.0000 0.44670  0.92910  0.66880  Biso   1.000  H
  H50      1.0000 0.16030  0.78010  0.79170  Biso   1.000  H
  H51      1.0000 0.16080  0.72230  0.86070  Biso   1.000  H
  H52      1.0000 0.44730  0.76000  0.87130  Biso   1.000  H
  H53      1.0000 0.44730  0.27430  0.58620  Biso   1.000  H
  H54      1.0000 0.17340  0.22590  0.61350  Biso   1.000  H
  H55      1.0000 0.17760  0.28570  0.68070  Biso   1.000  H
  H56      1.0000 0.16880  0.41840  0.79830  Biso   1.000  H
  H57      1.0000 0.16030  0.47890  0.86720  Biso   1.000  H
  H58      1.0000 0.45160  0.49020  0.87600  Biso   1.000  H
  H59      1.0000 0.43540  0.79030  0.07730  Biso   1.000  H
  H60      1.0000 0.17390  0.72120  0.11300  Biso   1.000  H
  H61      1.0000 0.17980  0.78200  0.18220  Biso   1.000  H
  H62      1.0000 0.17150  0.91360  0.30010  Biso   1.000  H
  H63      1.0000 0.16810  0.97190  0.37100  Biso   1.000  H
  H64      1.0000 0.44750  0.02170  0.35920  Biso   1.000  H
  H65      1.0000 0.45980  0.50720  0.10670  Biso   1.000  H
  H66      1.0000 0.17940  0.45640  0.09200  Biso   1.000  H
  H67      1.0000 0.19070  0.38500  0.15140  Biso   1.000  H
  H68      1.0000 0.22870  0.23960  0.27040  Biso   1.000  H
  H69      1.0000 0.21470  0.18910  0.34350  Biso   1.000  H
  H70      1.0000 0.43470  0.29890  0.39360  Biso   1.000  H
  H71      1.0000 0.55410  0.53330  0.96070  Biso   1.000  H
  H72      1.0000 0.58470  0.71050  0.99810  Biso   1.000  H
  H73      1.0000 0.74720  0.70790  0.99520  Biso   1.000  H
  H74      1.0000 0.72070  0.52810  0.95570  Biso   1.000  H
  H75      1.0000 0.87890  0.67210  0.03980  Biso   1.000  H
  H76      1.0000 0.86960  0.54840  0.93140  Biso   1.000  H
  H77      1.0000 0.03600  0.54930  0.93420  Biso   1.000  H
  H78      1.0000 0.04350  0.66950  0.04060  Biso   1.000  H
  H79      1.0000 0.58810  0.20290  0.46090  Biso   1.000  H
  H80      1.0000 0.74730  0.20570  0.46400  Biso   1.000  H
  C85      1.0000 0.60650  0.08680  0.51620  Biso   1.000  C
  C86      1.0000 0.70310  0.08330  0.51920  Biso   1.000  C
  C87      1.0000 0.75650  0.11860  0.48910  Biso   1.000  C
  C88      1.0000 0.86390  0.11940  0.49000  Biso   1.000  C
  C89      1.0000 0.90840  0.08220  0.45400  Biso   1.000  C
  C90      1.0000 0.91490  0.15290  0.51940  Biso   1.000  C
  C91      1.0000 0.01490  0.15060  0.51710  Biso   1.000  C
  C92      1.0000 0.00580  0.08140  0.45430  Biso   1.000  C
  C93      1.0000 0.31170  0.03170  0.54930  Biso   1.000  C
  C94      1.0000 0.30810  0.98590  0.59070  Biso   1.000  C
  C95      1.0000 0.39440  0.97190  0.61110  Biso   1.000  C
  C96      1.0000 0.22310  0.96010  0.60560  Biso   1.000  C
  C97      1.0000 0.21920  0.92380  0.64430  Biso   1.000  C
  C98      1.0000 0.39020  0.93620  0.65180  Biso   1.000  C
  C99      1.0000 0.30170  0.91060  0.66800  Biso   1.000  C
  C100     1.0000 0.30020  0.87030  0.71080  Biso   1.000  C
  C101     1.0000 0.30120  0.84330  0.74790  Biso   1.000  C
  C102     1.0000 0.30010  0.80690  0.79010  Biso   1.000  C
  C103     1.0000 0.21870  0.77660  0.80810  Biso   1.000  C
  C104     1.0000 0.38570  0.80190  0.81540  Biso   1.000  C
  C105     1.0000 0.21870  0.74140  0.84890  Biso   1.000  C
  C106     1.0000 0.38870  0.76480  0.85550  Biso   1.000  C
  C107     1.0000 0.30330  0.73400  0.87270  Biso   1.000  C
  C108     1.0000 0.30550  0.69580  0.91520  Biso   1.000  C
  C109     1.0000 0.30930  0.19810  0.55230  Biso   1.000  C
  C110     1.0000 0.31110  0.24260  0.59430  Biso   1.000  C
  C111     1.0000 0.39260  0.27660  0.60560  Biso   1.000  C
  C112     1.0000 0.23120  0.24810  0.62220  Biso   1.000  C
  C113     1.0000 0.23270  0.28410  0.66150  Biso   1.000  C
  C114     1.0000 0.39610  0.31470  0.64560  Biso   1.000  C
  C115     1.0000 0.31740  0.31950  0.67360  Biso   1.000  C
  C116     1.0000 0.32020  0.35770  0.71620  Biso   1.000  C
  C117     1.0000 0.31900  0.38640  0.75190  Biso   1.000  C
  C118     1.0000 0.31590  0.42120  0.79490  Biso   1.000  C
  C119     1.0000 0.39970  0.44380  0.82000  Biso   1.000  C
  C120     1.0000 0.22540  0.43400  0.81370  Biso   1.000  C
  C121     1.0000 0.22040  0.46960  0.85470  Biso   1.000  C
  C122     1.0000 0.39480  0.47690  0.85990  Biso   1.000  C
  C123     1.0000 0.30620  0.49230  0.87820  Biso   1.000  C
  C124     1.0000 0.30230  0.53410  0.92090  Biso   1.000  C
  C125     1.0000 0.30510  0.70220  0.04950  Biso   1.000  C
  C126     1.0000 0.30670  0.74720  0.09040  Biso   1.000  C
  C127     1.0000 0.38430  0.78780  0.09930  Biso   1.000  C
  C128     1.0000 0.22950  0.74680  0.12010  Biso   1.000  C
  C129     1.0000 0.23230  0.78410  0.16110  Biso   1.000  C
  C130     1.0000 0.38970  0.82390  0.13810  Biso   1.000  C
  C131     1.0000 0.31230  0.82460  0.17100  Biso   1.000  C
  C132     1.0000 0.31690  0.86160  0.21240  Biso   1.000  C
  C133     1.0000 0.31870  0.89300  0.24650  Biso   1.000  C
  C134     1.0000 0.31560  0.93070  0.28820  Biso   1.000  C
  C135     1.0000 0.39360  0.96440  0.30750  Biso   1.000  C
  C136     1.0000 0.22800  0.93460  0.31200  Biso   1.000  C
  C137     1.0000 0.22640  0.97090  0.35420  Biso   1.000  C
  C138     1.0000 0.39140  0.00000  0.34770  Biso   1.000  C
  C139     1.0000 0.30300  0.00380  0.37170  Biso   1.000  C
  C140     1.0000 0.30090  0.03970  0.41600  Biso   1.000  C
  C141     1.0000 0.31400  0.53610  0.05200  Biso   1.000  C
  C142     1.0000 0.31750  0.48920  0.09170  Biso   1.000  C
  C143     1.0000 0.40450  0.48260  0.11600  Biso   1.000  C
  C144     1.0000 0.23890  0.45250  0.10720  Biso   1.000  C
  C145     1.0000 0.24440  0.41160  0.14290  Biso   1.000  C
  C146     1.0000 0.40950  0.44240  0.15190  Biso   1.000  C
  C147     1.0000 0.33340  0.40870  0.16840  Biso   1.000  C
  C148     1.0000 0.33380  0.36810  0.20990  Biso   1.000  C
  C149     1.0000 0.33860  0.33820  0.24550  Biso   1.000  C
  C150     1.0000 0.33530  0.30440  0.28820  Biso   1.000  C
  C151     1.0000 0.39800  0.32040  0.32650  Biso   1.000  C
  C152     1.0000 0.26960  0.25320  0.29560  Biso   1.000  C
  C153     1.0000 0.26290  0.22160  0.33890  Biso   1.000  C
  C154     1.0000 0.39220  0.28720  0.36860  Biso   1.000  C
  C155     1.0000 0.32650  0.23750  0.37520  Biso   1.000  C
  C156     1.0000 0.32350  0.19990  0.41930  Biso   1.000  C
  C157     1.0000 0.59460  0.56860  0.96900  Biso   1.000  C
  C158     1.0000 0.61230  0.67220  0.99110  Biso   1.000  C
  C159     1.0000 0.70870  0.67040  0.99050  Biso   1.000  C
  C160     1.0000 0.69360  0.56450  0.96740  Biso   1.000  C
  C161     1.0000 0.75100  0.61550  0.98330  Biso   1.000  C
  C162     1.0000 0.85830  0.61320  0.98530  Biso   1.000  C
  C163     1.0000 0.90980  0.64720  0.01750  Biso   1.000  C
  C164     1.0000 0.90460  0.57420  0.95340  Biso   1.000  C
  C165     1.0000 0.00400  0.57500  0.95550  Biso   1.000  C
  C166     1.0000 0.00780  0.64550  0.01780  Biso   1.000  C
  C167     1.0000 0.61700  0.16740  0.47310  Biso   1.000  C
  C168     1.0000 0.71130  0.16910  0.47390  Biso   1.000  C
  Br9      1.0000 0.09647  0.89236  0.66789  Biso   1.000  Br
  Br10     1.0000 0.49873  0.83947  0.79198  Biso   1.000  Br
  Br11     1.0000 0.51300  0.35930  0.66106  Biso   1.000  Br
  Br12     1.0000 0.51846  0.42432  0.79519  Biso   1.000  Br
  Br13     1.0000 0.49852  0.87879  0.14892  Biso   1.000  Br
  Br14     1.0000 0.51312  0.96111  0.27550  Biso   1.000  Br
  Br15     1.0000 0.53312  0.45222  0.18897  Biso   1.000  Br
  Br16     1.0000 0.48821  0.38792  0.32027  Biso   1.000  Br
  N5       1.0000 0.06050  0.11720  0.48510  Biso   1.000  N
  N6       1.0000 0.55910  0.11930  0.48810  Biso   1.000  N
  N7       1.0000 0.55600  0.62190  0.98200  Biso   1.000  N
  N8       1.0000 0.05560  0.60980  0.98580  Biso   1.000  N
  O17      1.0000 0.23100  0.04930  0.53457  Biso   1.000  O
  O18      1.0000 0.39110  0.05020  0.53240  Biso   1.000  O
  O19      1.0000 0.22840  0.67720  0.93559  Biso   1.000  O
  O20      1.0000 0.38640  0.68330  0.93020  Biso   1.000  O
  O21      1.0000 0.22900  0.17900  0.53744  Biso   1.000  O
  O22      1.0000 0.38750  0.18260  0.53779  Biso   1.000  O
  O23      1.0000 0.22000  0.54680  0.93412  Biso   1.000  O
  O24      1.0000 0.37730  0.55150  0.94007  Biso   1.000  O
  O25      1.0000 0.22720  0.67580  0.03827  Biso   1.000  O
  O26      1.0000 0.38530  0.69470  0.03031  Biso   1.000  O
  O27      1.0000 0.21900  0.04770  0.43302  Biso   1.000  O
  O28      1.0000 0.37910  0.06340  0.43159  Biso   1.000  O
  O29      1.0000 0.23370  0.54300  0.03520  Biso   1.000  O
  O30      1.0000 0.38990  0.56290  0.03920  Biso   1.000  O
  O31      1.0000 0.24490  0.17630  0.43396  Biso   1.000  O
  O32      1.0000 0.40370  0.19340  0.43819  Biso   1.000  O
  Zn9      1.0000 0.79563  0.88692  0.98463  Biso   1.000  Zn
  Zn10     1.0000 0.58353  0.87850  0.98594  Biso   1.000  Zn
  Zn11     1.0000 0.79904  0.39022  0.48657  Biso   1.000  Zn
  Zn12     1.0000 0.58784  0.37646  0.48463  Biso   1.000  Zn
  H81      1.0000 0.43000  0.93840  0.03800  Biso   1.000  H
  H82      1.0000 0.26910  0.94290  0.04170  Biso   1.000  H
  H83      1.0000 0.12870  0.94060  0.93110  Biso   1.000  H
  H84      1.0000 0.11390  0.82160  0.04210  Biso   1.000  H
  H85      1.0000 0.94780  0.82580  0.03950  Biso   1.000  H
  H86      1.0000 0.96400  0.94480  0.93250  Biso   1.000  H
  H87      1.0000 0.54640  0.01360  0.09760  Biso   1.000  H
  H88      1.0000 0.83330  0.03230  0.08870  Biso   1.000  H
  H89      1.0000 0.55330  0.07090  0.16880  Biso   1.000  H
  H90      1.0000 0.83970  0.21990  0.29170  Biso   1.000  H
  H91      1.0000 0.83920  0.27770  0.36070  Biso   1.000  H
  H92      1.0000 0.55270  0.24000  0.37130  Biso   1.000  H
  H93      1.0000 0.55270  0.72570  0.08620  Biso   1.000  H
  H94      1.0000 0.82660  0.77410  0.11350  Biso   1.000  H
  H95      1.0000 0.82240  0.71430  0.18070  Biso   1.000  H
  H96      1.0000 0.83120  0.58160  0.29830  Biso   1.000  H
  H97      1.0000 0.83970  0.52110  0.36720  Biso   1.000  H
  H98      1.0000 0.54840  0.50980  0.37600  Biso   1.000  H
  H99      1.0000 0.56460  0.20970  0.57730  Biso   1.000  H
  H100     1.0000 0.82610  0.27880  0.61300  Biso   1.000  H
  H101     1.0000 0.82020  0.21800  0.68220  Biso   1.000  H
  H102     1.0000 0.82850  0.08640  0.80010  Biso   1.000  H
  H103     1.0000 0.83190  0.02810  0.87100  Biso   1.000  H
  H104     1.0000 0.55250  0.97830  0.85920  Biso   1.000  H
  H105     1.0000 0.54020  0.49280  0.60670  Biso   1.000  H
  H106     1.0000 0.82060  0.54360  0.59200  Biso   1.000  H
  H107     1.0000 0.80930  0.61500  0.65140  Biso   1.000  H
  H108     1.0000 0.77130  0.76040  0.77040  Biso   1.000  H
  H109     1.0000 0.78530  0.81090  0.84350  Biso   1.000  H
  H110     1.0000 0.56530  0.70110  0.89360  Biso   1.000  H
  H111     1.0000 0.44590  0.46670  0.46070  Biso   1.000  H
  H112     1.0000 0.41530  0.28950  0.49810  Biso   1.000  H
  H113     1.0000 0.25280  0.29210  0.49520  Biso   1.000  H
  H114     1.0000 0.27930  0.47190  0.45570  Biso   1.000  H
  H115     1.0000 0.12110  0.32790  0.53980  Biso   1.000  H
  H116     1.0000 0.13040  0.45160  0.43140  Biso   1.000  H
  H117     1.0000 0.96400  0.45070  0.43420  Biso   1.000  H
  H118     1.0000 0.95650  0.33050  0.54060  Biso   1.000  H
  H119     1.0000 0.41190  0.79710  0.96090  Biso   1.000  H
  H120     1.0000 0.25270  0.79430  0.96400  Biso   1.000  H
  C169     1.0000 0.39350  0.91320  0.01620  Biso   1.000  C
  C170     1.0000 0.29690  0.91670  0.01920  Biso   1.000  C
  C171     1.0000 0.24350  0.88140  0.98910  Biso   1.000  C
  C172     1.0000 0.13610  0.88060  0.99000  Biso   1.000  C
  C173     1.0000 0.09160  0.91780  0.95400  Biso   1.000  C
  C174     1.0000 0.08510  0.84710  0.01940  Biso   1.000  C
  C175     1.0000 0.98510  0.84940  0.01710  Biso   1.000  C
  C176     1.0000 0.99420  0.91860  0.95430  Biso   1.000  C
  C177     1.0000 0.68830  0.96830  0.04930  Biso   1.000  C
  C178     1.0000 0.69190  0.01410  0.09070  Biso   1.000  C
  C179     1.0000 0.60560  0.02810  0.11110  Biso   1.000  C
  C180     1.0000 0.77690  0.03990  0.10560  Biso   1.000  C
  C181     1.0000 0.78080  0.07620  0.14430  Biso   1.000  C
  C182     1.0000 0.60980  0.06380  0.15180  Biso   1.000  C
  C183     1.0000 0.69830  0.08940  0.16800  Biso   1.000  C
  C184     1.0000 0.69980  0.12970  0.21080  Biso   1.000  C
  C185     1.0000 0.69880  0.15670  0.24790  Biso   1.000  C
  C186     1.0000 0.69990  0.19310  0.29010  Biso   1.000  C
  C187     1.0000 0.78130  0.22340  0.30810  Biso   1.000  C
  C188     1.0000 0.61430  0.19810  0.31540  Biso   1.000  C
  C189     1.0000 0.78130  0.25860  0.34890  Biso   1.000  C
  C190     1.0000 0.61130  0.23520  0.35550  Biso   1.000  C
  C191     1.0000 0.69670  0.26600  0.37270  Biso   1.000  C
  C192     1.0000 0.69450  0.30420  0.41520  Biso   1.000  C
  C193     1.0000 0.69070  0.80190  0.05230  Biso   1.000  C
  C194     1.0000 0.68890  0.75740  0.09430  Biso   1.000  C
  C195     1.0000 0.60740  0.72340  0.10560  Biso   1.000  C
  C196     1.0000 0.76880  0.75190  0.12220  Biso   1.000  C
  C197     1.0000 0.76730  0.71590  0.16150  Biso   1.000  C
  C198     1.0000 0.60390  0.68530  0.14560  Biso   1.000  C
  C199     1.0000 0.68260  0.68050  0.17360  Biso   1.000  C
  C200     1.0000 0.67980  0.64230  0.21620  Biso   1.000  C
  C201     1.0000 0.68100  0.61360  0.25190  Biso   1.000  C
  C202     1.0000 0.68410  0.57880  0.29490  Biso   1.000  C
  C203     1.0000 0.60030  0.55620  0.32000  Biso   1.000  C
  C204     1.0000 0.77460  0.56600  0.31370  Biso   1.000  C
  C205     1.0000 0.77960  0.53040  0.35470  Biso   1.000  C
  C206     1.0000 0.60520  0.52310  0.35990  Biso   1.000  C
  C207     1.0000 0.69380  0.50770  0.37820  Biso   1.000  C
  C208     1.0000 0.69770  0.46590  0.42090  Biso   1.000  C
  C209     1.0000 0.69490  0.29780  0.54950  Biso   1.000  C
  C210     1.0000 0.69330  0.25280  0.59040  Biso   1.000  C
  C211     1.0000 0.61570  0.21220  0.59930  Biso   1.000  C
  C212     1.0000 0.77050  0.25320  0.62010  Biso   1.000  C
  C213     1.0000 0.76770  0.21590  0.66110  Biso   1.000  C
  C214     1.0000 0.61030  0.17610  0.63810  Biso   1.000  C
  C215     1.0000 0.68770  0.17540  0.67100  Biso   1.000  C
  C216     1.0000 0.68310  0.13840  0.71240  Biso   1.000  C
  C217     1.0000 0.68130  0.10700  0.74650  Biso   1.000  C
  C218     1.0000 0.68440  0.06930  0.78820  Biso   1.000  C
  C219     1.0000 0.60640  0.03560  0.80750  Biso   1.000  C
  C220     1.0000 0.77200  0.06540  0.81200  Biso   1.000  C
  C221     1.0000 0.77360  0.02910  0.85420  Biso   1.000  C
  C222     1.0000 0.60860  0.00000  0.84770  Biso   1.000  C
  C223     1.0000 0.69700  0.99620  0.87170  Biso   1.000  C
  C224     1.0000 0.69910  0.96030  0.91600  Biso   1.000  C
  C225     1.0000 0.68600  0.46390  0.55200  Biso   1.000  C
  C226     1.0000 0.68250  0.51080  0.59170  Biso   1.000  C
  C227     1.0000 0.59550  0.51740  0.61600  Biso   1.000  C
  C228     1.0000 0.76110  0.54750  0.60720  Biso   1.000  C
  C229     1.0000 0.75560  0.58840  0.64290  Biso   1.000  C
  C230     1.0000 0.59050  0.55760  0.65190  Biso   1.000  C
  C231     1.0000 0.66660  0.59130  0.66840  Biso   1.000  C
  C232     1.0000 0.66620  0.63190  0.70990  Biso   1.000  C
  C233     1.0000 0.66140  0.66180  0.74550  Biso   1.000  C
  C234     1.0000 0.66470  0.69560  0.78820  Biso   1.000  C
  C235     1.0000 0.60200  0.67960  0.82650  Biso   1.000  C
  C236     1.0000 0.73040  0.74680  0.79560  Biso   1.000  C
  C237     1.0000 0.73710  0.77840  0.83890  Biso   1.000  C
  C238     1.0000 0.60780  0.71280  0.86860  Biso   1.000  C
  C239     1.0000 0.67350  0.76250  0.87520  Biso   1.000  C
  C240     1.0000 0.67650  0.80010  0.91930  Biso   1.000  C
  C241     1.0000 0.40540  0.43140  0.46900  Biso   1.000  C
  C242     1.0000 0.38770  0.32780  0.49110  Biso   1.000  C
  C243     1.0000 0.29130  0.32960  0.49050  Biso   1.000  C
  C244     1.0000 0.30640  0.43550  0.46740  Biso   1.000  C
  C245     1.0000 0.24900  0.38450  0.48330  Biso   1.000  C
  C246     1.0000 0.14170  0.38680  0.48530  Biso   1.000  C
  C247     1.0000 0.09020  0.35280  0.51750  Biso   1.000  C
  C248     1.0000 0.09540  0.42580  0.45340  Biso   1.000  C
  C249     1.0000 0.99600  0.42500  0.45550  Biso   1.000  C
  C250     1.0000 0.99220  0.35450  0.51780  Biso   1.000  C
  C251     1.0000 0.38300  0.83260  0.97310  Biso   1.000  C
  C252     1.0000 0.28870  0.83090  0.97390  Biso   1.000  C
  Br17     1.0000 0.90353  0.10764  0.16789  Biso   1.000  Br
  Br18     1.0000 0.50127  0.16053  0.29198  Biso   1.000  Br
  Br19     1.0000 0.48700  0.64070  0.16106  Biso   1.000  Br
  Br20     1.0000 0.48154  0.57568  0.29519  Biso   1.000  Br
  Br21     1.0000 0.50148  0.12121  0.64892  Biso   1.000  Br
  Br22     1.0000 0.48688  0.03889  0.77550  Biso   1.000  Br
  Br23     1.0000 0.46688  0.54778  0.68897  Biso   1.000  Br
  Br24     1.0000 0.51179  0.61208  0.82027  Biso   1.000  Br
  N9       1.0000 0.93950  0.88280  0.98510  Biso   1.000  N
  N10      1.0000 0.44090  0.88070  0.98810  Biso   1.000  N
  N11      1.0000 0.44400  0.37810  0.48200  Biso   1.000  N
  N12      1.0000 0.94440  0.39020  0.48580  Biso   1.000  N
  O33      1.0000 0.76900  0.95070  0.03457  Biso   1.000  O
  O34      1.0000 0.60890  0.94980  0.03240  Biso   1.000  O
  O35      1.0000 0.77160  0.32280  0.43559  Biso   1.000  O
  O36      1.0000 0.61360  0.31670  0.43020  Biso   1.000  O
  O37      1.0000 0.77100  0.82100  0.03744  Biso   1.000  O
  O38      1.0000 0.61250  0.81740  0.03779  Biso   1.000  O
  O39      1.0000 0.78000  0.45320  0.43412  Biso   1.000  O
  O40      1.0000 0.62270  0.44850  0.44007  Biso   1.000  O
  O41      1.0000 0.77280  0.32420  0.53827  Biso   1.000  O
  O42      1.0000 0.61470  0.30530  0.53031  Biso   1.000  O
  O43      1.0000 0.78100  0.95230  0.93302  Biso   1.000  O
  O44      1.0000 0.62090  0.93660  0.93159  Biso   1.000  O
  O45      1.0000 0.76630  0.45700  0.53520  Biso   1.000  O
  O46      1.0000 0.61010  0.43710  0.53920  Biso   1.000  O
  O47      1.0000 0.75510  0.82370  0.93396  Biso   1.000  O
  O48      1.0000 0.59630  0.80660  0.93819  Biso   1.000  O
