data_image0
_cell_length_a       9.4526
_cell_length_b       24.3406
_cell_length_c       24.847
_cell_angle_alpha    91.877
_cell_angle_beta     90
_cell_angle_gamma    90

_symmetry_space_group_name_H-M    P 1
_symmetry_int_tables_number       1

loop_
  _symmetry_equiv_pos_as_xyz
  'x, y, z'

loop_
  _atom_site_label
  _atom_site_occupancy
  _atom_site_fract_x
  _atom_site_fract_y
  _atom_site_fract_z
  _atom_site_thermal_displace_type
  _atom_site_B_iso_or_equiv
  _atom_site_type_symbol
  Co1      1.0000 0.04557  0.26288  0.67944  Biso   1.000  Co
  Co2      1.0000 0.25970  0.48431  0.71488  Biso   1.000  Co
  Co3      1.0000 0.76462  0.46921  0.85810  Biso   1.000  Co
  Co4      1.0000 0.66747  0.16012  0.51687  Biso   1.000  Co
  Co5      1.0000 0.46415  0.71489  0.68106  Biso   1.000  Co
  Co6      1.0000 0.54557  0.23712  0.82056  Biso   1.000  Co
  Co7      1.0000 0.75970  0.01569  0.78512  Biso   1.000  Co
  Co8      1.0000 0.26462  0.03079  0.64190  Biso   1.000  Co
  Co9      1.0000 0.16747  0.33988  0.98313  Biso   1.000  Co
  Co10     1.0000 0.96415  0.78511  0.81894  Biso   1.000  Co
  Co11     1.0000 0.95443  0.73712  0.32056  Biso   1.000  Co
  Co12     1.0000 0.74030  0.51569  0.28512  Biso   1.000  Co
  Co13     1.0000 0.23538  0.53079  0.14190  Biso   1.000  Co
  Co14     1.0000 0.33253  0.83988  0.48313  Biso   1.000  Co
  Co15     1.0000 0.53585  0.28511  0.31894  Biso   1.000  Co
  Co16     1.0000 0.45443  0.76288  0.17944  Biso   1.000  Co
  Co17     1.0000 0.24030  0.98431  0.21488  Biso   1.000  Co
  Co18     1.0000 0.73538  0.96921  0.35810  Biso   1.000  Co
  Co19     1.0000 0.83253  0.66012  0.01687  Biso   1.000  Co
  Co20     1.0000 0.03585  0.21489  0.18106  Biso   1.000  Co
  H1       1.0000 0.78140  0.35300  0.68020  Biso   1.000  H
  H2       1.0000 0.57270  0.34250  0.73850  Biso   1.000  H
  H3       1.0000 0.83370  0.21890  0.76480  Biso   1.000  H
  H4       1.0000 0.29980  0.30930  0.60370  Biso   1.000  H
  H5       1.0000 0.38670  0.40550  0.61390  Biso   1.000  H
  H6       1.0000 0.05750  0.38880  0.70870  Biso   1.000  H
  H7       1.0000 0.99140  0.57010  0.70500  Biso   1.000  H
  H8       1.0000 0.78650  0.56710  0.76740  Biso   1.000  H
  H9       1.0000 0.05680  0.45200  0.80710  Biso   1.000  H
  H10      1.0000 0.25260  0.54020  0.59970  Biso   1.000  H
  H11      1.0000 0.37730  0.63200  0.58610  Biso   1.000  H
  H12      1.0000 0.36950  0.60440  0.73950  Biso   1.000  H
  H13      1.0000 0.34670  0.15760  0.68070  Biso   1.000  H
  H14      1.0000 0.51770  0.21220  0.63170  Biso   1.000  H
  H15      1.0000 0.45810  0.07080  0.55120  Biso   1.000  H
  H16      1.0000 0.86580  0.97310  0.47690  Biso   1.000  H
  H17      1.0000 0.83700  0.05210  0.54140  Biso   1.000  H
  H18      1.0000 0.63570  0.08550  0.40760  Biso   1.000  H
  H19      1.0000 0.48890  0.39090  0.87110  Biso   1.000  H
  H20      1.0000 0.27770  0.39770  0.81140  Biso   1.000  H
  H21      1.0000 0.56310  0.50600  0.76700  Biso   1.000  H
  H22      1.0000 0.39420  0.23240  0.50600  Biso   1.000  H
  H23      1.0000 0.33650  0.28770  0.42530  Biso   1.000  H
  H24      1.0000 0.69330  0.20760  0.39890  Biso   1.000  H
  H25      1.0000 0.01160  0.15650  0.50150  Biso   1.000  H
  H26      1.0000 0.17650  0.19820  0.56870  Biso   1.000  H
  H27      1.0000 0.78320  0.22280  0.61930  Biso   1.000  H
  H28      1.0000 0.42900  0.83510  0.73630  Biso   1.000  H
  H29      1.0000 0.22790  0.86350  0.79300  Biso   1.000  H
  H30      1.0000 0.16270  0.71010  0.74070  Biso   1.000  H
  H31      1.0000 0.28140  0.14700  0.81980  Biso   1.000  H
  H32      1.0000 0.07270  0.15750  0.76150  Biso   1.000  H
  H33      1.0000 0.33370  0.28110  0.73520  Biso   1.000  H
  H34      1.0000 0.79980  0.19070  0.89630  Biso   1.000  H
  H35      1.0000 0.88670  0.09450  0.88610  Biso   1.000  H
  H36      1.0000 0.55750  0.11120  0.79130  Biso   1.000  H
  H37      1.0000 0.49140  0.92990  0.79500  Biso   1.000  H
  H38      1.0000 0.28650  0.93290  0.73260  Biso   1.000  H
  H39      1.0000 0.55680  0.04800  0.69290  Biso   1.000  H
  H40      1.0000 0.75260  0.95980  0.90030  Biso   1.000  H
  H41      1.0000 0.87730  0.86800  0.91390  Biso   1.000  H
  H42      1.0000 0.86950  0.89560  0.76050  Biso   1.000  H
  H43      1.0000 0.84670  0.34240  0.81930  Biso   1.000  H
  H44      1.0000 0.01770  0.28780  0.86830  Biso   1.000  H
  H45      1.0000 0.95810  0.42920  0.94880  Biso   1.000  H
  H46      1.0000 0.36580  0.52690  0.02310  Biso   1.000  H
  H47      1.0000 0.33700  0.44790  0.95860  Biso   1.000  H
  H48      1.0000 0.13570  0.41450  0.09240  Biso   1.000  H
  H49      1.0000 0.98890  0.10910  0.62890  Biso   1.000  H
  H50      1.0000 0.77770  0.10230  0.68860  Biso   1.000  H
  H51      1.0000 0.06310  0.99400  0.73300  Biso   1.000  H
  H52      1.0000 0.89420  0.26760  0.99400  Biso   1.000  H
  H53      1.0000 0.83650  0.21230  0.07470  Biso   1.000  H
  H54      1.0000 0.19330  0.29240  0.10110  Biso   1.000  H
  H55      1.0000 0.51160  0.34350  0.99850  Biso   1.000  H
  H56      1.0000 0.67650  0.30180  0.93130  Biso   1.000  H
  H57      1.0000 0.28320  0.27720  0.88070  Biso   1.000  H
  H58      1.0000 0.92900  0.66490  0.76370  Biso   1.000  H
  H59      1.0000 0.72790  0.63650  0.70700  Biso   1.000  H
  H60      1.0000 0.66270  0.78990  0.75930  Biso   1.000  H
  H61      1.0000 0.21860  0.64700  0.31980  Biso   1.000  H
  H62      1.0000 0.42730  0.65750  0.26150  Biso   1.000  H
  H63      1.0000 0.16630  0.78110  0.23520  Biso   1.000  H
  H64      1.0000 0.70020  0.69070  0.39630  Biso   1.000  H
  H65      1.0000 0.61330  0.59450  0.38610  Biso   1.000  H
  H66      1.0000 0.94250  0.61120  0.29130  Biso   1.000  H
  H67      1.0000 0.00860  0.42990  0.29500  Biso   1.000  H
  H68      1.0000 0.21350  0.43290  0.23260  Biso   1.000  H
  H69      1.0000 0.94320  0.54800  0.19290  Biso   1.000  H
  H70      1.0000 0.74740  0.45980  0.40030  Biso   1.000  H
  H71      1.0000 0.62270  0.36800  0.41390  Biso   1.000  H
  H72      1.0000 0.63050  0.39560  0.26050  Biso   1.000  H
  H73      1.0000 0.65330  0.84240  0.31930  Biso   1.000  H
  H74      1.0000 0.48230  0.78780  0.36830  Biso   1.000  H
  H75      1.0000 0.54190  0.92920  0.44880  Biso   1.000  H
  H76      1.0000 0.13420  0.02690  0.52310  Biso   1.000  H
  H77      1.0000 0.16300  0.94790  0.45860  Biso   1.000  H
  H78      1.0000 0.36430  0.91450  0.59240  Biso   1.000  H
  H79      1.0000 0.51110  0.60910  0.12890  Biso   1.000  H
  H80      1.0000 0.72230  0.60230  0.18860  Biso   1.000  H
  H81      1.0000 0.43690  0.49400  0.23300  Biso   1.000  H
  H82      1.0000 0.60580  0.76760  0.49400  Biso   1.000  H
  H83      1.0000 0.66350  0.71230  0.57470  Biso   1.000  H
  H84      1.0000 0.30670  0.79240  0.60110  Biso   1.000  H
  H85      1.0000 0.98840  0.84350  0.49850  Biso   1.000  H
  H86      1.0000 0.82350  0.80180  0.43130  Biso   1.000  H
  H87      1.0000 0.21680  0.77720  0.38070  Biso   1.000  H
  H88      1.0000 0.57100  0.16490  0.26370  Biso   1.000  H
  H89      1.0000 0.77210  0.13650  0.20700  Biso   1.000  H
  H90      1.0000 0.83730  0.28990  0.25930  Biso   1.000  H
  H91      1.0000 0.71860  0.85300  0.18020  Biso   1.000  H
  H92      1.0000 0.92730  0.84250  0.23850  Biso   1.000  H
  H93      1.0000 0.66630  0.71890  0.26480  Biso   1.000  H
  H94      1.0000 0.20020  0.80930  0.10370  Biso   1.000  H
  H95      1.0000 0.11330  0.90550  0.11390  Biso   1.000  H
  H96      1.0000 0.44250  0.88880  0.20870  Biso   1.000  H
  H97      1.0000 0.50860  0.07010  0.20500  Biso   1.000  H
  H98      1.0000 0.71350  0.06710  0.26740  Biso   1.000  H
  H99      1.0000 0.44320  0.95200  0.30710  Biso   1.000  H
  H100     1.0000 0.24740  0.04020  0.09970  Biso   1.000  H
  H101     1.0000 0.12270  0.13200  0.08610  Biso   1.000  H
  H102     1.0000 0.13050  0.10440  0.23950  Biso   1.000  H
  H103     1.0000 0.15330  0.65760  0.18070  Biso   1.000  H
  H104     1.0000 0.98230  0.71220  0.13170  Biso   1.000  H
  H105     1.0000 0.04190  0.57080  0.05120  Biso   1.000  H
  H106     1.0000 0.63420  0.47310  0.97690  Biso   1.000  H
  H107     1.0000 0.66300  0.55210  0.04140  Biso   1.000  H
  H108     1.0000 0.86430  0.58550  0.90760  Biso   1.000  H
  H109     1.0000 0.01110  0.89090  0.37110  Biso   1.000  H
  H110     1.0000 0.22230  0.89770  0.31140  Biso   1.000  H
  H111     1.0000 0.93690  0.00600  0.26700  Biso   1.000  H
  H112     1.0000 0.10580  0.73240  0.00600  Biso   1.000  H
  H113     1.0000 0.16350  0.78770  0.92530  Biso   1.000  H
  H114     1.0000 0.80670  0.70760  0.89890  Biso   1.000  H
  H115     1.0000 0.48840  0.65650  0.00150  Biso   1.000  H
  H116     1.0000 0.32350  0.69820  0.06870  Biso   1.000  H
  H117     1.0000 0.71680  0.72280  0.11930  Biso   1.000  H
  H118     1.0000 0.07100  0.33510  0.23630  Biso   1.000  H
  H119     1.0000 0.27210  0.36350  0.29300  Biso   1.000  H
  H120     1.0000 0.33730  0.21010  0.24070  Biso   1.000  H
  C1       1.0000 0.76710  0.32460  0.70490  Biso   1.000  C
  C2       1.0000 0.65210  0.31850  0.73690  Biso   1.000  C
  C3       1.0000 0.79510  0.25160  0.75100  Biso   1.000  C
  C4       1.0000 0.26050  0.33710  0.62690  Biso   1.000  C
  C5       1.0000 0.30860  0.39050  0.63250  Biso   1.000  C
  C6       1.0000 0.13080  0.38060  0.68350  Biso   1.000  C
  C7       1.0000 0.98050  0.54570  0.73370  Biso   1.000  C
  C8       1.0000 0.86650  0.54350  0.76800  Biso   1.000  C
  C9       1.0000 0.01460  0.48170  0.78900  Biso   1.000  C
  C10      1.0000 0.30300  0.56190  0.62560  Biso   1.000  C
  C11      1.0000 0.36500  0.61480  0.61950  Biso   1.000  C
  C12      1.0000 0.36970  0.59790  0.70160  Biso   1.000  C
  C13      1.0000 0.39130  0.14670  0.64780  Biso   1.000  C
  C14      1.0000 0.48530  0.17660  0.62110  Biso   1.000  C
  C15      1.0000 0.45190  0.09970  0.57770  Biso   1.000  C
  C16      1.0000 0.81520  0.00590  0.47010  Biso   1.000  C
  C17      1.0000 0.79850  0.04950  0.50610  Biso   1.000  C
  C18      1.0000 0.69070  0.06690  0.43340  Biso   1.000  C
  C19      1.0000 0.47870  0.41500  0.84210  Biso   1.000  C
  C20      1.0000 0.36170  0.41890  0.80900  Biso   1.000  C
  C21      1.0000 0.51810  0.47720  0.78540  Biso   1.000  C
  C22      1.0000 0.44950  0.23420  0.47420  Biso   1.000  C
  C23      1.0000 0.41610  0.26440  0.42910  Biso   1.000  C
  C24      1.0000 0.60930  0.22100  0.41570  Biso   1.000  C
  C25      1.0000 0.98480  0.17570  0.53390  Biso   1.000  C
  C26      1.0000 0.07620  0.19800  0.57110  Biso   1.000  C
  C27      1.0000 0.86200  0.21140  0.59790  Biso   1.000  C
  C28      1.0000 0.34960  0.81280  0.74410  Biso   1.000  C
  C29      1.0000 0.23930  0.82840  0.77570  Biso   1.000  C
  C30      1.0000 0.20470  0.74510  0.74700  Biso   1.000  C
  C31      1.0000 0.26710  0.17540  0.79510  Biso   1.000  C
  C32      1.0000 0.15210  0.18150  0.76310  Biso   1.000  C
  C33      1.0000 0.29510  0.24840  0.74900  Biso   1.000  C
  C34      1.0000 0.76050  0.16290  0.87310  Biso   1.000  C
  C35      1.0000 0.80860  0.10950  0.86750  Biso   1.000  C
  C36      1.0000 0.63080  0.11940  0.81650  Biso   1.000  C
  C37      1.0000 0.48050  0.95430  0.76630  Biso   1.000  C
  C38      1.0000 0.36650  0.95650  0.73200  Biso   1.000  C
  C39      1.0000 0.51460  0.01830  0.71100  Biso   1.000  C
  C40      1.0000 0.80300  0.93810  0.87440  Biso   1.000  C
  C41      1.0000 0.86500  0.88520  0.88050  Biso   1.000  C
  C42      1.0000 0.86970  0.90210  0.79840  Biso   1.000  C
  C43      1.0000 0.89130  0.35330  0.85220  Biso   1.000  C
  C44      1.0000 0.98530  0.32340  0.87890  Biso   1.000  C
  C45      1.0000 0.95190  0.40030  0.92230  Biso   1.000  C
  C46      1.0000 0.31520  0.49410  0.02990  Biso   1.000  C
  C47      1.0000 0.29850  0.45050  0.99390  Biso   1.000  C
  C48      1.0000 0.19070  0.43310  0.06660  Biso   1.000  C
  C49      1.0000 0.97870  0.08500  0.65790  Biso   1.000  C
  C50      1.0000 0.86170  0.08110  0.69100  Biso   1.000  C
  C51      1.0000 0.01810  0.02280  0.71460  Biso   1.000  C
  C52      1.0000 0.94950  0.26580  0.02580  Biso   1.000  C
  C53      1.0000 0.91610  0.23560  0.07090  Biso   1.000  C
  C54      1.0000 0.10930  0.27900  0.08430  Biso   1.000  C
  C55      1.0000 0.48480  0.32430  0.96610  Biso   1.000  C
  C56      1.0000 0.57620  0.30200  0.92890  Biso   1.000  C
  C57      1.0000 0.36200  0.28860  0.90210  Biso   1.000  C
  C58      1.0000 0.84960  0.68720  0.75590  Biso   1.000  C
  C59      1.0000 0.73930  0.67160  0.72430  Biso   1.000  C
  C60      1.0000 0.70470  0.75490  0.75300  Biso   1.000  C
  C61      1.0000 0.23290  0.67540  0.29510  Biso   1.000  C
  C62      1.0000 0.34790  0.68150  0.26310  Biso   1.000  C
  C63      1.0000 0.20490  0.74840  0.24900  Biso   1.000  C
  C64      1.0000 0.73950  0.66290  0.37310  Biso   1.000  C
  C65      1.0000 0.69140  0.60950  0.36750  Biso   1.000  C
  C66      1.0000 0.86920  0.61940  0.31650  Biso   1.000  C
  C67      1.0000 0.01950  0.45430  0.26630  Biso   1.000  C
  C68      1.0000 0.13350  0.45650  0.23200  Biso   1.000  C
  C69      1.0000 0.98540  0.51830  0.21100  Biso   1.000  C
  C70      1.0000 0.69700  0.43810  0.37440  Biso   1.000  C
  C71      1.0000 0.63500  0.38520  0.38050  Biso   1.000  C
  C72      1.0000 0.63030  0.40210  0.29840  Biso   1.000  C
  C73      1.0000 0.60870  0.85330  0.35220  Biso   1.000  C
  C74      1.0000 0.51470  0.82340  0.37890  Biso   1.000  C
  C75      1.0000 0.54810  0.90030  0.42230  Biso   1.000  C
  C76      1.0000 0.18480  0.99410  0.52990  Biso   1.000  C
  C77      1.0000 0.20150  0.95050  0.49390  Biso   1.000  C
  C78      1.0000 0.30930  0.93310  0.56660  Biso   1.000  C
  C79      1.0000 0.52130  0.58500  0.15790  Biso   1.000  C
  C80      1.0000 0.63830  0.58110  0.19100  Biso   1.000  C
  C81      1.0000 0.48190  0.52280  0.21460  Biso   1.000  C
  C82      1.0000 0.55050  0.76580  0.52580  Biso   1.000  C
  C83      1.0000 0.58390  0.73560  0.57090  Biso   1.000  C
  C84      1.0000 0.39070  0.77900  0.58430  Biso   1.000  C
  C85      1.0000 0.01520  0.82430  0.46610  Biso   1.000  C
  C86      1.0000 0.92380  0.80200  0.42890  Biso   1.000  C
  C87      1.0000 0.13800  0.78860  0.40210  Biso   1.000  C
  C88      1.0000 0.65040  0.18720  0.25590  Biso   1.000  C
  C89      1.0000 0.76070  0.17160  0.22430  Biso   1.000  C
  C90      1.0000 0.79530  0.25490  0.25300  Biso   1.000  C
  C91      1.0000 0.73290  0.82460  0.20490  Biso   1.000  C
  C92      1.0000 0.84790  0.81850  0.23690  Biso   1.000  C
  C93      1.0000 0.70490  0.75160  0.25100  Biso   1.000  C
  C94      1.0000 0.23950  0.83710  0.12690  Biso   1.000  C
  C95      1.0000 0.19140  0.89050  0.13250  Biso   1.000  C
  C96      1.0000 0.36920  0.88060  0.18350  Biso   1.000  C
  C97      1.0000 0.51950  0.04570  0.23370  Biso   1.000  C
  C98      1.0000 0.63350  0.04350  0.26800  Biso   1.000  C
  C99      1.0000 0.48540  0.98170  0.28900  Biso   1.000  C
  C100     1.0000 0.19700  0.06190  0.12560  Biso   1.000  C
  C101     1.0000 0.13500  0.11480  0.11950  Biso   1.000  C
  C102     1.0000 0.13030  0.09790  0.20160  Biso   1.000  C
  C103     1.0000 0.10870  0.64670  0.14780  Biso   1.000  C
  C104     1.0000 0.01470  0.67660  0.12110  Biso   1.000  C
  C105     1.0000 0.04810  0.59970  0.07770  Biso   1.000  C
  C106     1.0000 0.68480  0.50590  0.97010  Biso   1.000  C
  C107     1.0000 0.70150  0.54950  0.00610  Biso   1.000  C
  C108     1.0000 0.80930  0.56690  0.93340  Biso   1.000  C
  C109     1.0000 0.02130  0.91500  0.34210  Biso   1.000  C
  C110     1.0000 0.13830  0.91890  0.30900  Biso   1.000  C
  C111     1.0000 0.98190  0.97720  0.28540  Biso   1.000  C
  C112     1.0000 0.05050  0.73420  0.97420  Biso   1.000  C
  C113     1.0000 0.08390  0.76440  0.92910  Biso   1.000  C
  C114     1.0000 0.89070  0.72100  0.91570  Biso   1.000  C
  C115     1.0000 0.51520  0.67570  0.03390  Biso   1.000  C
  C116     1.0000 0.42380  0.69800  0.07110  Biso   1.000  C
  C117     1.0000 0.63800  0.71140  0.09790  Biso   1.000  C
  C118     1.0000 0.15040  0.31280  0.24410  Biso   1.000  C
  C119     1.0000 0.26070  0.32840  0.27570  Biso   1.000  C
  C120     1.0000 0.29530  0.24510  0.24700  Biso   1.000  C
  N1       1.0000 0.85980  0.28210  0.71440  Biso   1.000  N
  N2       1.0000 0.66840  0.27310  0.76610  Biso   1.000  N
  N3       1.0000 0.14760  0.33080  0.66000  Biso   1.000  N
  N4       1.0000 0.22600  0.41790  0.66870  Biso   1.000  N
  N5       1.0000 0.07590  0.50610  0.74840  Biso   1.000  N
  N6       1.0000 0.88670  0.50250  0.80240  Biso   1.000  N
  N7       1.0000 0.33520  0.54930  0.67970  Biso   1.000  N
  N8       1.0000 0.40450  0.63700  0.66790  Biso   1.000  N
  N9       1.0000 0.36930  0.09730  0.61970  Biso   1.000  N
  N10      1.0000 0.52790  0.14640  0.57490  Biso   1.000  N
  N11      1.0000 0.74850  0.01680  0.42370  Biso   1.000  N
  N12      1.0000 0.71820  0.08790  0.48270  Biso   1.000  N
  N13      1.0000 0.57750  0.45220  0.82560  Biso   1.000  N
  N14      1.0000 0.38720  0.45840  0.77230  Biso   1.000  N
  N15      1.0000 0.57210  0.20830  0.46510  Biso   1.000  N
  N16      1.0000 0.51840  0.25420  0.39140  Biso   1.000  N
  N17      1.0000 0.84880  0.18520  0.55030  Biso   1.000  N
  N18      1.0000 0.99610  0.22030  0.61300  Biso   1.000  N
  N19      1.0000 0.32940  0.75980  0.72520  Biso   1.000  N
  N20      1.0000 0.14570  0.78480  0.77870  Biso   1.000  N
  N21      1.0000 0.35980  0.21790  0.78560  Biso   1.000  N
  N22      1.0000 0.16840  0.22690  0.73390  Biso   1.000  N
  N23      1.0000 0.64760  0.16920  0.84000  Biso   1.000  N
  N24      1.0000 0.72600  0.08210  0.83130  Biso   1.000  N
  N25      1.0000 0.57590  0.99390  0.75160  Biso   1.000  N
  N26      1.0000 0.38670  0.99750  0.69760  Biso   1.000  N
  N27      1.0000 0.83520  0.95070  0.82030  Biso   1.000  N
  N28      1.0000 0.90450  0.86300  0.83210  Biso   1.000  N
  N29      1.0000 0.86930  0.40270  0.88030  Biso   1.000  N
  N30      1.0000 0.02790  0.35360  0.92510  Biso   1.000  N
  N31      1.0000 0.24850  0.48320  0.07630  Biso   1.000  N
  N32      1.0000 0.21820  0.41210  0.01730  Biso   1.000  N
  N33      1.0000 0.07750  0.04780  0.67440  Biso   1.000  N
  N34      1.0000 0.88720  0.04160  0.72770  Biso   1.000  N
  N35      1.0000 0.07210  0.29170  0.03490  Biso   1.000  N
  N36      1.0000 0.01840  0.24580  0.10860  Biso   1.000  N
  N37      1.0000 0.34880  0.31480  0.94970  Biso   1.000  N
  N38      1.0000 0.49610  0.27970  0.88700  Biso   1.000  N
  N39      1.0000 0.82940  0.74020  0.77480  Biso   1.000  N
  N40      1.0000 0.64570  0.71520  0.72130  Biso   1.000  N
  N41      1.0000 0.14020  0.71790  0.28560  Biso   1.000  N
  N42      1.0000 0.33160  0.72690  0.23390  Biso   1.000  N
  N43      1.0000 0.85240  0.66920  0.34000  Biso   1.000  N
  N44      1.0000 0.77400  0.58210  0.33130  Biso   1.000  N
  N45      1.0000 0.92410  0.49390  0.25160  Biso   1.000  N
  N46      1.0000 0.11330  0.49750  0.19760  Biso   1.000  N
  N47      1.0000 0.66480  0.45070  0.32030  Biso   1.000  N
  N48      1.0000 0.59550  0.36300  0.33210  Biso   1.000  N
  N49      1.0000 0.63070  0.90270  0.38030  Biso   1.000  N
  N50      1.0000 0.47210  0.85360  0.42510  Biso   1.000  N
  N51      1.0000 0.25150  0.98320  0.57630  Biso   1.000  N
  N52      1.0000 0.28180  0.91210  0.51730  Biso   1.000  N
  N53      1.0000 0.42250  0.54780  0.17440  Biso   1.000  N
  N54      1.0000 0.61280  0.54160  0.22770  Biso   1.000  N
  N55      1.0000 0.42790  0.79170  0.53490  Biso   1.000  N
  N56      1.0000 0.48160  0.74580  0.60860  Biso   1.000  N
  N57      1.0000 0.15120  0.81480  0.44970  Biso   1.000  N
  N58      1.0000 0.00390  0.77970  0.38700  Biso   1.000  N
  N59      1.0000 0.67060  0.24020  0.27480  Biso   1.000  N
  N60      1.0000 0.85430  0.21520  0.22130  Biso   1.000  N
  N61      1.0000 0.64020  0.78210  0.21440  Biso   1.000  N
  N62      1.0000 0.83160  0.77310  0.26610  Biso   1.000  N
  N63      1.0000 0.35240  0.83080  0.16000  Biso   1.000  N
  N64      1.0000 0.27400  0.91790  0.16870  Biso   1.000  N
  N65      1.0000 0.42410  0.00610  0.24840  Biso   1.000  N
  N66      1.0000 0.61330  0.00250  0.30240  Biso   1.000  N
  N67      1.0000 0.16480  0.04930  0.17970  Biso   1.000  N
  N68      1.0000 0.09550  0.13700  0.16790  Biso   1.000  N
  N69      1.0000 0.13070  0.59730  0.11970  Biso   1.000  N
  N70      1.0000 0.97210  0.64640  0.07490  Biso   1.000  N
  N71      1.0000 0.75150  0.51680  0.92370  Biso   1.000  N
  N72      1.0000 0.78180  0.58790  0.98270  Biso   1.000  N
  N73      1.0000 0.92250  0.95220  0.32560  Biso   1.000  N
  N74      1.0000 0.11280  0.95840  0.27230  Biso   1.000  N
  N75      1.0000 0.92790  0.70830  0.96510  Biso   1.000  N
  N76      1.0000 0.98160  0.75420  0.89140  Biso   1.000  N
  N77      1.0000 0.65120  0.68520  0.05030  Biso   1.000  N
  N78      1.0000 0.50390  0.72030  0.11300  Biso   1.000  N
  N79      1.0000 0.17060  0.25980  0.22520  Biso   1.000  N
  N80      1.0000 0.35430  0.28480  0.27870  Biso   1.000  N
