data_image0
_cell_length_a       9.5182
_cell_length_b       24.246
_cell_length_c       24.685
_cell_angle_alpha    90.96
_cell_angle_beta     90
_cell_angle_gamma    90

_symmetry_space_group_name_H-M    P 1
_symmetry_int_tables_number       1

loop_
  _symmetry_equiv_pos_as_xyz
  'x, y, z'

loop_
  _atom_site_label
  _atom_site_occupancy
  _atom_site_fract_x
  _atom_site_fract_y
  _atom_site_fract_z
  _atom_site_thermal_displace_type
  _atom_site_B_iso_or_equiv
  _atom_site_type_symbol
  Co1      1.0000 0.95856  0.26579  0.68027  Biso   1.000  Co
  Co2      1.0000 0.32458  0.16074  0.51706  Biso   1.000  Co
  Co3      1.0000 0.26885  0.96960  0.36150  Biso   1.000  Co
  Co4      1.0000 0.73736  0.48596  0.72162  Biso   1.000  Co
  Co5      1.0000 0.46594  0.28475  0.31646  Biso   1.000  Co
  Co6      1.0000 0.45856  0.23421  0.81973  Biso   1.000  Co
  Co7      1.0000 0.82458  0.33926  0.98294  Biso   1.000  Co
  Co8      1.0000 0.76885  0.53040  0.13850  Biso   1.000  Co
  Co9      1.0000 0.23736  0.01404  0.77838  Biso   1.000  Co
  Co10     1.0000 0.96594  0.21525  0.18354  Biso   1.000  Co
  Co11     1.0000 0.04144  0.73421  0.31973  Biso   1.000  Co
  Co12     1.0000 0.67542  0.83926  0.48294  Biso   1.000  Co
  Co13     1.0000 0.73115  0.03040  0.63850  Biso   1.000  Co
  Co14     1.0000 0.26264  0.51404  0.27838  Biso   1.000  Co
  Co15     1.0000 0.53406  0.71525  0.68354  Biso   1.000  Co
  Co16     1.0000 0.54144  0.76579  0.18027  Biso   1.000  Co
  Co17     1.0000 0.17542  0.66074  0.01706  Biso   1.000  Co
  Co18     1.0000 0.23115  0.46960  0.86150  Biso   1.000  Co
  Co19     1.0000 0.76264  0.98596  0.22162  Biso   1.000  Co
  Co20     1.0000 0.03406  0.78475  0.81646  Biso   1.000  Co
  H1       1.0000 0.92920  0.38710  0.71840  Biso   1.000  H
  H2       1.0000 0.66990  0.27910  0.73330  Biso   1.000  H
  H3       1.0000 0.92650  0.15950  0.76030  Biso   1.000  H
  H4       1.0000 0.72030  0.14640  0.81740  Biso   1.000  H
  H5       1.0000 0.21360  0.22090  0.61990  Biso   1.000  H
  H6       1.0000 0.83150  0.20980  0.56810  Biso   1.000  H
  H7       1.0000 0.98710  0.17070  0.49940  Biso   1.000  H
  H8       1.0000 0.35380  0.08660  0.41040  Biso   1.000  H
  H9       1.0000 0.16180  0.05070  0.54170  Biso   1.000  H
  H10      1.0000 0.14220  0.97200  0.48120  Biso   1.000  H
  H11      1.0000 0.52610  0.07170  0.55120  Biso   1.000  H
  H12      1.0000 0.48100  0.21150  0.62930  Biso   1.000  H
  H13      1.0000 0.65850  0.15830  0.67580  Biso   1.000  H
  H14      1.0000 0.43790  0.50450  0.76940  Biso   1.000  H
  H15      1.0000 0.70860  0.39940  0.81910  Biso   1.000  H
  H16      1.0000 0.50230  0.39060  0.87490  Biso   1.000  H
  H17      1.0000 0.94210  0.45590  0.81440  Biso   1.000  H
  H18      1.0000 0.30050  0.21510  0.40070  Biso   1.000  H
  H19      1.0000 0.63900  0.60740  0.74200  Biso   1.000  H
  H20      1.0000 0.67190  0.21180  0.24420  Biso   1.000  H
  H21      1.0000 0.68600  0.31030  0.61730  Biso   1.000  H
  H22      1.0000 0.59820  0.40440  0.62820  Biso   1.000  H
  H23      1.0000 0.00800  0.56250  0.70120  Biso   1.000  H
  H24      1.0000 0.21560  0.55570  0.75830  Biso   1.000  H
  H25      1.0000 0.59290  0.23700  0.50650  Biso   1.000  H
  H26      1.0000 0.64790  0.28890  0.42620  Biso   1.000  H
  H27      1.0000 0.72970  0.54050  0.60530  Biso   1.000  H
  H28      1.0000 0.65350  0.63650  0.59080  Biso   1.000  H
  H29      1.0000 0.89190  0.33760  0.21340  Biso   1.000  H
  H30      1.0000 0.70120  0.36530  0.27390  Biso   1.000  H
  H31      1.0000 0.42920  0.11290  0.78160  Biso   1.000  H
  H32      1.0000 0.16990  0.22090  0.76670  Biso   1.000  H
  H33      1.0000 0.42650  0.34050  0.73970  Biso   1.000  H
  H34      1.0000 0.22030  0.35360  0.68260  Biso   1.000  H
  H35      1.0000 0.71360  0.27910  0.88010  Biso   1.000  H
  H36      1.0000 0.33150  0.29020  0.93190  Biso   1.000  H
  H37      1.0000 0.48710  0.32930  0.00060  Biso   1.000  H
  H38      1.0000 0.85380  0.41340  0.08960  Biso   1.000  H
  H39      1.0000 0.66180  0.44930  0.95830  Biso   1.000  H
  H40      1.0000 0.64220  0.52800  0.01880  Biso   1.000  H
  H41      1.0000 0.02610  0.42830  0.94880  Biso   1.000  H
  H42      1.0000 0.98100  0.28850  0.87070  Biso   1.000  H
  H43      1.0000 0.15850  0.34170  0.82420  Biso   1.000  H
  H44      1.0000 0.93790  0.99550  0.73060  Biso   1.000  H
  H45      1.0000 0.20860  0.10060  0.68090  Biso   1.000  H
  H46      1.0000 0.00230  0.10940  0.62510  Biso   1.000  H
  H47      1.0000 0.44210  0.04410  0.68560  Biso   1.000  H
  H48      1.0000 0.80050  0.28490  0.09930  Biso   1.000  H
  H49      1.0000 0.13900  0.89260  0.75800  Biso   1.000  H
  H50      1.0000 0.17190  0.28820  0.25580  Biso   1.000  H
  H51      1.0000 0.18600  0.18970  0.88270  Biso   1.000  H
  H52      1.0000 0.09820  0.09560  0.87180  Biso   1.000  H
  H53      1.0000 0.50800  0.93750  0.79880  Biso   1.000  H
  H54      1.0000 0.71560  0.94430  0.74170  Biso   1.000  H
  H55      1.0000 0.09290  0.26300  0.99350  Biso   1.000  H
  H56      1.0000 0.14790  0.21110  0.07380  Biso   1.000  H
  H57      1.0000 0.22970  0.95950  0.89470  Biso   1.000  H
  H58      1.0000 0.15350  0.86350  0.90920  Biso   1.000  H
  H59      1.0000 0.39190  0.16240  0.28660  Biso   1.000  H
  H60      1.0000 0.20120  0.13470  0.22610  Biso   1.000  H
  H61      1.0000 0.07080  0.61290  0.28160  Biso   1.000  H
  H62      1.0000 0.33010  0.72090  0.26670  Biso   1.000  H
  H63      1.0000 0.07350  0.84050  0.23970  Biso   1.000  H
  H64      1.0000 0.27970  0.85360  0.18260  Biso   1.000  H
  H65      1.0000 0.78640  0.77910  0.38010  Biso   1.000  H
  H66      1.0000 0.16850  0.79020  0.43190  Biso   1.000  H
  H67      1.0000 0.01290  0.82930  0.50060  Biso   1.000  H
  H68      1.0000 0.64620  0.91340  0.58960  Biso   1.000  H
  H69      1.0000 0.83820  0.94930  0.45830  Biso   1.000  H
  H70      1.0000 0.85780  0.02800  0.51880  Biso   1.000  H
  H71      1.0000 0.47390  0.92830  0.44880  Biso   1.000  H
  H72      1.0000 0.51900  0.78850  0.37070  Biso   1.000  H
  H73      1.0000 0.34150  0.84170  0.32420  Biso   1.000  H
  H74      1.0000 0.56210  0.49550  0.23060  Biso   1.000  H
  H75      1.0000 0.29140  0.60060  0.18090  Biso   1.000  H
  H76      1.0000 0.49770  0.60940  0.12510  Biso   1.000  H
  H77      1.0000 0.05790  0.54410  0.18560  Biso   1.000  H
  H78      1.0000 0.69950  0.78490  0.59930  Biso   1.000  H
  H79      1.0000 0.36100  0.39260  0.25800  Biso   1.000  H
  H80      1.0000 0.32810  0.78820  0.75580  Biso   1.000  H
  H81      1.0000 0.31400  0.68970  0.38270  Biso   1.000  H
  H82      1.0000 0.40180  0.59560  0.37180  Biso   1.000  H
  H83      1.0000 0.99200  0.43750  0.29880  Biso   1.000  H
  H84      1.0000 0.78440  0.44430  0.24170  Biso   1.000  H
  H85      1.0000 0.40710  0.76300  0.49350  Biso   1.000  H
  H86      1.0000 0.35210  0.71110  0.57380  Biso   1.000  H
  H87      1.0000 0.27030  0.45950  0.39470  Biso   1.000  H
  H88      1.0000 0.34650  0.36350  0.40920  Biso   1.000  H
  H89      1.0000 0.10810  0.66240  0.78660  Biso   1.000  H
  H90      1.0000 0.29880  0.63470  0.72610  Biso   1.000  H
  H91      1.0000 0.57080  0.88710  0.21840  Biso   1.000  H
  H92      1.0000 0.83010  0.77910  0.23330  Biso   1.000  H
  H93      1.0000 0.57350  0.65950  0.26030  Biso   1.000  H
  H94      1.0000 0.77970  0.64640  0.31740  Biso   1.000  H
  H95      1.0000 0.28640  0.72090  0.11990  Biso   1.000  H
  H96      1.0000 0.66850  0.70980  0.06810  Biso   1.000  H
  H97      1.0000 0.51290  0.67070  0.99940  Biso   1.000  H
  H98      1.0000 0.14620  0.58660  0.91040  Biso   1.000  H
  H99      1.0000 0.33820  0.55070  0.04170  Biso   1.000  H
  H100     1.0000 0.35780  0.47200  0.98120  Biso   1.000  H
  H101     1.0000 0.97390  0.57170  0.05120  Biso   1.000  H
  H102     1.0000 0.01900  0.71150  0.12930  Biso   1.000  H
  H103     1.0000 0.84150  0.65830  0.17580  Biso   1.000  H
  H104     1.0000 0.06210  0.00450  0.26940  Biso   1.000  H
  H105     1.0000 0.79140  0.89940  0.31910  Biso   1.000  H
  H106     1.0000 0.99770  0.89060  0.37490  Biso   1.000  H
  H107     1.0000 0.55790  0.95590  0.31440  Biso   1.000  H
  H108     1.0000 0.19950  0.71510  0.90070  Biso   1.000  H
  H109     1.0000 0.86100  0.10740  0.24200  Biso   1.000  H
  H110     1.0000 0.82810  0.71180  0.74420  Biso   1.000  H
  H111     1.0000 0.81400  0.81030  0.11730  Biso   1.000  H
  H112     1.0000 0.90180  0.90440  0.12820  Biso   1.000  H
  H113     1.0000 0.49200  0.06250  0.20120  Biso   1.000  H
  H114     1.0000 0.28440  0.05570  0.25830  Biso   1.000  H
  H115     1.0000 0.90710  0.73700  0.00650  Biso   1.000  H
  H116     1.0000 0.85210  0.78890  0.92620  Biso   1.000  H
  H117     1.0000 0.77030  0.04050  0.10530  Biso   1.000  H
  H118     1.0000 0.84650  0.13650  0.09080  Biso   1.000  H
  H119     1.0000 0.60810  0.83760  0.71340  Biso   1.000  H
  H120     1.0000 0.79880  0.86530  0.77390  Biso   1.000  H
  C1       1.0000 0.86540  0.38150  0.69030  Biso   1.000  C
  C2       1.0000 0.70930  0.24730  0.74750  Biso   1.000  C
  C3       1.0000 0.84900  0.18280  0.76170  Biso   1.000  C
  C4       1.0000 0.73420  0.17520  0.79360  Biso   1.000  C
  C5       1.0000 0.13670  0.21350  0.59770  Biso   1.000  C
  C6       1.0000 0.92890  0.20790  0.57060  Biso   1.000  C
  C7       1.0000 0.01560  0.18600  0.53250  Biso   1.000  C
  C8       1.0000 0.30250  0.06770  0.43620  Biso   1.000  C
  C9       1.0000 0.19960  0.04860  0.50700  Biso   1.000  C
  C10      1.0000 0.18780  0.00490  0.47350  Biso   1.000  C
  C11      1.0000 0.53710  0.10030  0.57640  Biso   1.000  C
  C12      1.0000 0.51160  0.17650  0.61880  Biso   1.000  C
  C13      1.0000 0.61070  0.14710  0.64460  Biso   1.000  C
  C14      1.0000 0.48130  0.47700  0.78920  Biso   1.000  C
  C15      1.0000 0.62730  0.42030  0.81580  Biso   1.000  C
  C16      1.0000 0.51340  0.41530  0.84690  Biso   1.000  C
  C17      1.0000 0.98280  0.48470  0.79570  Biso   1.000  C
  C18      1.0000 0.38910  0.22250  0.41500  Biso   1.000  C
  C19      1.0000 0.63140  0.60010  0.70500  Biso   1.000  C
  C20      1.0000 0.71220  0.24640  0.24950  Biso   1.000  C
  C21      1.0000 0.73060  0.33880  0.63630  Biso   1.000  C
  C22      1.0000 0.68070  0.39060  0.64290  Biso   1.000  C
  C23      1.0000 0.01700  0.54170  0.73230  Biso   1.000  C
  C24      1.0000 0.13120  0.53760  0.76450  Biso   1.000  C
  C25      1.0000 0.54300  0.23590  0.47410  Biso   1.000  C
  C26      1.0000 0.57430  0.26390  0.42900  Biso   1.000  C
  C27      1.0000 0.68880  0.56380  0.63120  Biso   1.000  C
  C28      1.0000 0.64680  0.61740  0.62310  Biso   1.000  C
  C29      1.0000 0.83040  0.31380  0.23070  Biso   1.000  C
  C30      1.0000 0.72150  0.32910  0.26350  Biso   1.000  C
  C31      1.0000 0.36540  0.11850  0.80970  Biso   1.000  C
  C32      1.0000 0.20930  0.25270  0.75250  Biso   1.000  C
  C33      1.0000 0.34900  0.31720  0.73830  Biso   1.000  C
  C34      1.0000 0.23420  0.32480  0.70640  Biso   1.000  C
  C35      1.0000 0.63670  0.28650  0.90230  Biso   1.000  C
  C36      1.0000 0.42890  0.29210  0.92940  Biso   1.000  C
  C37      1.0000 0.51560  0.31400  0.96750  Biso   1.000  C
  C38      1.0000 0.80250  0.43230  0.06380  Biso   1.000  C
  C39      1.0000 0.69960  0.45140  0.99300  Biso   1.000  C
  C40      1.0000 0.68780  0.49510  0.02650  Biso   1.000  C
  C41      1.0000 0.03710  0.39970  0.92360  Biso   1.000  C
  C42      1.0000 0.01160  0.32350  0.88120  Biso   1.000  C
  C43      1.0000 0.11070  0.35290  0.85540  Biso   1.000  C
  C44      1.0000 0.98130  0.02300  0.71080  Biso   1.000  C
  C45      1.0000 0.12730  0.07970  0.68420  Biso   1.000  C
  C46      1.0000 0.01340  0.08470  0.65310  Biso   1.000  C
  C47      1.0000 0.48280  0.01530  0.70430  Biso   1.000  C
  C48      1.0000 0.88910  0.27750  0.08500  Biso   1.000  C
  C49      1.0000 0.13140  0.89990  0.79500  Biso   1.000  C
  C50      1.0000 0.21220  0.25360  0.25050  Biso   1.000  C
  C51      1.0000 0.23060  0.16120  0.86370  Biso   1.000  C
  C52      1.0000 0.18070  0.10940  0.85710  Biso   1.000  C
  C53      1.0000 0.51700  0.95830  0.76770  Biso   1.000  C
  C54      1.0000 0.63120  0.96240  0.73550  Biso   1.000  C
  C55      1.0000 0.04300  0.26410  0.02590  Biso   1.000  C
  C56      1.0000 0.07430  0.23610  0.07100  Biso   1.000  C
  C57      1.0000 0.18880  0.93620  0.86880  Biso   1.000  C
  C58      1.0000 0.14680  0.88260  0.87690  Biso   1.000  C
  C59      1.0000 0.33040  0.18620  0.26930  Biso   1.000  C
  C60      1.0000 0.22150  0.17090  0.23650  Biso   1.000  C
  C61      1.0000 0.13460  0.61850  0.30970  Biso   1.000  C
  C62      1.0000 0.29070  0.75270  0.25250  Biso   1.000  C
  C63      1.0000 0.15100  0.81720  0.23830  Biso   1.000  C
  C64      1.0000 0.26580  0.82480  0.20640  Biso   1.000  C
  C65      1.0000 0.86330  0.78650  0.40230  Biso   1.000  C
  C66      1.0000 0.07110  0.79210  0.42940  Biso   1.000  C
  C67      1.0000 0.98440  0.81400  0.46750  Biso   1.000  C
  C68      1.0000 0.69750  0.93230  0.56380  Biso   1.000  C
  C69      1.0000 0.80040  0.95140  0.49300  Biso   1.000  C
  C70      1.0000 0.81220  0.99510  0.52650  Biso   1.000  C
  C71      1.0000 0.46290  0.89970  0.42360  Biso   1.000  C
  C72      1.0000 0.48840  0.82350  0.38120  Biso   1.000  C
  C73      1.0000 0.38930  0.85290  0.35540  Biso   1.000  C
  C74      1.0000 0.51870  0.52300  0.21080  Biso   1.000  C
  C75      1.0000 0.37270  0.57970  0.18420  Biso   1.000  C
  C76      1.0000 0.48660  0.58470  0.15310  Biso   1.000  C
  C77      1.0000 0.01720  0.51530  0.20430  Biso   1.000  C
  C78      1.0000 0.61090  0.77750  0.58500  Biso   1.000  C
  C79      1.0000 0.36860  0.39990  0.29500  Biso   1.000  C
  C80      1.0000 0.28780  0.75360  0.75050  Biso   1.000  C
  C81      1.0000 0.26940  0.66120  0.36370  Biso   1.000  C
  C82      1.0000 0.31930  0.60940  0.35710  Biso   1.000  C
  C83      1.0000 0.98300  0.45830  0.26770  Biso   1.000  C
  C84      1.0000 0.86880  0.46240  0.23550  Biso   1.000  C
  C85      1.0000 0.45700  0.76410  0.52590  Biso   1.000  C
  C86      1.0000 0.42570  0.73610  0.57100  Biso   1.000  C
  C87      1.0000 0.31120  0.43620  0.36880  Biso   1.000  C
  C88      1.0000 0.35320  0.38260  0.37690  Biso   1.000  C
  C89      1.0000 0.16960  0.68620  0.76930  Biso   1.000  C
  C90      1.0000 0.27850  0.67090  0.73650  Biso   1.000  C
  C91      1.0000 0.63460  0.88150  0.19030  Biso   1.000  C
  C92      1.0000 0.79070  0.74730  0.24750  Biso   1.000  C
  C93      1.0000 0.65100  0.68280  0.26170  Biso   1.000  C
  C94      1.0000 0.76580  0.67520  0.29360  Biso   1.000  C
  C95      1.0000 0.36330  0.71350  0.09770  Biso   1.000  C
  C96      1.0000 0.57110  0.70790  0.07060  Biso   1.000  C
  C97      1.0000 0.48440  0.68600  0.03250  Biso   1.000  C
  C98      1.0000 0.19750  0.56770  0.93620  Biso   1.000  C
  C99      1.0000 0.30040  0.54860  0.00700  Biso   1.000  C
  C100     1.0000 0.31220  0.50490  0.97350  Biso   1.000  C
  C101     1.0000 0.96290  0.60030  0.07640  Biso   1.000  C
  C102     1.0000 0.98840  0.67650  0.11880  Biso   1.000  C
  C103     1.0000 0.88930  0.64710  0.14460  Biso   1.000  C
  C104     1.0000 0.01870  0.97700  0.28920  Biso   1.000  C
  C105     1.0000 0.87270  0.92030  0.31580  Biso   1.000  C
  C106     1.0000 0.98660  0.91530  0.34690  Biso   1.000  C
  C107     1.0000 0.51720  0.98470  0.29570  Biso   1.000  C
  C108     1.0000 0.11090  0.72250  0.91500  Biso   1.000  C
  C109     1.0000 0.86860  0.10010  0.20500  Biso   1.000  C
  C110     1.0000 0.78780  0.74640  0.74950  Biso   1.000  C
  C111     1.0000 0.76940  0.83880  0.13630  Biso   1.000  C
  C112     1.0000 0.81930  0.89060  0.14290  Biso   1.000  C
  C113     1.0000 0.48300  0.04170  0.23230  Biso   1.000  C
  C114     1.0000 0.36880  0.03760  0.26450  Biso   1.000  C
  C115     1.0000 0.95700  0.73590  0.97410  Biso   1.000  C
  C116     1.0000 0.92570  0.76390  0.92900  Biso   1.000  C
  C117     1.0000 0.81120  0.06380  0.13120  Biso   1.000  C
  C118     1.0000 0.85320  0.11740  0.12310  Biso   1.000  C
  C119     1.0000 0.66960  0.81380  0.73070  Biso   1.000  C
  C120     1.0000 0.77850  0.82910  0.76350  Biso   1.000  C
  N1       1.0000 0.85950  0.33490  0.66253  Biso   1.000  N
  N2       1.0000 0.77540  0.42006  0.67600  Biso   1.000  N
  N3       1.0000 0.83450  0.22913  0.73249  Biso   1.000  N
  N4       1.0000 0.64340  0.21730  0.78434  Biso   1.000  N
  N5       1.0000 0.00640  0.22629  0.61247  Biso   1.000  N
  N6       1.0000 0.15030  0.18978  0.54980  Biso   1.000  N
  N7       1.0000 0.27370  0.08899  0.48380  Biso   1.000  N
  N8       1.0000 0.25330  0.01690  0.42693  Biso   1.000  N
  N9       1.0000 0.62920  0.09801  0.61733  Biso   1.000  N
  N10      1.0000 0.41710  0.45230  0.83037  Biso   1.000  N
  N11      1.0000 0.60770  0.46032  0.77863  Biso   1.000  N
  N12      1.0000 0.91660  0.50860  0.75560  Biso   1.000  N
  N13      1.0000 0.10820  0.50315  0.80806  Biso   1.000  N
  N14      1.0000 0.42390  0.20525  0.46361  Biso   1.000  N
  N15      1.0000 0.48180  0.25040  0.38710  Biso   1.000  N
  N16      1.0000 0.59280  0.63812  0.67170  Biso   1.000  N
  N17      1.0000 0.65960  0.55060  0.68426  Biso   1.000  N
  N18      1.0000 0.46220  0.14691  0.57442  Biso   1.000  N
  N19      1.0000 0.64640  0.28430  0.27910  Biso   1.000  N
  N20      1.0000 0.83370  0.25760  0.22770  Biso   1.000  N
  N21      1.0000 0.35950  0.16510  0.83747  Biso   1.000  N
  N22      1.0000 0.27540  0.07994  0.82400  Biso   1.000  N
  N23      1.0000 0.33450  0.27087  0.76751  Biso   1.000  N
  N24      1.0000 0.14340  0.28270  0.71566  Biso   1.000  N
  N25      1.0000 0.50640  0.27371  0.88753  Biso   1.000  N
  N26      1.0000 0.65030  0.31022  0.95020  Biso   1.000  N
  N27      1.0000 0.77370  0.41101  0.01620  Biso   1.000  N
  N28      1.0000 0.75330  0.48310  0.07307  Biso   1.000  N
  N29      1.0000 0.12920  0.40199  0.88267  Biso   1.000  N
  N30      1.0000 0.91710  0.04770  0.66963  Biso   1.000  N
  N31      1.0000 0.10770  0.03968  0.72137  Biso   1.000  N
  N32      1.0000 0.41660  0.99140  0.74440  Biso   1.000  N
  N33      1.0000 0.60820  0.99685  0.69194  Biso   1.000  N
  N34      1.0000 0.92390  0.29475  0.03639  Biso   1.000  N
  N35      1.0000 0.98180  0.24960  0.11290  Biso   1.000  N
  N36      1.0000 0.09280  0.86188  0.82830  Biso   1.000  N
  N37      1.0000 0.15960  0.94940  0.81574  Biso   1.000  N
  N38      1.0000 0.96220  0.35309  0.92558  Biso   1.000  N
  N39      1.0000 0.14640  0.21570  0.22090  Biso   1.000  N
  N40      1.0000 0.33370  0.24240  0.27230  Biso   1.000  N
  N41      1.0000 0.14050  0.66510  0.33747  Biso   1.000  N
  N42      1.0000 0.22460  0.57994  0.32400  Biso   1.000  N
  N43      1.0000 0.16550  0.77087  0.26751  Biso   1.000  N
  N44      1.0000 0.35660  0.78270  0.21566  Biso   1.000  N
  N45      1.0000 0.99360  0.77371  0.38753  Biso   1.000  N
  N46      1.0000 0.84970  0.81022  0.45020  Biso   1.000  N
  N47      1.0000 0.72630  0.91101  0.51620  Biso   1.000  N
  N48      1.0000 0.74670  0.98310  0.57307  Biso   1.000  N
  N49      1.0000 0.37080  0.90199  0.38267  Biso   1.000  N
  N50      1.0000 0.58290  0.54770  0.16963  Biso   1.000  N
  N51      1.0000 0.39230  0.53968  0.22137  Biso   1.000  N
  N52      1.0000 0.08340  0.49140  0.24440  Biso   1.000  N
  N53      1.0000 0.89180  0.49685  0.19194  Biso   1.000  N
  N54      1.0000 0.57610  0.79475  0.53639  Biso   1.000  N
  N55      1.0000 0.51820  0.74960  0.61290  Biso   1.000  N
  N56      1.0000 0.40720  0.36188  0.32830  Biso   1.000  N
  N57      1.0000 0.34040  0.44940  0.31574  Biso   1.000  N
  N58      1.0000 0.53780  0.85309  0.42558  Biso   1.000  N
  N59      1.0000 0.35360  0.71570  0.72090  Biso   1.000  N
  N60      1.0000 0.16630  0.74240  0.77230  Biso   1.000  N
  N61      1.0000 0.64050  0.83490  0.16253  Biso   1.000  N
  N62      1.0000 0.72460  0.92006  0.17600  Biso   1.000  N
  N63      1.0000 0.66550  0.72913  0.23249  Biso   1.000  N
  N64      1.0000 0.85660  0.71730  0.28434  Biso   1.000  N
  N65      1.0000 0.49360  0.72629  0.11247  Biso   1.000  N
  N66      1.0000 0.34970  0.68978  0.04980  Biso   1.000  N
  N67      1.0000 0.22630  0.58899  0.98380  Biso   1.000  N
  N68      1.0000 0.24670  0.51690  0.92693  Biso   1.000  N
  N69      1.0000 0.87080  0.59801  0.11733  Biso   1.000  N
  N70      1.0000 0.08290  0.95230  0.33037  Biso   1.000  N
  N71      1.0000 0.89230  0.96032  0.27863  Biso   1.000  N
  N72      1.0000 0.58340  0.00860  0.25560  Biso   1.000  N
  N73      1.0000 0.39180  0.00315  0.30806  Biso   1.000  N
  N74      1.0000 0.07610  0.70525  0.96361  Biso   1.000  N
  N75      1.0000 0.01820  0.75040  0.88710  Biso   1.000  N
  N76      1.0000 0.90720  0.13812  0.17170  Biso   1.000  N
  N77      1.0000 0.84040  0.05060  0.18426  Biso   1.000  N
  N78      1.0000 0.03780  0.64691  0.07442  Biso   1.000  N
  N79      1.0000 0.85360  0.78430  0.77910  Biso   1.000  N
  N80      1.0000 0.66630  0.75760  0.72770  Biso   1.000  N
