data_image0
_cell_length_a       7.71191
_cell_length_b       13.4745
_cell_length_c       25.1892
_cell_angle_alpha    90
_cell_angle_beta     90
_cell_angle_gamma    106.629

_symmetry_space_group_name_H-M    P 1
_symmetry_int_tables_number       1

loop_
  _symmetry_equiv_pos_as_xyz
  'x, y, z'

loop_
  _atom_site_label
  _atom_site_occupancy
  _atom_site_fract_x
  _atom_site_fract_y
  _atom_site_fract_z
  _atom_site_thermal_displace_type
  _atom_site_B_iso_or_equiv
  _atom_site_type_symbol
  Cu1      1.0000 0.50000  0.50000  0.50000  Biso   1.000  Cu
  Cu2      1.0000 0.50000  0.50000  0.00000  Biso   1.000  Cu
  Cu3      1.0000 0.00000  0.50000  0.00000  Biso   1.000  Cu
  Cu4      1.0000 0.00000  0.50000  0.50000  Biso   1.000  Cu
  H1       1.0000 0.03380  0.69280  0.70340  Biso   1.000  H
  H2       1.0000 0.49460  0.58160  0.70380  Biso   1.000  H
  H3       1.0000 0.35490  0.09060  0.44440  Biso   1.000  H
  H4       1.0000 0.96620  0.30720  0.20340  Biso   1.000  H
  H5       1.0000 0.50540  0.41840  0.20380  Biso   1.000  H
  H6       1.0000 0.64510  0.90940  0.94440  Biso   1.000  H
  H7       1.0000 0.34100  0.30720  0.79660  Biso   1.000  H
  H8       1.0000 0.91300  0.41840  0.79620  Biso   1.000  H
  H9       1.0000 0.26430  0.90940  0.05560  Biso   1.000  H
  H10      1.0000 0.65900  0.69280  0.29660  Biso   1.000  H
  H11      1.0000 0.08700  0.58160  0.29620  Biso   1.000  H
  H12      1.0000 0.73570  0.09060  0.55560  Biso   1.000  H
  H13      1.0000 0.96620  0.30720  0.29660  Biso   1.000  H
  H14      1.0000 0.50540  0.41840  0.29620  Biso   1.000  H
  H15      1.0000 0.64510  0.90940  0.55560  Biso   1.000  H
  H16      1.0000 0.03380  0.69280  0.79660  Biso   1.000  H
  H17      1.0000 0.49460  0.58160  0.79620  Biso   1.000  H
  H18      1.0000 0.35490  0.09060  0.05560  Biso   1.000  H
  H19      1.0000 0.65900  0.69280  0.20340  Biso   1.000  H
  H20      1.0000 0.08700  0.58160  0.20380  Biso   1.000  H
  H21      1.0000 0.73570  0.09060  0.94440  Biso   1.000  H
  H22      1.0000 0.34100  0.30720  0.70340  Biso   1.000  H
  H23      1.0000 0.91300  0.41840  0.70380  Biso   1.000  H
  H24      1.0000 0.26430  0.90940  0.44440  Biso   1.000  H
  C1       1.0000 0.61646  0.59032  0.60735  Biso   1.000  C
  C2       1.0000 0.76477  0.61774  0.63785  Biso   1.000  C
  C3       1.0000 0.90749  0.61078  0.60830  Biso   1.000  C
  C4       1.0000 0.76569  0.63198  0.69516  Biso   1.000  C
  C5       1.0000 0.92304  0.66768  0.72218  Biso   1.000  C
  C6       1.0000 0.60596  0.60232  0.72257  Biso   1.000  C
  C7       1.0000 0.49750  0.27960  0.49999  Biso   1.000  C
  C8       1.0000 0.41442  0.05364  0.46710  Biso   1.000  C
  C9       1.0000 0.38354  0.40968  0.10735  Biso   1.000  C
  C10      1.0000 0.23523  0.38226  0.13785  Biso   1.000  C
  C11      1.0000 0.09251  0.38922  0.10830  Biso   1.000  C
  C12      1.0000 0.23431  0.36802  0.19516  Biso   1.000  C
  C13      1.0000 0.07696  0.33232  0.22218  Biso   1.000  C
  C14      1.0000 0.39404  0.39768  0.22257  Biso   1.000  C
  C15      1.0000 0.50250  0.72040  0.99999  Biso   1.000  C
  C16      1.0000 0.58558  0.94636  0.96710  Biso   1.000  C
  C17      1.0000 0.02614  0.40968  0.89265  Biso   1.000  C
  C18      1.0000 0.14703  0.38226  0.86215  Biso   1.000  C
  C19      1.0000 0.29671  0.38922  0.89170  Biso   1.000  C
  C20      1.0000 0.13371  0.36802  0.80484  Biso   1.000  C
  C21      1.0000 0.25536  0.33232  0.77782  Biso   1.000  C
  C22      1.0000 0.00364  0.39768  0.77743  Biso   1.000  C
  C23      1.0000 0.21790  0.72040  0.00001  Biso   1.000  C
  C24      1.0000 0.36078  0.94636  0.03290  Biso   1.000  C
  C25      1.0000 0.97386  0.59032  0.39265  Biso   1.000  C
  C26      1.0000 0.85297  0.61774  0.36215  Biso   1.000  C
  C27      1.0000 0.70329  0.61078  0.39170  Biso   1.000  C
  C28      1.0000 0.86629  0.63198  0.30484  Biso   1.000  C
  C29      1.0000 0.74464  0.66768  0.27782  Biso   1.000  C
  C30      1.0000 0.99636  0.60232  0.27743  Biso   1.000  C
  C31      1.0000 0.78210  0.27960  0.50001  Biso   1.000  C
  C32      1.0000 0.63922  0.05364  0.53290  Biso   1.000  C
  C33      1.0000 0.38354  0.40968  0.39265  Biso   1.000  C
  C34      1.0000 0.23523  0.38226  0.36215  Biso   1.000  C
  C35      1.0000 0.09251  0.38922  0.39170  Biso   1.000  C
  C36      1.0000 0.23431  0.36802  0.30484  Biso   1.000  C
  C37      1.0000 0.07696  0.33232  0.27782  Biso   1.000  C
  C38      1.0000 0.39404  0.39768  0.27743  Biso   1.000  C
  C39      1.0000 0.50250  0.72040  0.50001  Biso   1.000  C
  C40      1.0000 0.58558  0.94636  0.53290  Biso   1.000  C
  C41      1.0000 0.61646  0.59032  0.89265  Biso   1.000  C
  C42      1.0000 0.76477  0.61774  0.86215  Biso   1.000  C
  C43      1.0000 0.90749  0.61078  0.89170  Biso   1.000  C
  C44      1.0000 0.76569  0.63198  0.80484  Biso   1.000  C
  C45      1.0000 0.92304  0.66768  0.77782  Biso   1.000  C
  C46      1.0000 0.60596  0.60232  0.77743  Biso   1.000  C
  C47      1.0000 0.49750  0.27960  0.00001  Biso   1.000  C
  C48      1.0000 0.41442  0.05364  0.03290  Biso   1.000  C
  C49      1.0000 0.97386  0.59032  0.10735  Biso   1.000  C
  C50      1.0000 0.85297  0.61774  0.13785  Biso   1.000  C
  C51      1.0000 0.70329  0.61078  0.10830  Biso   1.000  C
  C52      1.0000 0.86629  0.63198  0.19516  Biso   1.000  C
  C53      1.0000 0.74464  0.66768  0.22218  Biso   1.000  C
  C54      1.0000 0.99636  0.60232  0.22257  Biso   1.000  C
  C55      1.0000 0.78210  0.27960  0.99999  Biso   1.000  C
  C56      1.0000 0.63922  0.05364  0.96710  Biso   1.000  C
  C57      1.0000 0.02614  0.40968  0.60735  Biso   1.000  C
  C58      1.0000 0.14703  0.38226  0.63785  Biso   1.000  C
  C59      1.0000 0.29671  0.38922  0.60830  Biso   1.000  C
  C60      1.0000 0.13371  0.36802  0.69516  Biso   1.000  C
  C61      1.0000 0.25536  0.33232  0.72218  Biso   1.000  C
  C62      1.0000 0.00364  0.39768  0.72257  Biso   1.000  C
  C63      1.0000 0.21790  0.72040  0.49999  Biso   1.000  C
  C64      1.0000 0.36078  0.94636  0.46710  Biso   1.000  C
  C65      1.0000 0.60916  0.21832  0.50000  Biso   1.000  C
  C66      1.0000 0.55292  0.10584  0.50000  Biso   1.000  C
  C67      1.0000 0.39084  0.78168  0.00000  Biso   1.000  C
  C68      1.0000 0.44708  0.89416  0.00000  Biso   1.000  C
  C69      1.0000 0.39084  0.78168  0.50000  Biso   1.000  C
  C70      1.0000 0.44708  0.89416  0.50000  Biso   1.000  C
  C71      1.0000 0.60916  0.21832  0.00000  Biso   1.000  C
  C72      1.0000 0.55292  0.10584  0.00000  Biso   1.000  C
  N1       1.0000 0.66849  0.56678  0.56019  Biso   1.000  N
  N2       1.0000 0.84816  0.57952  0.56031  Biso   1.000  N
  N3       1.0000 0.60020  0.37620  0.49998  Biso   1.000  N
  N4       1.0000 0.33151  0.43322  0.06019  Biso   1.000  N
  N5       1.0000 0.15184  0.42048  0.06031  Biso   1.000  N
  N6       1.0000 0.39980  0.62380  0.99998  Biso   1.000  N
  N7       1.0000 0.10171  0.43322  0.93981  Biso   1.000  N
  N8       1.0000 0.26864  0.42048  0.93969  Biso   1.000  N
  N9       1.0000 0.22400  0.62380  0.00002  Biso   1.000  N
  N10      1.0000 0.89829  0.56678  0.43981  Biso   1.000  N
  N11      1.0000 0.73136  0.57952  0.43969  Biso   1.000  N
  N12      1.0000 0.77600  0.37620  0.50002  Biso   1.000  N
  N13      1.0000 0.33151  0.43322  0.43981  Biso   1.000  N
  N14      1.0000 0.15184  0.42048  0.43969  Biso   1.000  N
  N15      1.0000 0.39980  0.62380  0.50002  Biso   1.000  N
  N16      1.0000 0.66849  0.56678  0.93981  Biso   1.000  N
  N17      1.0000 0.84816  0.57952  0.93969  Biso   1.000  N
  N18      1.0000 0.60020  0.37620  0.00002  Biso   1.000  N
  N19      1.0000 0.89829  0.56678  0.06019  Biso   1.000  N
  N20      1.0000 0.73136  0.57952  0.06031  Biso   1.000  N
  N21      1.0000 0.77600  0.37620  0.99998  Biso   1.000  N
  N22      1.0000 0.10171  0.43322  0.56019  Biso   1.000  N
  N23      1.0000 0.26864  0.42048  0.56031  Biso   1.000  N
  N24      1.0000 0.22400  0.62380  0.49998  Biso   1.000  N
