data_image0
_cell_length_a       18.968
_cell_length_b       18.968
_cell_length_c       5.773
_cell_angle_alpha    90
_cell_angle_beta     90
_cell_angle_gamma    90

_symmetry_space_group_name_H-M    "P 1"
_symmetry_int_tables_number       1

loop_
  _symmetry_equiv_pos_as_xyz
  'x, y, z'

loop_
  _atom_site_label
  _atom_site_occupancy
  _atom_site_fract_x
  _atom_site_fract_y
  _atom_site_fract_z
  _atom_site_thermal_displace_type
  _atom_site_B_iso_or_equiv
  _atom_site_type_symbol
  O1       1.0000 0.24260  0.68540  0.43400  Biso   1.000  O
  O2       1.0000 0.22440  0.59280  0.23100  Biso   1.000  O
  C1       1.0000 0.23840  0.62500  0.40800  Biso   1.000  C
  C2       1.0000 0.24990  0.57570  0.63200  Biso   1.000  C
  H1       1.0000 0.20620  0.54780  0.66430  Biso   1.000  H
  O3       1.0000 0.26390  0.62610  0.82500  Biso   1.000  O
  C3       1.0000 0.31520  0.52560  0.61500  Biso   1.000  C
  H2       1.0000 0.30690  0.49450  0.47760  Biso   1.000  H
  O4       1.0000 0.37360  0.56220  0.57000  Biso   1.000  O
  C4       1.0000 0.31610  0.47860  0.82300  Biso   1.000  C
  H3       1.0000 0.32430  0.50880  0.96210  Biso   1.000  H
  O5       1.0000 0.37980  0.43140  0.79300  Biso   1.000  O
  C5       1.0000 0.25200  0.42920  0.87600  Biso   1.000  C
  H4       1.0000 0.21000  0.45860  0.91580  Biso   1.000  H
  O6       1.0000 0.27110  0.38640  0.07300  Biso   1.000  O
  C6       1.0000 0.23720  0.38870  0.66900  Biso   1.000  C
  O7       1.0000 0.24550  0.32040  0.68900  Biso   1.000  O
  O8       1.0000 0.21420  0.42220  0.48200  Biso   1.000  O
  O9       1.0000 0.75740  0.31460  0.93400  Biso   1.000  O
  O10      1.0000 0.77560  0.40720  0.73100  Biso   1.000  O
  C7       1.0000 0.76160  0.37500  0.90800  Biso   1.000  C
  C8       1.0000 0.75010  0.42430  0.13200  Biso   1.000  C
  H5       1.0000 0.79380  0.45220  0.16430  Biso   1.000  H
  O11      1.0000 0.73610  0.37390  0.32500  Biso   1.000  O
  C9       1.0000 0.68480  0.47440  0.11500  Biso   1.000  C
  H6       1.0000 0.69310  0.50550  0.97760  Biso   1.000  H
  O12      1.0000 0.62640  0.43780  0.07000  Biso   1.000  O
  C10      1.0000 0.68390  0.52140  0.32300  Biso   1.000  C
  H7       1.0000 0.67570  0.49120  0.46210  Biso   1.000  H
  O13      1.0000 0.62020  0.56860  0.29300  Biso   1.000  O
  C11      1.0000 0.74800  0.57080  0.37600  Biso   1.000  C
  H8       1.0000 0.79000  0.54140  0.41580  Biso   1.000  H
  O14      1.0000 0.72890  0.61360  0.57300  Biso   1.000  O
  C12      1.0000 0.76280  0.61130  0.16900  Biso   1.000  C
  O15      1.0000 0.75450  0.67960  0.18900  Biso   1.000  O
  O16      1.0000 0.78580  0.57780  0.98200  Biso   1.000  O
  O17      1.0000 0.81460  0.74260  0.68400  Biso   1.000  O
  O18      1.0000 0.90720  0.72440  0.48100  Biso   1.000  O
  C13      1.0000 0.87500  0.73840  0.65800  Biso   1.000  C
  C14      1.0000 0.92430  0.74990  0.88200  Biso   1.000  C
  H9       1.0000 0.95220  0.70620  0.91430  Biso   1.000  H
  O19      1.0000 0.87390  0.76390  0.07500  Biso   1.000  O
  C15      1.0000 0.97440  0.81520  0.86500  Biso   1.000  C
  H10      1.0000 0.00550  0.80690  0.72760  Biso   1.000  H
  O20      1.0000 0.93780  0.87360  0.82000  Biso   1.000  O
  C16      1.0000 0.02140  0.81610  0.07300  Biso   1.000  C
  H11      1.0000 0.99120  0.82430  0.21210  Biso   1.000  H
  O21      1.0000 0.06860  0.87980  0.04300  Biso   1.000  O
  C17      1.0000 0.07080  0.75200  0.12600  Biso   1.000  C
  H12      1.0000 0.04140  0.71000  0.16580  Biso   1.000  H
  O22      1.0000 0.11360  0.77110  0.32300  Biso   1.000  O
  C18      1.0000 0.11130  0.73720  0.91900  Biso   1.000  C
  O23      1.0000 0.17960  0.74550  0.93900  Biso   1.000  O
  O24      1.0000 0.07780  0.71420  0.73200  Biso   1.000  O
  O25      1.0000 0.18540  0.25740  0.18400  Biso   1.000  O
  O26      1.0000 0.09280  0.27560  0.98100  Biso   1.000  O
  C19      1.0000 0.12500  0.26160  0.15800  Biso   1.000  C
  C20      1.0000 0.07570  0.25010  0.38200  Biso   1.000  C
  H13      1.0000 0.04780  0.29380  0.41430  Biso   1.000  H
  O27      1.0000 0.12610  0.23610  0.57500  Biso   1.000  O
  C21      1.0000 0.02560  0.18480  0.36500  Biso   1.000  C
  H14      1.0000 0.99450  0.19310  0.22760  Biso   1.000  H
  O28      1.0000 0.06220  0.12640  0.32000  Biso   1.000  O
  C22      1.0000 0.97860  0.18390  0.57300  Biso   1.000  C
  H15      1.0000 0.00880  0.17570  0.71210  Biso   1.000  H
  O29      1.0000 0.93140  0.12020  0.54300  Biso   1.000  O
  C23      1.0000 0.92920  0.24800  0.62600  Biso   1.000  C
  H16      1.0000 0.95860  0.29000  0.66580  Biso   1.000  H
  O30      1.0000 0.88640  0.22890  0.82300  Biso   1.000  O
  C24      1.0000 0.88870  0.26280  0.41900  Biso   1.000  C
  O31      1.0000 0.82040  0.25450  0.43900  Biso   1.000  O
  O32      1.0000 0.92220  0.28580  0.23200  Biso   1.000  O
  O33      1.0000 0.25740  0.18540  0.81600  Biso   1.000  O
  O34      1.0000 0.27560  0.09280  0.01900  Biso   1.000  O
  C25      1.0000 0.26160  0.12500  0.84200  Biso   1.000  C
  C26      1.0000 0.25010  0.07570  0.61800  Biso   1.000  C
  H17      1.0000 0.29380  0.04780  0.58570  Biso   1.000  H
  O35      1.0000 0.23610  0.12610  0.42500  Biso   1.000  O
  C27      1.0000 0.18480  0.02560  0.63500  Biso   1.000  C
  H18      1.0000 0.19310  0.99450  0.77240  Biso   1.000  H
  O36      1.0000 0.12640  0.06220  0.68000  Biso   1.000  O
  C28      1.0000 0.18390  0.97860  0.42700  Biso   1.000  C
  H19      1.0000 0.17570  0.00880  0.28790  Biso   1.000  H
  O37      1.0000 0.12020  0.93140  0.45700  Biso   1.000  O
  C29      1.0000 0.24800  0.92920  0.37400  Biso   1.000  C
  H20      1.0000 0.29000  0.95860  0.33420  Biso   1.000  H
  O38      1.0000 0.22890  0.88640  0.17700  Biso   1.000  O
  C30      1.0000 0.26280  0.88870  0.58100  Biso   1.000  C
  O39      1.0000 0.25450  0.82040  0.56100  Biso   1.000  O
  O40      1.0000 0.28580  0.92220  0.76800  Biso   1.000  O
  O41      1.0000 0.74260  0.81460  0.31600  Biso   1.000  O
  O42      1.0000 0.72440  0.90720  0.51900  Biso   1.000  O
  C31      1.0000 0.73840  0.87500  0.34200  Biso   1.000  C
  C32      1.0000 0.74990  0.92430  0.11800  Biso   1.000  C
  H21      1.0000 0.70620  0.95220  0.08570  Biso   1.000  H
  O43      1.0000 0.76390  0.87390  0.92500  Biso   1.000  O
  C33      1.0000 0.81520  0.97440  0.13500  Biso   1.000  C
  H22      1.0000 0.80690  0.00550  0.27240  Biso   1.000  H
  O44      1.0000 0.87360  0.93780  0.18000  Biso   1.000  O
  C34      1.0000 0.81610  0.02140  0.92700  Biso   1.000  C
  H23      1.0000 0.82430  0.99120  0.78790  Biso   1.000  H
  O45      1.0000 0.87980  0.06860  0.95700  Biso   1.000  O
  C35      1.0000 0.75200  0.07080  0.87400  Biso   1.000  C
  H24      1.0000 0.71000  0.04140  0.83420  Biso   1.000  H
  O46      1.0000 0.77110  0.11360  0.67700  Biso   1.000  O
  C36      1.0000 0.73720  0.11130  0.08100  Biso   1.000  C
  O47      1.0000 0.74550  0.17960  0.06100  Biso   1.000  O
  O48      1.0000 0.71420  0.07780  0.26800  Biso   1.000  O
  O49      1.0000 0.68540  0.24260  0.56600  Biso   1.000  O
  O50      1.0000 0.59280  0.22440  0.76900  Biso   1.000  O
  C37      1.0000 0.62500  0.23840  0.59200  Biso   1.000  C
  C38      1.0000 0.57570  0.24990  0.36800  Biso   1.000  C
  H25      1.0000 0.54780  0.20620  0.33570  Biso   1.000  H
  O51      1.0000 0.62610  0.26390  0.17500  Biso   1.000  O
  C39      1.0000 0.52560  0.31520  0.38500  Biso   1.000  C
  H26      1.0000 0.49450  0.30690  0.52240  Biso   1.000  H
  O52      1.0000 0.56220  0.37360  0.43000  Biso   1.000  O
  C40      1.0000 0.47860  0.31610  0.17700  Biso   1.000  C
  H27      1.0000 0.50880  0.32430  0.03790  Biso   1.000  H
  O53      1.0000 0.43140  0.37980  0.20700  Biso   1.000  O
  C41      1.0000 0.42920  0.25200  0.12400  Biso   1.000  C
  H28      1.0000 0.45860  0.21000  0.08420  Biso   1.000  H
  O54      1.0000 0.38640  0.27110  0.92700  Biso   1.000  O
  C42      1.0000 0.38870  0.23720  0.33100  Biso   1.000  C
  O55      1.0000 0.32040  0.24550  0.31100  Biso   1.000  O
  O56      1.0000 0.42220  0.21420  0.51800  Biso   1.000  O
  O57      1.0000 0.31460  0.75740  0.06600  Biso   1.000  O
  O58      1.0000 0.40720  0.77560  0.26900  Biso   1.000  O
  C43      1.0000 0.37500  0.76160  0.09200  Biso   1.000  C
  C44      1.0000 0.42430  0.75010  0.86800  Biso   1.000  C
  H29      1.0000 0.45220  0.79380  0.83570  Biso   1.000  H
  O59      1.0000 0.37390  0.73610  0.67500  Biso   1.000  O
  C45      1.0000 0.47440  0.68480  0.88500  Biso   1.000  C
  H30      1.0000 0.50550  0.69310  0.02240  Biso   1.000  H
  O60      1.0000 0.43780  0.62640  0.93000  Biso   1.000  O
  C46      1.0000 0.52140  0.68390  0.67700  Biso   1.000  C
  H31      1.0000 0.49120  0.67570  0.53790  Biso   1.000  H
  O61      1.0000 0.56860  0.62020  0.70700  Biso   1.000  O
  C47      1.0000 0.57080  0.74800  0.62400  Biso   1.000  C
  H32      1.0000 0.54140  0.79000  0.58420  Biso   1.000  H
  O62      1.0000 0.61360  0.72890  0.42700  Biso   1.000  O
  C48      1.0000 0.61130  0.76280  0.83100  Biso   1.000  C
  O63      1.0000 0.67960  0.75450  0.81100  Biso   1.000  O
  O64      1.0000 0.57780  0.78580  0.01800  Biso   1.000  O
  Co1      1.0000 0.27032  0.72968  0.75000  Biso   1.000  Co
  Co2      1.0000 0.72968  0.27032  0.25000  Biso   1.000  Co
  Co3      1.0000 0.77032  0.77032  0.00000  Biso   1.000  Co
  Co4      1.0000 0.22968  0.22968  0.50000  Biso   1.000  Co
  Co5      1.0000 0.27992  0.27992  0.00000  Biso   1.000  Co
  Co6      1.0000 0.72008  0.72008  0.50000  Biso   1.000  Co
  Co7      1.0000 0.22008  0.77992  0.25000  Biso   1.000  Co
  Co8      1.0000 0.77992  0.22008  0.75000  Biso   1.000  Co
