data_image0
_cell_length_a       8.521
_cell_length_b       15.38
_cell_length_c       18.477
_cell_angle_alpha    90
_cell_angle_beta     90
_cell_angle_gamma    90

_symmetry_space_group_name_H-M    P 1
_symmetry_int_tables_number       1

loop_
  _symmetry_equiv_pos_as_xyz
  'x, y, z'

loop_
  _atom_site_label
  _atom_site_occupancy
  _atom_site_fract_x
  _atom_site_fract_y
  _atom_site_fract_z
  _atom_site_thermal_displace_type
  _atom_site_B_iso_or_equiv
  _atom_site_type_symbol
  La1      1.0000 0.65604  0.71554  0.38324  Biso   1.000  La
  La2      1.0000 0.84396  0.21554  0.61676  Biso   1.000  La
  La3      1.0000 0.34396  0.28446  0.88324  Biso   1.000  La
  La4      1.0000 0.15604  0.78446  0.11676  Biso   1.000  La
  La5      1.0000 0.34396  0.28446  0.61676  Biso   1.000  La
  La6      1.0000 0.15604  0.78446  0.38324  Biso   1.000  La
  La7      1.0000 0.65604  0.71554  0.11676  Biso   1.000  La
  La8      1.0000 0.84396  0.21554  0.88324  Biso   1.000  La
  H1       1.0000 0.47960  0.98100  0.58630  Biso   1.000  H
  H2       1.0000 0.03330  0.95100  0.54420  Biso   1.000  H
  H3       1.0000 0.81140  0.56530  0.31200  Biso   1.000  H
  H4       1.0000 0.71920  0.52650  0.36520  Biso   1.000  H
  H5       1.0000 0.02040  0.48100  0.41370  Biso   1.000  H
  H6       1.0000 0.46670  0.45100  0.45580  Biso   1.000  H
  H7       1.0000 0.68860  0.06530  0.68800  Biso   1.000  H
  H8       1.0000 0.78080  0.02650  0.63480  Biso   1.000  H
  H9       1.0000 0.52040  0.01900  0.08630  Biso   1.000  H
  H10      1.0000 0.96670  0.04900  0.04420  Biso   1.000  H
  H11      1.0000 0.18860  0.43470  0.81200  Biso   1.000  H
  H12      1.0000 0.28080  0.47350  0.86520  Biso   1.000  H
  H13      1.0000 0.97960  0.51900  0.91370  Biso   1.000  H
  H14      1.0000 0.53330  0.54900  0.95580  Biso   1.000  H
  H15      1.0000 0.31140  0.93470  0.18800  Biso   1.000  H
  H16      1.0000 0.21920  0.97350  0.13480  Biso   1.000  H
  H17      1.0000 0.52040  0.01900  0.41370  Biso   1.000  H
  H18      1.0000 0.96670  0.04900  0.45580  Biso   1.000  H
  H19      1.0000 0.18860  0.43470  0.68800  Biso   1.000  H
  H20      1.0000 0.28080  0.47350  0.63480  Biso   1.000  H
  H21      1.0000 0.97960  0.51900  0.58630  Biso   1.000  H
  H22      1.0000 0.53330  0.54900  0.54420  Biso   1.000  H
  H23      1.0000 0.31140  0.93470  0.31200  Biso   1.000  H
  H24      1.0000 0.21920  0.97350  0.36520  Biso   1.000  H
  H25      1.0000 0.47960  0.98100  0.91370  Biso   1.000  H
  H26      1.0000 0.03330  0.95100  0.95580  Biso   1.000  H
  H27      1.0000 0.81140  0.56530  0.18800  Biso   1.000  H
  H28      1.0000 0.71920  0.52650  0.13480  Biso   1.000  H
  H29      1.0000 0.02040  0.48100  0.08630  Biso   1.000  H
  H30      1.0000 0.46670  0.45100  0.04420  Biso   1.000  H
  H31      1.0000 0.68860  0.06530  0.81200  Biso   1.000  H
  H32      1.0000 0.78080  0.02650  0.86520  Biso   1.000  H
  C1       1.0000 0.46910  0.82190  0.49650  Biso   1.000  C
  C2       1.0000 0.35910  0.88500  0.52810  Biso   1.000  C
  C3       1.0000 0.38330  0.95970  0.56900  Biso   1.000  C
  C4       1.0000 0.23730  0.99600  0.57890  Biso   1.000  C
  C5       1.0000 0.18590  0.07860  0.61220  Biso   1.000  C
  C6       1.0000 0.03090  0.32190  0.50350  Biso   1.000  C
  C7       1.0000 0.14090  0.38500  0.47190  Biso   1.000  C
  C8       1.0000 0.11670  0.45970  0.43100  Biso   1.000  C
  C9       1.0000 0.26270  0.49600  0.42110  Biso   1.000  C
  C10      1.0000 0.31410  0.57860  0.38780  Biso   1.000  C
  C11      1.0000 0.53090  0.17810  0.99650  Biso   1.000  C
  C12      1.0000 0.64090  0.11500  0.02810  Biso   1.000  C
  C13      1.0000 0.61670  0.04030  0.06900  Biso   1.000  C
  C14      1.0000 0.76270  0.00400  0.07890  Biso   1.000  C
  C15      1.0000 0.81410  0.92140  0.11220  Biso   1.000  C
  C16      1.0000 0.96910  0.67810  0.00350  Biso   1.000  C
  C17      1.0000 0.85910  0.61500  0.97190  Biso   1.000  C
  C18      1.0000 0.88330  0.54030  0.93100  Biso   1.000  C
  C19      1.0000 0.73730  0.50400  0.92110  Biso   1.000  C
  C20      1.0000 0.68590  0.42140  0.88780  Biso   1.000  C
  C21      1.0000 0.53090  0.17810  0.50350  Biso   1.000  C
  C22      1.0000 0.64090  0.11500  0.47190  Biso   1.000  C
  C23      1.0000 0.61670  0.04030  0.43100  Biso   1.000  C
  C24      1.0000 0.76270  0.00400  0.42110  Biso   1.000  C
  C25      1.0000 0.81410  0.92140  0.38780  Biso   1.000  C
  C26      1.0000 0.96910  0.67810  0.49650  Biso   1.000  C
  C27      1.0000 0.85910  0.61500  0.52810  Biso   1.000  C
  C28      1.0000 0.88330  0.54030  0.56900  Biso   1.000  C
  C29      1.0000 0.73730  0.50400  0.57890  Biso   1.000  C
  C30      1.0000 0.68590  0.42140  0.61220  Biso   1.000  C
  C31      1.0000 0.46910  0.82190  0.00350  Biso   1.000  C
  C32      1.0000 0.35910  0.88500  0.97190  Biso   1.000  C
  C33      1.0000 0.38330  0.95970  0.93100  Biso   1.000  C
  C34      1.0000 0.23730  0.99600  0.92110  Biso   1.000  C
  C35      1.0000 0.18590  0.07860  0.88780  Biso   1.000  C
  C36      1.0000 0.03090  0.32190  0.99650  Biso   1.000  C
  C37      1.0000 0.14090  0.38500  0.02810  Biso   1.000  C
  C38      1.0000 0.11670  0.45970  0.06900  Biso   1.000  C
  C39      1.0000 0.26270  0.49600  0.07890  Biso   1.000  C
  C40      1.0000 0.31410  0.57860  0.11220  Biso   1.000  C
  C41      1.0000 0.46970  0.75090  0.25000  Biso   1.000  C
  C42      1.0000 0.03030  0.25090  0.75000  Biso   1.000  C
  C43      1.0000 0.53030  0.24910  0.75000  Biso   1.000  C
  C44      1.0000 0.96970  0.74910  0.25000  Biso   1.000  C
  N1       1.0000 0.13420  0.94230  0.54510  Biso   1.000  N
  N2       1.0000 0.20430  0.87500  0.51360  Biso   1.000  N
  N3       1.0000 0.36580  0.44230  0.45490  Biso   1.000  N
  N4       1.0000 0.29570  0.37500  0.48640  Biso   1.000  N
  N5       1.0000 0.86580  0.05770  0.04510  Biso   1.000  N
  N6       1.0000 0.79570  0.12500  0.01360  Biso   1.000  N
  N7       1.0000 0.63420  0.55770  0.95490  Biso   1.000  N
  N8       1.0000 0.70430  0.62500  0.98640  Biso   1.000  N
  N9       1.0000 0.86580  0.05770  0.45490  Biso   1.000  N
  N10      1.0000 0.79570  0.12500  0.48640  Biso   1.000  N
  N11      1.0000 0.63420  0.55770  0.54510  Biso   1.000  N
  N12      1.0000 0.70430  0.62500  0.51360  Biso   1.000  N
  N13      1.0000 0.13420  0.94230  0.95490  Biso   1.000  N
  N14      1.0000 0.20430  0.87500  0.98640  Biso   1.000  N
  N15      1.0000 0.36580  0.44230  0.04510  Biso   1.000  N
  N16      1.0000 0.29570  0.37500  0.01360  Biso   1.000  N
  O1       1.0000 0.61030  0.82460  0.50990  Biso   1.000  O
  O2       1.0000 0.41100  0.76590  0.45420  Biso   1.000  O
  O3       1.0000 0.04280  0.09410  0.60910  Biso   1.000  O
  O4       1.0000 0.29000  0.12530  0.63870  Biso   1.000  O
  O5       1.0000 0.41330  0.77350  0.31080  Biso   1.000  O
  O6       1.0000 0.78000  0.56880  0.35550  Biso   1.000  O
  O7       1.0000 0.88970  0.32460  0.49010  Biso   1.000  O
  O8       1.0000 0.08900  0.26590  0.54580  Biso   1.000  O
  O9       1.0000 0.45720  0.59410  0.39090  Biso   1.000  O
  O10      1.0000 0.21000  0.62530  0.36130  Biso   1.000  O
  O11      1.0000 0.08670  0.27350  0.68920  Biso   1.000  O
  O12      1.0000 0.72000  0.06880  0.64450  Biso   1.000  O
  O13      1.0000 0.38970  0.17540  0.00990  Biso   1.000  O
  O14      1.0000 0.58900  0.23410  0.95420  Biso   1.000  O
  O15      1.0000 0.95720  0.90590  0.10910  Biso   1.000  O
  O16      1.0000 0.71000  0.87470  0.13870  Biso   1.000  O
  O17      1.0000 0.58670  0.22650  0.81080  Biso   1.000  O
  O18      1.0000 0.22000  0.43120  0.85550  Biso   1.000  O
  O19      1.0000 0.11030  0.67540  0.99010  Biso   1.000  O
  O20      1.0000 0.91100  0.73410  0.04580  Biso   1.000  O
  O21      1.0000 0.54280  0.40590  0.89090  Biso   1.000  O
  O22      1.0000 0.79000  0.37470  0.86130  Biso   1.000  O
  O23      1.0000 0.91330  0.72650  0.18920  Biso   1.000  O
  O24      1.0000 0.28000  0.93120  0.14450  Biso   1.000  O
  O25      1.0000 0.38970  0.17540  0.49010  Biso   1.000  O
  O26      1.0000 0.58900  0.23410  0.54580  Biso   1.000  O
  O27      1.0000 0.95720  0.90590  0.39090  Biso   1.000  O
  O28      1.0000 0.71000  0.87470  0.36130  Biso   1.000  O
  O29      1.0000 0.58670  0.22650  0.68920  Biso   1.000  O
  O30      1.0000 0.22000  0.43120  0.64450  Biso   1.000  O
  O31      1.0000 0.11030  0.67540  0.50990  Biso   1.000  O
  O32      1.0000 0.91100  0.73410  0.45420  Biso   1.000  O
  O33      1.0000 0.54280  0.40590  0.60910  Biso   1.000  O
  O34      1.0000 0.79000  0.37470  0.63870  Biso   1.000  O
  O35      1.0000 0.91330  0.72650  0.31080  Biso   1.000  O
  O36      1.0000 0.28000  0.93120  0.35550  Biso   1.000  O
  O37      1.0000 0.61030  0.82460  0.99010  Biso   1.000  O
  O38      1.0000 0.41100  0.76590  0.04580  Biso   1.000  O
  O39      1.0000 0.04280  0.09410  0.89090  Biso   1.000  O
  O40      1.0000 0.29000  0.12530  0.86130  Biso   1.000  O
  O41      1.0000 0.41330  0.77350  0.18920  Biso   1.000  O
  O42      1.0000 0.78000  0.56880  0.14450  Biso   1.000  O
  O43      1.0000 0.88970  0.32460  0.00990  Biso   1.000  O
  O44      1.0000 0.08900  0.26590  0.95420  Biso   1.000  O
  O45      1.0000 0.45720  0.59410  0.10910  Biso   1.000  O
  O46      1.0000 0.21000  0.62530  0.13870  Biso   1.000  O
  O47      1.0000 0.08670  0.27350  0.81080  Biso   1.000  O
  O48      1.0000 0.72000  0.06880  0.85550  Biso   1.000  O
  O49      1.0000 0.59640  0.70570  0.25000  Biso   1.000  O
  O50      1.0000 0.90360  0.20570  0.75000  Biso   1.000  O
  O51      1.0000 0.40360  0.29430  0.75000  Biso   1.000  O
  O52      1.0000 0.09640  0.79430  0.25000  Biso   1.000  O
