data_image0
_cell_length_a       8.1933
_cell_length_b       8.8646
_cell_length_c       12.2028
_cell_angle_alpha    110.057
_cell_angle_beta     92.897
_cell_angle_gamma    105.741

_symmetry_space_group_name_H-M    P 1
_symmetry_int_tables_number       1

loop_
  _symmetry_equiv_pos_as_xyz
  'x, y, z'

loop_
  _atom_site_label
  _atom_site_occupancy
  _atom_site_fract_x
  _atom_site_fract_y
  _atom_site_fract_z
  _atom_site_thermal_displace_type
  _atom_site_B_iso_or_equiv
  _atom_site_type_symbol
  Ni1      1.0000 0.02606  0.05655  0.17948  Biso   1.000  Ni
  Ni2      1.0000 0.97394  0.94345  0.82052  Biso   1.000  Ni
  Ni3      1.0000 0.50000  0.50000  0.50000  Biso   1.000  Ni
  H1       1.0000 0.25160  0.35270  0.26370  Biso   1.000  H
  H2       1.0000 0.19080  0.32820  0.14330  Biso   1.000  H
  H3       1.0000 0.78990  0.78220  0.08410  Biso   1.000  H
  H4       1.0000 0.80530  0.81780  0.20990  Biso   1.000  H
  H5       1.0000 0.03270  0.78160  0.54950  Biso   1.000  H
  H6       1.0000 0.19850  0.62450  0.45190  Biso   1.000  H
  H7       1.0000 0.43150  0.66930  0.75350  Biso   1.000  H
  H8       1.0000 0.37570  0.86920  0.30370  Biso   1.000  H
  H9       1.0000 0.74840  0.64730  0.73630  Biso   1.000  H
  H10      1.0000 0.80920  0.67180  0.85670  Biso   1.000  H
  H11      1.0000 0.21010  0.21780  0.91590  Biso   1.000  H
  H12      1.0000 0.19470  0.18220  0.79010  Biso   1.000  H
  H13      1.0000 0.96730  0.21840  0.45050  Biso   1.000  H
  H14      1.0000 0.80150  0.37550  0.54810  Biso   1.000  H
  H15      1.0000 0.56850  0.33070  0.24650  Biso   1.000  H
  H16      1.0000 0.62430  0.13080  0.69630  Biso   1.000  H
  C1       1.0000 0.24740  0.83670  0.89680  Biso   1.000  C
  C2       1.0000 0.24460  0.77870  0.76860  Biso   1.000  C
  C3       1.0000 0.11250  0.75820  0.59290  Biso   1.000  C
  C4       1.0000 0.21400  0.66470  0.53400  Biso   1.000  C
  C5       1.0000 0.34880  0.68940  0.71010  Biso   1.000  C
  C6       1.0000 0.27370  0.13340  0.39420  Biso   1.000  C
  C7       1.0000 0.39190  0.06780  0.45170  Biso   1.000  C
  C8       1.0000 0.46770  0.14750  0.57120  Biso   1.000  C
  C9       1.0000 0.45160  0.31270  0.65280  Biso   1.000  C
  C10      1.0000 0.42570  0.92190  0.38280  Biso   1.000  C
  C11      1.0000 0.75260  0.16330  0.10320  Biso   1.000  C
  C12      1.0000 0.75540  0.22130  0.23140  Biso   1.000  C
  C13      1.0000 0.88750  0.24180  0.40710  Biso   1.000  C
  C14      1.0000 0.78600  0.33530  0.46600  Biso   1.000  C
  C15      1.0000 0.65120  0.31060  0.28990  Biso   1.000  C
  C16      1.0000 0.72630  0.86660  0.60580  Biso   1.000  C
  C17      1.0000 0.60810  0.93220  0.54830  Biso   1.000  C
  C18      1.0000 0.53230  0.85250  0.42880  Biso   1.000  C
  C19      1.0000 0.54840  0.68730  0.34720  Biso   1.000  C
  C20      1.0000 0.57430  0.07810  0.61720  Biso   1.000  C
  N1       1.0000 0.13590  0.91410  0.94404  Biso   1.000  N
  N2       1.0000 0.16610  0.94340  0.05926  Biso   1.000  N
  N3       1.0000 0.29170  0.88590  0.08020  Biso   1.000  N
  N4       1.0000 0.34500  0.81710  0.97770  Biso   1.000  N
  N5       1.0000 0.12660  0.81530  0.71027  Biso   1.000  N
  N6       1.0000 0.33320  0.63110  0.59203  Biso   1.000  N
  N7       1.0000 0.86410  0.08590  0.05596  Biso   1.000  N
  N8       1.0000 0.83390  0.05660  0.94074  Biso   1.000  N
  N9       1.0000 0.70830  0.11410  0.91980  Biso   1.000  N
  N10      1.0000 0.65500  0.18290  0.02230  Biso   1.000  N
  N11      1.0000 0.87340  0.18470  0.28973  Biso   1.000  N
  N12      1.0000 0.66680  0.36890  0.40797  Biso   1.000  N
  O1       1.0000 0.15670  0.02380  0.31250  Biso   1.000  O
  O2       1.0000 0.29420  0.28900  0.42789  Biso   1.000  O
  O3       1.0000 0.54670  0.44480  0.64332  Biso   1.000  O
  O4       1.0000 0.35800  0.31370  0.72700  Biso   1.000  O
  O5       1.0000 0.18610  0.28990  0.19847  Biso   1.000  O
  O6       1.0000 0.85370  0.82400  0.15100  Biso   1.000  O
  O7       1.0000 0.84330  0.97620  0.68750  Biso   1.000  O
  O8       1.0000 0.70580  0.71100  0.57211  Biso   1.000  O
  O9       1.0000 0.45330  0.55520  0.35668  Biso   1.000  O
  O10      1.0000 0.64200  0.68630  0.27300  Biso   1.000  O
  O11      1.0000 0.81390  0.71010  0.80153  Biso   1.000  O
  O12      1.0000 0.14630  0.17600  0.84900  Biso   1.000  O
