data_image0
_cell_length_a       10.592
_cell_length_b       13.12
_cell_length_c       22.306
_cell_angle_alpha    90
_cell_angle_beta     90
_cell_angle_gamma    100.813

_symmetry_space_group_name_H-M    P 1
_symmetry_int_tables_number       1

loop_
  _symmetry_equiv_pos_as_xyz
  'x, y, z'

loop_
  _atom_site_label
  _atom_site_occupancy
  _atom_site_fract_x
  _atom_site_fract_y
  _atom_site_fract_z
  _atom_site_thermal_displace_type
  _atom_site_B_iso_or_equiv
  _atom_site_type_symbol
  Zn1      1.0000 0.77725  0.48448  0.13841  Biso   1.000  Zn
  Zn2      1.0000 0.30466  0.98770  0.07078  Biso   1.000  Zn
  Zn3      1.0000 0.22275  0.51552  0.63841  Biso   1.000  Zn
  Zn4      1.0000 0.69534  0.01230  0.57078  Biso   1.000  Zn
  H1       1.0000 0.47600  0.70580  0.24080  Biso   1.000  H
  H2       1.0000 0.35830  0.49150  0.36300  Biso   1.000  H
  H3       1.0000 0.20810  0.52060  0.43050  Biso   1.000  H
  H4       1.0000 0.08010  0.61850  0.47370  Biso   1.000  H
  H5       1.0000 0.97720  0.77220  0.47230  Biso   1.000  H
  H6       1.0000 0.10110  0.99240  0.34930  Biso   1.000  H
  H7       1.0000 0.61560  0.62320  0.20800  Biso   1.000  H
  H8       1.0000 0.46580  0.37810  0.31180  Biso   1.000  H
  H9       1.0000 0.63250  0.33200  0.25050  Biso   1.000  H
  H10      1.0000 0.88040  0.89400  0.51430  Biso   1.000  H
  H11      1.0000 0.92140  0.05980  0.37110  Biso   1.000  H
  H12      1.0000 0.76750  0.12340  0.43800  Biso   1.000  H
  H13      1.0000 0.47870  0.16070  0.93780  Biso   1.000  H
  H14      1.0000 0.39720  0.43490  0.97640  Biso   1.000  H
  H15      1.0000 0.24000  0.50960  0.91200  Biso   1.000  H
  H16      1.0000 0.09460  0.48430  0.83610  Biso   1.000  H
  H17      1.0000 0.99160  0.38170  0.74970  Biso   1.000  H
  H18      1.0000 0.06980  0.10330  0.72030  Biso   1.000  H
  H19      1.0000 0.59670  0.46840  0.02460  Biso   1.000  H
  H20      1.0000 0.54250  0.15960  0.04000  Biso   1.000  H
  H21      1.0000 0.68800  0.23870  0.12010  Biso   1.000  H
  H22      1.0000 0.86610  0.06580  0.68470  Biso   1.000  H
  H23      1.0000 0.93770  0.36010  0.63830  Biso   1.000  H
  H24      1.0000 0.78430  0.27130  0.56840  Biso   1.000  H
  H25      1.0000 0.29370  0.25970  0.20520  Biso   1.000  H
  H26      1.0000 0.29630  0.32940  0.09120  Biso   1.000  H
  H27      1.0000 0.38040  0.37600  0.14660  Biso   1.000  H
  H28      1.0000 0.24230  0.48130  0.16430  Biso   1.000  H
  H29      1.0000 0.15560  0.43160  0.11070  Biso   1.000  H
  H30      1.0000 0.05640  0.37330  0.27830  Biso   1.000  H
  H31      1.0000 0.17250  0.45960  0.25890  Biso   1.000  H
  H32      1.0000 0.19230  0.34520  0.26810  Biso   1.000  H
  H33      1.0000 0.99950  0.11220  0.20930  Biso   1.000  H
  H34      1.0000 0.00280  0.20350  0.25490  Biso   1.000  H
  H35      1.0000 0.12220  0.14950  0.24860  Biso   1.000  H
  H36      1.0000 0.94330  0.20960  0.13160  Biso   1.000  H
  H37      1.0000 0.04160  0.13670  0.11880  Biso   1.000  H
  H38      1.0000 0.06330  0.24830  0.09090  Biso   1.000  H
  H39      1.0000 0.85470  0.81660  0.09000  Biso   1.000  H
  H40      1.0000 0.83230  0.76300  0.97220  Biso   1.000  H
  H41      1.0000 0.91310  0.86520  0.00030  Biso   1.000  H
  H42      1.0000 0.75760  0.94340  0.95800  Biso   1.000  H
  H43      1.0000 0.65650  0.83870  0.95610  Biso   1.000  H
  H44      1.0000 0.71180  0.06310  0.05850  Biso   1.000  H
  H45      1.0000 0.82350  0.01480  0.03100  Biso   1.000  H
  H46      1.0000 0.78260  0.99240  0.09800  Biso   1.000  H
  H47      1.0000 0.68260  0.90870  0.15550  Biso   1.000  H
  H48      1.0000 0.68640  0.79240  0.16990  Biso   1.000  H
  H49      1.0000 0.55480  0.82610  0.15660  Biso   1.000  H
  H50      1.0000 0.57420  0.66430  0.06530  Biso   1.000  H
  H51      1.0000 0.50990  0.74030  0.02660  Biso   1.000  H
  H52      1.0000 0.48440  0.73140  0.09580  Biso   1.000  H
  H53      1.0000 0.52400  0.29420  0.74080  Biso   1.000  H
  H54      1.0000 0.64170  0.50850  0.86300  Biso   1.000  H
  H55      1.0000 0.79190  0.47940  0.93050  Biso   1.000  H
  H56      1.0000 0.91990  0.38150  0.97370  Biso   1.000  H
  H57      1.0000 0.02280  0.22780  0.97230  Biso   1.000  H
  H58      1.0000 0.89890  0.00760  0.84930  Biso   1.000  H
  H59      1.0000 0.38440  0.37680  0.70800  Biso   1.000  H
  H60      1.0000 0.53420  0.62190  0.81180  Biso   1.000  H
  H61      1.0000 0.36750  0.66800  0.75050  Biso   1.000  H
  H62      1.0000 0.11960  0.10600  0.01430  Biso   1.000  H
  H63      1.0000 0.07860  0.94020  0.87110  Biso   1.000  H
  H64      1.0000 0.23250  0.87660  0.93800  Biso   1.000  H
  H65      1.0000 0.52130  0.83930  0.43780  Biso   1.000  H
  H66      1.0000 0.60280  0.56510  0.47640  Biso   1.000  H
  H67      1.0000 0.76000  0.49040  0.41200  Biso   1.000  H
  H68      1.0000 0.90540  0.51570  0.33610  Biso   1.000  H
  H69      1.0000 0.00840  0.61830  0.24970  Biso   1.000  H
  H70      1.0000 0.93020  0.89670  0.22030  Biso   1.000  H
  H71      1.0000 0.40330  0.53160  0.52460  Biso   1.000  H
  H72      1.0000 0.45750  0.84040  0.54000  Biso   1.000  H
  H73      1.0000 0.31200  0.76130  0.62010  Biso   1.000  H
  H74      1.0000 0.13390  0.93420  0.18470  Biso   1.000  H
  H75      1.0000 0.06230  0.63990  0.13830  Biso   1.000  H
  H76      1.0000 0.21570  0.72870  0.06840  Biso   1.000  H
  H77      1.0000 0.70630  0.74030  0.70520  Biso   1.000  H
  H78      1.0000 0.70370  0.67060  0.59120  Biso   1.000  H
  H79      1.0000 0.61960  0.62400  0.64660  Biso   1.000  H
  H80      1.0000 0.75770  0.51870  0.66430  Biso   1.000  H
  H81      1.0000 0.84440  0.56840  0.61070  Biso   1.000  H
  H82      1.0000 0.94360  0.62670  0.77830  Biso   1.000  H
  H83      1.0000 0.82750  0.54040  0.75890  Biso   1.000  H
  H84      1.0000 0.80770  0.65480  0.76810  Biso   1.000  H
  H85      1.0000 0.00050  0.88780  0.70930  Biso   1.000  H
  H86      1.0000 0.99720  0.79650  0.75490  Biso   1.000  H
  H87      1.0000 0.87780  0.85050  0.74860  Biso   1.000  H
  H88      1.0000 0.05670  0.79040  0.63160  Biso   1.000  H
  H89      1.0000 0.95840  0.86330  0.61880  Biso   1.000  H
  H90      1.0000 0.93670  0.75170  0.59090  Biso   1.000  H
  H91      1.0000 0.14530  0.18340  0.59000  Biso   1.000  H
  H92      1.0000 0.16770  0.23700  0.47220  Biso   1.000  H
  H93      1.0000 0.08690  0.13480  0.50030  Biso   1.000  H
  H94      1.0000 0.24240  0.05660  0.45800  Biso   1.000  H
  H95      1.0000 0.34350  0.16130  0.45610  Biso   1.000  H
  H96      1.0000 0.28820  0.93690  0.55850  Biso   1.000  H
  H97      1.0000 0.17650  0.98520  0.53100  Biso   1.000  H
  H98      1.0000 0.21740  0.00760  0.59800  Biso   1.000  H
  H99      1.0000 0.31740  0.09130  0.65550  Biso   1.000  H
  H100     1.0000 0.31360  0.20760  0.66990  Biso   1.000  H
  H101     1.0000 0.44520  0.17390  0.65660  Biso   1.000  H
  H102     1.0000 0.42580  0.33570  0.56530  Biso   1.000  H
  H103     1.0000 0.49010  0.25970  0.52660  Biso   1.000  H
  H104     1.0000 0.51560  0.26860  0.59580  Biso   1.000  H
  C1       1.0000 0.42530  0.68450  0.27420  Biso   1.000  C
  C2       1.0000 0.43290  0.58920  0.29880  Biso   1.000  C
  C3       1.0000 0.35660  0.55620  0.34630  Biso   1.000  C
  C4       1.0000 0.27910  0.61520  0.36960  Biso   1.000  C
  C5       1.0000 0.20640  0.58550  0.41420  Biso   1.000  C
  C6       1.0000 0.12600  0.64360  0.43960  Biso   1.000  C
  C7       1.0000 0.11000  0.74150  0.41550  Biso   1.000  C
  C8       1.0000 0.02810  0.79630  0.43940  Biso   1.000  C
  C9       1.0000 0.02270  0.89120  0.41270  Biso   1.000  C
  C10      1.0000 0.10530  0.92820  0.36610  Biso   1.000  C
  C11      1.0000 0.18960  0.77330  0.37030  Biso   1.000  C
  C12      1.0000 0.27420  0.70790  0.34470  Biso   1.000  C
  C13      1.0000 0.60130  0.55800  0.22590  Biso   1.000  C
  C14      1.0000 0.51710  0.42100  0.28470  Biso   1.000  C
  C15      1.0000 0.60760  0.39630  0.24970  Biso   1.000  C
  C16      1.0000 0.87080  0.94460  0.48640  Biso   1.000  C
  C17      1.0000 0.89590  0.03280  0.40870  Biso   1.000  C
  C18      1.0000 0.80860  0.06810  0.44560  Biso   1.000  C
  C19      1.0000 0.43190  0.21210  0.92900  Biso   1.000  C
  C20      1.0000 0.44520  0.30140  0.96440  Biso   1.000  C
  C21      1.0000 0.38380  0.37610  0.95220  Biso   1.000  C
  C22      1.0000 0.29950  0.37060  0.90470  Biso   1.000  C
  C23      1.0000 0.22820  0.44820  0.89010  Biso   1.000  C
  C24      1.0000 0.14250  0.43330  0.84410  Biso   1.000  C
  C25      1.0000 0.12370  0.34400  0.80850  Biso   1.000  C
  C26      1.0000 0.03600  0.32950  0.76010  Biso   1.000  C
  C27      1.0000 0.01690  0.23960  0.72910  Biso   1.000  C
  C28      1.0000 0.08440  0.16380  0.74300  Biso   1.000  C
  C29      1.0000 0.18680  0.26710  0.82070  Biso   1.000  C
  C30      1.0000 0.28090  0.27830  0.87090  Biso   1.000  C
  C31      1.0000 0.60420  0.40210  0.03700  Biso   1.000  C
  C32      1.0000 0.57220  0.23020  0.04590  Biso   1.000  C
  C33      1.0000 0.65350  0.27390  0.08980  Biso   1.000  C
  C34      1.0000 0.86530  0.12710  0.66400  Biso   1.000  C
  C35      1.0000 0.90450  0.28930  0.63890  Biso   1.000  C
  C36      1.0000 0.82060  0.24080  0.60010  Biso   1.000  C
  C37      1.0000 0.96430  0.39030  0.18060  Biso   1.000  C
  C38      1.0000 0.10100  0.36470  0.19010  Biso   1.000  C
  C39      1.0000 0.10760  0.24890  0.17880  Biso   1.000  C
  C40      1.0000 0.24910  0.25330  0.16650  Biso   1.000  C
  C41      1.0000 0.29450  0.34420  0.13370  Biso   1.000  C
  C42      1.0000 0.19730  0.41630  0.14740  Biso   1.000  C
  C43      1.0000 0.13350  0.38800  0.25460  Biso   1.000  C
  C44      1.0000 0.05300  0.17140  0.22740  Biso   1.000  C
  C45      1.0000 0.03230  0.20720  0.12530  Biso   1.000  C
  C46      1.0000 0.53210  0.93920  0.03440  Biso   1.000  C
  C47      1.0000 0.65960  0.91240  0.03970  Biso   1.000  C
  C48      1.0000 0.66160  0.81560  0.07580  Biso   1.000  C
  C49      1.0000 0.79050  0.77950  0.06220  Biso   1.000  C
  C50      1.0000 0.82950  0.81990  0.99970  Biso   1.000  C
  C51      1.0000 0.72080  0.88190  0.98070  Biso   1.000  C
  C52      1.0000 0.75230  0.00350  0.05840  Biso   1.000  C
  C53      1.0000 0.64460  0.83800  0.14670  Biso   1.000  C
  C54      1.0000 0.54710  0.73010  0.06490  Biso   1.000  C
  C55      1.0000 0.78600  0.66790  0.07190  Biso   1.000  C
  C56      1.0000 0.27850  0.15270  0.13450  Biso   1.000  C
  C57      1.0000 0.57470  0.31550  0.77420  Biso   1.000  C
  C58      1.0000 0.56710  0.41080  0.79880  Biso   1.000  C
  C59      1.0000 0.64340  0.44380  0.84630  Biso   1.000  C
  C60      1.0000 0.72090  0.38480  0.86960  Biso   1.000  C
  C61      1.0000 0.79360  0.41450  0.91420  Biso   1.000  C
  C62      1.0000 0.87400  0.35640  0.93960  Biso   1.000  C
  C63      1.0000 0.89000  0.25850  0.91550  Biso   1.000  C
  C64      1.0000 0.97190  0.20370  0.93940  Biso   1.000  C
  C65      1.0000 0.97730  0.10880  0.91270  Biso   1.000  C
  C66      1.0000 0.89470  0.07180  0.86610  Biso   1.000  C
  C67      1.0000 0.81040  0.22670  0.87030  Biso   1.000  C
  C68      1.0000 0.72580  0.29210  0.84470  Biso   1.000  C
  C69      1.0000 0.39870  0.44200  0.72590  Biso   1.000  C
  C70      1.0000 0.48290  0.57900  0.78470  Biso   1.000  C
  C71      1.0000 0.39240  0.60370  0.74970  Biso   1.000  C
  C72      1.0000 0.12920  0.05540  0.98640  Biso   1.000  C
  C73      1.0000 0.10410  0.96720  0.90870  Biso   1.000  C
  C74      1.0000 0.19140  0.93190  0.94560  Biso   1.000  C
  C75      1.0000 0.56810  0.78790  0.42900  Biso   1.000  C
  C76      1.0000 0.55480  0.69860  0.46440  Biso   1.000  C
  C77      1.0000 0.61620  0.62390  0.45220  Biso   1.000  C
  C78      1.0000 0.70050  0.62940  0.40470  Biso   1.000  C
  C79      1.0000 0.77180  0.55180  0.39010  Biso   1.000  C
  C80      1.0000 0.85750  0.56670  0.34410  Biso   1.000  C
  C81      1.0000 0.87630  0.65600  0.30850  Biso   1.000  C
  C82      1.0000 0.96400  0.67050  0.26010  Biso   1.000  C
  C83      1.0000 0.98310  0.76040  0.22910  Biso   1.000  C
  C84      1.0000 0.91560  0.83620  0.24300  Biso   1.000  C
  C85      1.0000 0.81320  0.73290  0.32070  Biso   1.000  C
  C86      1.0000 0.71910  0.72170  0.37090  Biso   1.000  C
  C87      1.0000 0.39580  0.59790  0.53700  Biso   1.000  C
  C88      1.0000 0.42780  0.76980  0.54590  Biso   1.000  C
  C89      1.0000 0.34650  0.72610  0.58980  Biso   1.000  C
  C90      1.0000 0.13470  0.87290  0.16400  Biso   1.000  C
  C91      1.0000 0.09550  0.71070  0.13890  Biso   1.000  C
  C92      1.0000 0.17940  0.75920  0.10010  Biso   1.000  C
  C93      1.0000 0.03570  0.60970  0.68060  Biso   1.000  C
  C94      1.0000 0.89900  0.63530  0.69010  Biso   1.000  C
  C95      1.0000 0.89240  0.75110  0.67880  Biso   1.000  C
  C96      1.0000 0.75090  0.74670  0.66650  Biso   1.000  C
  C97      1.0000 0.70550  0.65580  0.63370  Biso   1.000  C
  C98      1.0000 0.80270  0.58370  0.64740  Biso   1.000  C
  C99      1.0000 0.86650  0.61200  0.75460  Biso   1.000  C
  C100     1.0000 0.94700  0.82860  0.72740  Biso   1.000  C
  C101     1.0000 0.96770  0.79280  0.62530  Biso   1.000  C
  C102     1.0000 0.46790  0.06080  0.53440  Biso   1.000  C
  C103     1.0000 0.34040  0.08760  0.53970  Biso   1.000  C
  C104     1.0000 0.33840  0.18440  0.57580  Biso   1.000  C
  C105     1.0000 0.20950  0.22050  0.56220  Biso   1.000  C
  C106     1.0000 0.17050  0.18010  0.49970  Biso   1.000  C
  C107     1.0000 0.27920  0.11810  0.48070  Biso   1.000  C
  C108     1.0000 0.24770  0.99650  0.55840  Biso   1.000  C
  C109     1.0000 0.35540  0.16200  0.64670  Biso   1.000  C
  C110     1.0000 0.45290  0.26990  0.56490  Biso   1.000  C
  C111     1.0000 0.21400  0.33210  0.57190  Biso   1.000  C
  C112     1.0000 0.72150  0.84730  0.63450  Biso   1.000  C
  N1       1.0000 0.35050  0.74840  0.29480  Biso   1.000  N
  N2       1.0000 0.19380  0.87260  0.34380  Biso   1.000  N
  N3       1.0000 0.51440  0.52390  0.27240  Biso   1.000  N
  N4       1.0000 0.66150  0.47650  0.21180  Biso   1.000  N
  N5       1.0000 0.93820  0.95430  0.43500  Biso   1.000  N
  N6       1.0000 0.79410  0.00580  0.49570  Biso   1.000  N
  N7       1.0000 0.34700  0.20110  0.88010  Biso   1.000  N
  N8       1.0000 0.17300  0.17200  0.78880  Biso   1.000  N
  N9       1.0000 0.54220  0.30910  0.01180  Biso   1.000  N
  N10      1.0000 0.67530  0.37930  0.08140  Biso   1.000  N
  N11      1.0000 0.93610  0.22070  0.68040  Biso   1.000  N
  N12      1.0000 0.79510  0.13270  0.61540  Biso   1.000  N
  N13      1.0000 0.64950  0.25160  0.79480  Biso   1.000  N
  N14      1.0000 0.80620  0.12740  0.84380  Biso   1.000  N
  N15      1.0000 0.48560  0.47610  0.77240  Biso   1.000  N
  N16      1.0000 0.33850  0.52350  0.71180  Biso   1.000  N
  N17      1.0000 0.06180  0.04570  0.93500  Biso   1.000  N
  N18      1.0000 0.20590  0.99420  0.99570  Biso   1.000  N
  N19      1.0000 0.65300  0.79890  0.38010  Biso   1.000  N
  N20      1.0000 0.82700  0.82800  0.28880  Biso   1.000  N
  N21      1.0000 0.45780  0.69090  0.51180  Biso   1.000  N
  N22      1.0000 0.32470  0.62070  0.58140  Biso   1.000  N
  N23      1.0000 0.06390  0.77930  0.18040  Biso   1.000  N
  N24      1.0000 0.20490  0.86730  0.11540  Biso   1.000  N
  O1       1.0000 0.95230  0.46670  0.15220  Biso   1.000  O
  O2       1.0000 0.86880  0.33130  0.20690  Biso   1.000  O
  O3       1.0000 0.27950  0.13320  0.09010  Biso   1.000  O
  O4       1.0000 0.29240  0.09060  0.18410  Biso   1.000  O
  O5       1.0000 0.48350  0.97830  0.07170  Biso   1.000  O
  O6       1.0000 0.46270  0.90520  0.99260  Biso   1.000  O
  O7       1.0000 0.78430  0.60910  0.02980  Biso   1.000  O
  O8       1.0000 0.78090  0.63070  0.12270  Biso   1.000  O
  O9       1.0000 0.04770  0.53330  0.65220  Biso   1.000  O
  O10      1.0000 0.13120  0.66870  0.70690  Biso   1.000  O
  O11      1.0000 0.72050  0.86680  0.59010  Biso   1.000  O
  O12      1.0000 0.70760  0.90940  0.68410  Biso   1.000  O
  O13      1.0000 0.51650  0.02170  0.57170  Biso   1.000  O
  O14      1.0000 0.53730  0.09480  0.49260  Biso   1.000  O
  O15      1.0000 0.21570  0.39090  0.52980  Biso   1.000  O
  O16      1.0000 0.21910  0.36930  0.62270  Biso   1.000  O
