data_image0
_cell_length_a       9.243
_cell_length_b       8.817
_cell_length_c       9.684
_cell_angle_alpha    90
_cell_angle_beta     120.92
_cell_angle_gamma    90

_symmetry_space_group_name_H-M    "P 1"
_symmetry_int_tables_number       1

loop_
  _symmetry_equiv_pos_as_xyz
  'x, y, z'

loop_
  _atom_site_label
  _atom_site_occupancy
  _atom_site_fract_x
  _atom_site_fract_y
  _atom_site_fract_z
  _atom_site_thermal_displace_type
  _atom_site_B_iso_or_equiv
  _atom_site_type_symbol
  P1       1.0000 0.25760  0.89830  0.92650  Biso   1.000  P
  P2       1.0000 0.16740  0.66710  0.52720  Biso   1.000  P
  O1       1.0000 0.13600  0.60100  0.65500  Biso   1.000  O
  O2       1.0000 0.34600  0.74300  0.59000  Biso   1.000  O
  O3       1.0000 0.15200  0.55200  0.39500  Biso   1.000  O
  O4       1.0000 0.35600  0.94200  0.10400  Biso   1.000  O
  O5       1.0000 0.13700  0.76800  0.89500  Biso   1.000  O
  O6       1.0000 0.36900  0.88500  0.86100  Biso   1.000  O
  P3       1.0000 0.74240  0.89830  0.57350  Biso   1.000  P
  P4       1.0000 0.83260  0.66710  0.97280  Biso   1.000  P
  O7       1.0000 0.86400  0.60100  0.84500  Biso   1.000  O
  O8       1.0000 0.65400  0.74300  0.91000  Biso   1.000  O
  O9       1.0000 0.84800  0.55200  0.10500  Biso   1.000  O
  O10      1.0000 0.64400  0.94200  0.39600  Biso   1.000  O
  O11      1.0000 0.86300  0.76800  0.60500  Biso   1.000  O
  O12      1.0000 0.63100  0.88500  0.63900  Biso   1.000  O
  P5       1.0000 0.74240  0.10170  0.07350  Biso   1.000  P
  P6       1.0000 0.83260  0.33290  0.47280  Biso   1.000  P
  O13      1.0000 0.86400  0.39900  0.34500  Biso   1.000  O
  O14      1.0000 0.65400  0.25700  0.41000  Biso   1.000  O
  O15      1.0000 0.84800  0.44800  0.60500  Biso   1.000  O
  O16      1.0000 0.64400  0.05800  0.89600  Biso   1.000  O
  O17      1.0000 0.86300  0.23200  0.10500  Biso   1.000  O
  O18      1.0000 0.63100  0.11500  0.13900  Biso   1.000  O
  P7       1.0000 0.25760  0.10170  0.42650  Biso   1.000  P
  P8       1.0000 0.16740  0.33290  0.02720  Biso   1.000  P
  O19      1.0000 0.13600  0.39900  0.15500  Biso   1.000  O
  O20      1.0000 0.34600  0.25700  0.09000  Biso   1.000  O
  O21      1.0000 0.15200  0.44800  0.89500  Biso   1.000  O
  O22      1.0000 0.35600  0.05800  0.60400  Biso   1.000  O
  O23      1.0000 0.13700  0.23200  0.39500  Biso   1.000  O
  O24      1.0000 0.36900  0.11500  0.36100  Biso   1.000  O
  V1       1.0000 0.00000  0.60730  0.75000  Biso   1.000  V
  V2       1.0000 0.00000  0.39270  0.25000  Biso   1.000  V
  V3       1.0000 0.50000  0.88960  0.75000  Biso   1.000  V
  V4       1.0000 0.50000  0.11040  0.25000  Biso   1.000  V
