data_image0
_cell_length_a       4.3999
_cell_length_b       6.67083
_cell_length_c       10.5587
_cell_angle_alpha    108.415
_cell_angle_beta     91.1869
_cell_angle_gamma    90

_symmetry_space_group_name_H-M    P 1
_symmetry_int_tables_number       1

loop_
  _symmetry_equiv_pos_as_xyz
  'x, y, z'

loop_
  _atom_site_label
  _atom_site_occupancy
  _atom_site_fract_x
  _atom_site_fract_y
  _atom_site_fract_z
  _atom_site_thermal_displace_type
  _atom_site_B_iso_or_equiv
  _atom_site_type_symbol
  Cu1      1.0000 0.50000  0.00000  0.50000  Biso   1.000  Cu
  Cu2      1.0000 0.50000  0.50000  0.50000  Biso   1.000  Cu
  P1       1.0000 0.98060  0.17422  0.34844  Biso   1.000  P
  P2       1.0000 0.01940  0.82578  0.65156  Biso   1.000  P
  H1       1.0000 0.23000  0.99700  0.18400  Biso   1.000  H
  H2       1.0000 0.80300  0.96100  0.06400  Biso   1.000  H
  H3       1.0000 0.77000  0.81300  0.81600  Biso   1.000  H
  H4       1.0000 0.19700  0.89700  0.93600  Biso   1.000  H
  H5       1.0000 0.77000  0.00300  0.81600  Biso   1.000  H
  H6       1.0000 0.19700  0.03900  0.93600  Biso   1.000  H
  H7       1.0000 0.23000  0.18700  0.18400  Biso   1.000  H
  H8       1.0000 0.80300  0.10300  0.06400  Biso   1.000  H
  C1       1.0000 0.13600  0.09130  0.18260  Biso   1.000  C
  C2       1.0000 0.92400  0.03330  0.06660  Biso   1.000  C
  C3       1.0000 0.86400  0.90870  0.81740  Biso   1.000  C
  C4       1.0000 0.07600  0.96670  0.93340  Biso   1.000  C
  O1       1.0000 0.79210  0.99110  0.36300  Biso   1.000  O
  O2       1.0000 0.20790  0.62810  0.63700  Biso   1.000  O
  O3       1.0000 0.20790  0.00890  0.63700  Biso   1.000  O
  O4       1.0000 0.79210  0.37190  0.36300  Biso   1.000  O
  O5       1.0000 0.25500  0.22450  0.44900  Biso   1.000  O
  O6       1.0000 0.74500  0.77550  0.55100  Biso   1.000  O
