data_image0
_cell_length_a       6.1092
_cell_length_b       7.6866
_cell_length_c       22.6987
_cell_angle_alpha    90
_cell_angle_beta     91.657
_cell_angle_gamma    90

_symmetry_space_group_name_H-M    P 1
_symmetry_int_tables_number       1

loop_
  _symmetry_equiv_pos_as_xyz
  'x, y, z'

loop_
  _atom_site_label
  _atom_site_occupancy
  _atom_site_fract_x
  _atom_site_fract_y
  _atom_site_fract_z
  _atom_site_thermal_displace_type
  _atom_site_B_iso_or_equiv
  _atom_site_type_symbol
  La1      1.0000 0.45487  0.50172  0.85390  Biso   1.000  La
  La2      1.0000 0.54513  0.00172  0.64610  Biso   1.000  La
  La3      1.0000 0.54513  0.49828  0.14610  Biso   1.000  La
  La4      1.0000 0.45487  0.99828  0.35390  Biso   1.000  La
  H1       1.0000 0.30200  0.72400  0.75810  Biso   1.000  H
  H2       1.0000 0.44400  0.62500  0.61660  Biso   1.000  H
  H3       1.0000 0.03700  0.67700  0.87060  Biso   1.000  H
  H4       1.0000 0.11100  0.73000  0.92200  Biso   1.000  H
  H5       1.0000 0.04160  0.47800  0.71760  Biso   1.000  H
  H6       1.0000 0.12020  0.56560  0.62510  Biso   1.000  H
  H7       1.0000 0.69800  0.22400  0.74190  Biso   1.000  H
  H8       1.0000 0.55600  0.12500  0.88340  Biso   1.000  H
  H9       1.0000 0.96300  0.17700  0.62940  Biso   1.000  H
  H10      1.0000 0.88900  0.23000  0.57800  Biso   1.000  H
  H11      1.0000 0.95840  0.97800  0.78240  Biso   1.000  H
  H12      1.0000 0.87980  0.06560  0.87490  Biso   1.000  H
  H13      1.0000 0.69800  0.27600  0.24190  Biso   1.000  H
  H14      1.0000 0.55600  0.37500  0.38340  Biso   1.000  H
  H15      1.0000 0.96300  0.32300  0.12940  Biso   1.000  H
  H16      1.0000 0.88900  0.27000  0.07800  Biso   1.000  H
  H17      1.0000 0.95840  0.52200  0.28240  Biso   1.000  H
  H18      1.0000 0.87980  0.43440  0.37490  Biso   1.000  H
  H19      1.0000 0.30200  0.77600  0.25810  Biso   1.000  H
  H20      1.0000 0.44400  0.87500  0.11660  Biso   1.000  H
  H21      1.0000 0.03700  0.82300  0.37060  Biso   1.000  H
  H22      1.0000 0.11100  0.77000  0.42200  Biso   1.000  H
  H23      1.0000 0.04160  0.02200  0.21760  Biso   1.000  H
  H24      1.0000 0.12020  0.93440  0.12510  Biso   1.000  H
  C1       1.0000 0.36140  0.39410  0.71127  Biso   1.000  C
  C2       1.0000 0.18400  0.53540  0.71445  Biso   1.000  C
  C3       1.0000 0.18260  0.63910  0.65667  Biso   1.000  C
  C4       1.0000 0.04660  0.80580  0.65986  Biso   1.000  C
  C5       1.0000 0.58240  0.57600  0.99870  Biso   1.000  C
  C6       1.0000 0.63860  0.89410  0.78873  Biso   1.000  C
  C7       1.0000 0.81600  0.03540  0.78555  Biso   1.000  C
  C8       1.0000 0.81740  0.13910  0.84333  Biso   1.000  C
  C9       1.0000 0.95340  0.30580  0.84014  Biso   1.000  C
  C10      1.0000 0.41760  0.07600  0.50130  Biso   1.000  C
  C11      1.0000 0.63860  0.60590  0.28873  Biso   1.000  C
  C12      1.0000 0.81600  0.46460  0.28555  Biso   1.000  C
  C13      1.0000 0.81740  0.36090  0.34333  Biso   1.000  C
  C14      1.0000 0.95340  0.19420  0.34014  Biso   1.000  C
  C15      1.0000 0.41760  0.42400  0.00130  Biso   1.000  C
  C16      1.0000 0.36140  0.10590  0.21127  Biso   1.000  C
  C17      1.0000 0.18400  0.96460  0.21445  Biso   1.000  C
  C18      1.0000 0.18260  0.86090  0.15667  Biso   1.000  C
  C19      1.0000 0.04660  0.69420  0.15986  Biso   1.000  C
  C20      1.0000 0.58240  0.92400  0.49870  Biso   1.000  C
  O1       1.0000 0.51110  0.39790  0.75078  Biso   1.000  O
  O2       1.0000 0.35060  0.28690  0.67020  Biso   1.000  O
  O3       1.0000 0.22020  0.64020  0.76536  Biso   1.000  O
  O4       1.0000 0.39980  0.68590  0.64175  Biso   1.000  O
  O5       1.0000 0.14550  0.94730  0.65467  Biso   1.000  O
  O6       1.0000 0.84620  0.78930  0.66667  Biso   1.000  O
  O7       1.0000 0.62350  0.63190  0.94824  Biso   1.000  O
  O8       1.0000 0.66150  0.63060  0.04630  Biso   1.000  O
  O9       1.0000 0.14950  0.70670  0.88888  Biso   1.000  O
  O10      1.0000 0.48890  0.89790  0.74922  Biso   1.000  O
  O11      1.0000 0.64940  0.78690  0.82980  Biso   1.000  O
  O12      1.0000 0.77980  0.14020  0.73464  Biso   1.000  O
  O13      1.0000 0.60020  0.18590  0.85825  Biso   1.000  O
  O14      1.0000 0.85450  0.44730  0.84533  Biso   1.000  O
  O15      1.0000 0.15380  0.28930  0.83333  Biso   1.000  O
  O16      1.0000 0.37650  0.13190  0.55176  Biso   1.000  O
  O17      1.0000 0.33850  0.13060  0.45370  Biso   1.000  O
  O18      1.0000 0.85050  0.20670  0.61112  Biso   1.000  O
  O19      1.0000 0.48890  0.60210  0.24922  Biso   1.000  O
  O20      1.0000 0.64940  0.71310  0.32980  Biso   1.000  O
  O21      1.0000 0.77980  0.35980  0.23464  Biso   1.000  O
  O22      1.0000 0.60020  0.31410  0.35825  Biso   1.000  O
  O23      1.0000 0.85450  0.05270  0.34533  Biso   1.000  O
  O24      1.0000 0.15380  0.21070  0.33333  Biso   1.000  O
  O25      1.0000 0.37650  0.36810  0.05176  Biso   1.000  O
  O26      1.0000 0.33850  0.36940  0.95370  Biso   1.000  O
  O27      1.0000 0.85050  0.29330  0.11112  Biso   1.000  O
  O28      1.0000 0.51110  0.10210  0.25078  Biso   1.000  O
  O29      1.0000 0.35060  0.21310  0.17020  Biso   1.000  O
  O30      1.0000 0.22020  0.85980  0.26536  Biso   1.000  O
  O31      1.0000 0.39980  0.81410  0.14175  Biso   1.000  O
  O32      1.0000 0.14550  0.55270  0.15467  Biso   1.000  O
  O33      1.0000 0.84620  0.71070  0.16667  Biso   1.000  O
  O34      1.0000 0.62350  0.86810  0.44824  Biso   1.000  O
  O35      1.0000 0.66150  0.86940  0.54630  Biso   1.000  O
  O36      1.0000 0.14950  0.79330  0.38888  Biso   1.000  O
