data_image0
_cell_length_a       6.1071
_cell_length_b       7.6962
_cell_length_c       22.702
_cell_angle_alpha    90
_cell_angle_beta     91.645
_cell_angle_gamma    90

_symmetry_space_group_name_H-M    P 1
_symmetry_int_tables_number       1

loop_
  _symmetry_equiv_pos_as_xyz
  'x, y, z'

loop_
  _atom_site_label
  _atom_site_occupancy
  _atom_site_fract_x
  _atom_site_fract_y
  _atom_site_fract_z
  _atom_site_thermal_displace_type
  _atom_site_B_iso_or_equiv
  _atom_site_type_symbol
  La1      1.0000 0.54514  0.99824  0.14605  Biso   1.000  La
  La2      1.0000 0.45486  0.49824  0.35395  Biso   1.000  La
  La3      1.0000 0.45486  0.00176  0.85395  Biso   1.000  La
  La4      1.0000 0.54514  0.50176  0.64605  Biso   1.000  La
  H1       1.0000 0.95960  0.02070  0.28270  Biso   1.000  H
  H2       1.0000 0.88620  0.93270  0.37440  Biso   1.000  H
  H3       1.0000 0.93810  0.85720  0.09210  Biso   1.000  H
  H4       1.0000 0.83160  0.70240  0.09040  Biso   1.000  H
  H5       1.0000 0.04040  0.52070  0.21730  Biso   1.000  H
  H6       1.0000 0.11380  0.43270  0.12560  Biso   1.000  H
  H7       1.0000 0.06190  0.35720  0.40790  Biso   1.000  H
  H8       1.0000 0.16840  0.20240  0.40960  Biso   1.000  H
  H9       1.0000 0.04040  0.97930  0.71730  Biso   1.000  H
  H10      1.0000 0.11380  0.06730  0.62560  Biso   1.000  H
  H11      1.0000 0.06190  0.14280  0.90790  Biso   1.000  H
  H12      1.0000 0.16840  0.29760  0.90960  Biso   1.000  H
  H13      1.0000 0.95960  0.47930  0.78270  Biso   1.000  H
  H14      1.0000 0.88620  0.56730  0.87440  Biso   1.000  H
  H15      1.0000 0.93810  0.64280  0.59210  Biso   1.000  H
  H16      1.0000 0.83160  0.79760  0.59040  Biso   1.000  H
  C1       1.0000 0.63990  0.10310  0.28860  Biso   1.000  C
  C2       1.0000 0.81750  0.96300  0.28630  Biso   1.000  C
  C3       1.0000 0.82190  0.85990  0.34300  Biso   1.000  C
  C4       1.0000 0.95330  0.69420  0.33970  Biso   1.000  C
  C5       1.0000 0.58380  0.07510  0.99920  Biso   1.000  C
  C6       1.0000 0.36010  0.60310  0.21140  Biso   1.000  C
  C7       1.0000 0.18250  0.46300  0.21370  Biso   1.000  C
  C8       1.0000 0.17810  0.35990  0.15700  Biso   1.000  C
  C9       1.0000 0.04670  0.19420  0.16030  Biso   1.000  C
  C10      1.0000 0.41620  0.57510  0.50080  Biso   1.000  C
  C11      1.0000 0.36010  0.89690  0.71140  Biso   1.000  C
  C12      1.0000 0.18250  0.03700  0.71370  Biso   1.000  C
  C13      1.0000 0.17810  0.14010  0.65700  Biso   1.000  C
  C14      1.0000 0.04670  0.30580  0.66030  Biso   1.000  C
  C15      1.0000 0.41620  0.92490  0.00080  Biso   1.000  C
  C16      1.0000 0.63990  0.39690  0.78860  Biso   1.000  C
  C17      1.0000 0.81750  0.53700  0.78630  Biso   1.000  C
  C18      1.0000 0.82190  0.64010  0.84300  Biso   1.000  C
  C19      1.0000 0.95330  0.80580  0.83970  Biso   1.000  C
  C20      1.0000 0.58380  0.42490  0.49920  Biso   1.000  C
  O1       1.0000 0.48940  0.10320  0.24920  Biso   1.000  O
  O2       1.0000 0.65000  0.21280  0.32990  Biso   1.000  O
  O3       1.0000 0.77980  0.85650  0.23470  Biso   1.000  O
  O4       1.0000 0.60020  0.81460  0.35860  Biso   1.000  O
  O5       1.0000 0.85640  0.55240  0.34540  Biso   1.000  O
  O6       1.0000 0.15340  0.70950  0.33340  Biso   1.000  O
  O7       1.0000 0.62360  0.13230  0.94800  Biso   1.000  O
  O8       1.0000 0.65940  0.13060  0.04640  Biso   1.000  O
  O9       1.0000 0.85120  0.79340  0.11110  Biso   1.000  O
  O10      1.0000 0.51060  0.60320  0.25080  Biso   1.000  O
  O11      1.0000 0.35000  0.71280  0.17010  Biso   1.000  O
  O12      1.0000 0.22020  0.35650  0.26530  Biso   1.000  O
  O13      1.0000 0.39980  0.31460  0.14140  Biso   1.000  O
  O14      1.0000 0.14360  0.05240  0.15460  Biso   1.000  O
  O15      1.0000 0.84660  0.20950  0.16660  Biso   1.000  O
  O16      1.0000 0.37640  0.63230  0.55200  Biso   1.000  O
  O17      1.0000 0.34060  0.63060  0.45360  Biso   1.000  O
  O18      1.0000 0.14880  0.29340  0.38890  Biso   1.000  O
  O19      1.0000 0.51060  0.89680  0.75080  Biso   1.000  O
  O20      1.0000 0.35000  0.78720  0.67010  Biso   1.000  O
  O21      1.0000 0.22020  0.14350  0.76530  Biso   1.000  O
  O22      1.0000 0.39980  0.18540  0.64140  Biso   1.000  O
  O23      1.0000 0.14360  0.44760  0.65460  Biso   1.000  O
  O24      1.0000 0.84660  0.29050  0.66660  Biso   1.000  O
  O25      1.0000 0.37640  0.86770  0.05200  Biso   1.000  O
  O26      1.0000 0.34060  0.86940  0.95360  Biso   1.000  O
  O27      1.0000 0.14880  0.20660  0.88890  Biso   1.000  O
  O28      1.0000 0.48940  0.39680  0.74920  Biso   1.000  O
  O29      1.0000 0.65000  0.28720  0.82990  Biso   1.000  O
  O30      1.0000 0.77980  0.64350  0.73470  Biso   1.000  O
  O31      1.0000 0.60020  0.68540  0.85860  Biso   1.000  O
  O32      1.0000 0.85640  0.94760  0.84540  Biso   1.000  O
  O33      1.0000 0.15340  0.79050  0.83340  Biso   1.000  O
  O34      1.0000 0.62360  0.36770  0.44800  Biso   1.000  O
  O35      1.0000 0.65940  0.36940  0.54640  Biso   1.000  O
  O36      1.0000 0.85120  0.70660  0.61110  Biso   1.000  O
