data_image0
_cell_length_a       13.3169
_cell_length_b       13.3169
_cell_length_c       14.297
_cell_angle_alpha    90
_cell_angle_beta     90
_cell_angle_gamma    120

_symmetry_space_group_name_H-M    P 1
_symmetry_int_tables_number       1

loop_
  _symmetry_equiv_pos_as_xyz
  'x, y, z'

loop_
  _atom_site_label
  _atom_site_occupancy
  _atom_site_fract_x
  _atom_site_fract_y
  _atom_site_fract_z
  _atom_site_thermal_displace_type
  _atom_site_B_iso_or_equiv
  _atom_site_type_symbol
  Er1      1.0000 0.33333  0.66666  0.84568  Biso   1.000  Er
  Er2      1.0000 0.33333  0.66666  0.34568  Biso   1.000  Er
  Er3      1.0000 0.66667  0.33334  0.18054  Biso   1.000  Er
  Er4      1.0000 0.66667  0.33334  0.68054  Biso   1.000  Er
  Cu1      1.0000 0.00050  0.50020  0.01330  Biso   1.000  Cu
  Cu2      1.0000 0.49970  0.99950  0.01330  Biso   1.000  Cu
  Cu3      1.0000 0.49980  0.50030  0.01330  Biso   1.000  Cu
  Cu4      1.0000 0.49970  0.50020  0.51330  Biso   1.000  Cu
  Cu5      1.0000 0.49980  0.99950  0.51330  Biso   1.000  Cu
  Cu6      1.0000 0.00050  0.50030  0.51330  Biso   1.000  Cu
  H1       1.0000 0.01880  0.66910  0.93570  Biso   1.000  H
  H2       1.0000 0.97360  0.32390  0.09340  Biso   1.000  H
  H3       1.0000 0.92200  0.60920  0.82290  Biso   1.000  H
  H4       1.0000 0.81010  0.54840  0.88540  Biso   1.000  H
  H5       1.0000 0.09750  0.40690  0.21150  Biso   1.000  H
  H6       1.0000 0.20090  0.47100  0.14160  Biso   1.000  H
  H7       1.0000 0.95810  0.70130  0.06190  Biso   1.000  H
  H8       1.0000 0.85830  0.67540  0.99150  Biso   1.000  H
  H9       1.0000 0.03820  0.29050  0.95910  Biso   1.000  H
  H10      1.0000 0.13530  0.31210  0.03240  Biso   1.000  H
  H11      1.0000 0.65030  0.98120  0.93570  Biso   1.000  H
  H12      1.0000 0.35030  0.02640  0.09340  Biso   1.000  H
  H13      1.0000 0.68720  0.07800  0.82290  Biso   1.000  H
  H14      1.0000 0.73830  0.18990  0.88540  Biso   1.000  H
  H15      1.0000 0.30940  0.90250  0.21150  Biso   1.000  H
  H16      1.0000 0.27010  0.79910  0.14160  Biso   1.000  H
  H17      1.0000 0.74320  0.04190  0.06190  Biso   1.000  H
  H18      1.0000 0.81710  0.14170  0.99150  Biso   1.000  H
  H19      1.0000 0.25230  0.96180  0.95910  Biso   1.000  H
  H20      1.0000 0.17680  0.86470  0.03240  Biso   1.000  H
  H21      1.0000 0.33090  0.34970  0.93570  Biso   1.000  H
  H22      1.0000 0.67610  0.64970  0.09340  Biso   1.000  H
  H23      1.0000 0.39080  0.31280  0.82290  Biso   1.000  H
  H24      1.0000 0.45160  0.26170  0.88540  Biso   1.000  H
  H25      1.0000 0.59310  0.69060  0.21150  Biso   1.000  H
  H26      1.0000 0.52900  0.72990  0.14160  Biso   1.000  H
  H27      1.0000 0.29870  0.25680  0.06190  Biso   1.000  H
  H28      1.0000 0.32460  0.18290  0.99150  Biso   1.000  H
  H29      1.0000 0.70950  0.74770  0.95910  Biso   1.000  H
  H30      1.0000 0.68790  0.82320  0.03240  Biso   1.000  H
  H31      1.0000 0.65030  0.66910  0.43570  Biso   1.000  H
  H32      1.0000 0.35030  0.32390  0.59340  Biso   1.000  H
  H33      1.0000 0.68720  0.60920  0.32290  Biso   1.000  H
  H34      1.0000 0.73830  0.54840  0.38540  Biso   1.000  H
  H35      1.0000 0.30940  0.40690  0.71150  Biso   1.000  H
  H36      1.0000 0.27010  0.47100  0.64160  Biso   1.000  H
  H37      1.0000 0.74320  0.70130  0.56190  Biso   1.000  H
  H38      1.0000 0.81710  0.67540  0.49150  Biso   1.000  H
  H39      1.0000 0.25230  0.29050  0.45910  Biso   1.000  H
  H40      1.0000 0.17680  0.31210  0.53240  Biso   1.000  H
  H41      1.0000 0.33090  0.98120  0.43570  Biso   1.000  H
  H42      1.0000 0.67610  0.02640  0.59340  Biso   1.000  H
  H43      1.0000 0.39080  0.07800  0.32290  Biso   1.000  H
  H44      1.0000 0.45160  0.18990  0.38540  Biso   1.000  H
  H45      1.0000 0.59310  0.90250  0.71150  Biso   1.000  H
  H46      1.0000 0.52900  0.79910  0.64160  Biso   1.000  H
  H47      1.0000 0.29870  0.04190  0.56190  Biso   1.000  H
  H48      1.0000 0.32460  0.14170  0.49150  Biso   1.000  H
  H49      1.0000 0.70950  0.96180  0.45910  Biso   1.000  H
  H50      1.0000 0.68790  0.86470  0.53240  Biso   1.000  H
  H51      1.0000 0.01880  0.34970  0.43570  Biso   1.000  H
  H52      1.0000 0.97360  0.64970  0.59340  Biso   1.000  H
  H53      1.0000 0.92200  0.31280  0.32290  Biso   1.000  H
  H54      1.0000 0.81010  0.26170  0.38540  Biso   1.000  H
  H55      1.0000 0.09750  0.69060  0.71150  Biso   1.000  H
  H56      1.0000 0.20090  0.72990  0.64160  Biso   1.000  H
  H57      1.0000 0.95810  0.25680  0.56190  Biso   1.000  H
  H58      1.0000 0.85830  0.18290  0.49150  Biso   1.000  H
  H59      1.0000 0.03820  0.74770  0.45910  Biso   1.000  H
  H60      1.0000 0.13530  0.82320  0.53240  Biso   1.000  H
  C1       1.0000 0.12970  0.56400  0.17850  Biso   1.000  C
  C2       1.0000 0.87430  0.43620  0.85390  Biso   1.000  C
  C3       1.0000 0.88630  0.55750  0.87570  Biso   1.000  C
  C4       1.0000 0.12350  0.45590  0.15640  Biso   1.000  C
  C5       1.0000 0.89770  0.64100  0.02400  Biso   1.000  C
  C6       1.0000 0.09560  0.34700  0.00130  Biso   1.000  C
  C7       1.0000 0.18720  0.46210  0.94450  Biso   1.000  C
  C8       1.0000 0.81480  0.55200  0.08630  Biso   1.000  C
  C9       1.0000 0.43430  0.87030  0.17850  Biso   1.000  C
  C10      1.0000 0.56190  0.12570  0.85390  Biso   1.000  C
  C11      1.0000 0.67120  0.11370  0.87570  Biso   1.000  C
  C12      1.0000 0.33240  0.87650  0.15640  Biso   1.000  C
  C13      1.0000 0.74330  0.10230  0.02400  Biso   1.000  C
  C14      1.0000 0.25140  0.90440  0.00130  Biso   1.000  C
  C15      1.0000 0.27490  0.81280  0.94450  Biso   1.000  C
  C16      1.0000 0.73720  0.18520  0.08630  Biso   1.000  C
  C17      1.0000 0.43600  0.56570  0.17850  Biso   1.000  C
  C18      1.0000 0.56380  0.43810  0.85390  Biso   1.000  C
  C19      1.0000 0.44250  0.32880  0.87570  Biso   1.000  C
  C20      1.0000 0.54410  0.66760  0.15640  Biso   1.000  C
  C21      1.0000 0.35900  0.25670  0.02400  Biso   1.000  C
  C22      1.0000 0.65300  0.74860  0.00130  Biso   1.000  C
  C23      1.0000 0.53790  0.72510  0.94450  Biso   1.000  C
  C24      1.0000 0.44800  0.26280  0.08630  Biso   1.000  C
  C25      1.0000 0.43430  0.56400  0.67850  Biso   1.000  C
  C26      1.0000 0.56190  0.43620  0.35390  Biso   1.000  C
  C27      1.0000 0.67120  0.55750  0.37570  Biso   1.000  C
  C28      1.0000 0.33240  0.45590  0.65640  Biso   1.000  C
  C29      1.0000 0.74330  0.64100  0.52400  Biso   1.000  C
  C30      1.0000 0.25140  0.34700  0.50130  Biso   1.000  C
  C31      1.0000 0.27490  0.46210  0.44450  Biso   1.000  C
  C32      1.0000 0.73720  0.55200  0.58630  Biso   1.000  C
  C33      1.0000 0.43600  0.87030  0.67850  Biso   1.000  C
  C34      1.0000 0.56380  0.12570  0.35390  Biso   1.000  C
  C35      1.0000 0.44250  0.11370  0.37570  Biso   1.000  C
  C36      1.0000 0.54410  0.87650  0.65640  Biso   1.000  C
  C37      1.0000 0.35900  0.10230  0.52400  Biso   1.000  C
  C38      1.0000 0.65300  0.90440  0.50130  Biso   1.000  C
  C39      1.0000 0.53790  0.81280  0.44450  Biso   1.000  C
  C40      1.0000 0.44800  0.18520  0.58630  Biso   1.000  C
  C41      1.0000 0.12970  0.56570  0.67850  Biso   1.000  C
  C42      1.0000 0.87430  0.43810  0.35390  Biso   1.000  C
  C43      1.0000 0.88630  0.32880  0.37570  Biso   1.000  C
  C44      1.0000 0.12350  0.66760  0.65640  Biso   1.000  C
  C45      1.0000 0.89770  0.25670  0.52400  Biso   1.000  C
  C46      1.0000 0.09560  0.74860  0.50130  Biso   1.000  C
  C47      1.0000 0.18720  0.72510  0.44450  Biso   1.000  C
  C48      1.0000 0.81480  0.26280  0.58630  Biso   1.000  C
  N1       1.0000 0.95280  0.60440  0.95420  Biso   1.000  N
  N2       1.0000 0.03930  0.38610  0.07120  Biso   1.000  N
  N3       1.0000 0.65160  0.04720  0.95420  Biso   1.000  N
  N4       1.0000 0.34680  0.96070  0.07120  Biso   1.000  N
  N5       1.0000 0.39560  0.34840  0.95420  Biso   1.000  N
  N6       1.0000 0.61390  0.65320  0.07120  Biso   1.000  N
  N7       1.0000 0.65160  0.60440  0.45420  Biso   1.000  N
  N8       1.0000 0.34680  0.38610  0.57120  Biso   1.000  N
  N9       1.0000 0.39560  0.04720  0.45420  Biso   1.000  N
  N10      1.0000 0.61390  0.96070  0.57120  Biso   1.000  N
  N11      1.0000 0.95280  0.34840  0.45420  Biso   1.000  N
  N12      1.0000 0.03930  0.65320  0.57120  Biso   1.000  N
  O1       1.0000 0.19060  0.55580  0.95500  Biso   1.000  O
  O2       1.0000 0.07610  0.59830  0.12360  Biso   1.000  O
  O3       1.0000 0.81130  0.45590  0.07460  Biso   1.000  O
  O4       1.0000 0.92820  0.40240  0.90610  Biso   1.000  O
  O5       1.0000 0.25240  0.44620  0.88430  Biso   1.000  O
  O6       1.0000 0.75890  0.56800  0.14110  Biso   1.000  O
  O7       1.0000 0.81480  0.37690  0.78440  Biso   1.000  O
  O8       1.0000 0.18530  0.61590  0.24540  Biso   1.000  O
  O9       1.0000 0.36520  0.80940  0.95500  Biso   1.000  O
  O10      1.0000 0.52220  0.92390  0.12360  Biso   1.000  O
  O11      1.0000 0.64460  0.18870  0.07460  Biso   1.000  O
  O12      1.0000 0.47420  0.07180  0.90610  Biso   1.000  O
  O13      1.0000 0.19380  0.74760  0.88430  Biso   1.000  O
  O14      1.0000 0.80910  0.24110  0.14110  Biso   1.000  O
  O15      1.0000 0.56210  0.18520  0.78440  Biso   1.000  O
  O16      1.0000 0.43060  0.81470  0.24540  Biso   1.000  O
  O17      1.0000 0.44420  0.63480  0.95500  Biso   1.000  O
  O18      1.0000 0.40170  0.47780  0.12360  Biso   1.000  O
  O19      1.0000 0.54410  0.35540  0.07460  Biso   1.000  O
  O20      1.0000 0.59760  0.52580  0.90610  Biso   1.000  O
  O21      1.0000 0.55380  0.80620  0.88430  Biso   1.000  O
  O22      1.0000 0.43200  0.19090  0.14110  Biso   1.000  O
  O23      1.0000 0.62310  0.43790  0.78440  Biso   1.000  O
  O24      1.0000 0.38410  0.56940  0.24540  Biso   1.000  O
  O25      1.0000 0.36520  0.55580  0.45500  Biso   1.000  O
  O26      1.0000 0.52220  0.59830  0.62360  Biso   1.000  O
  O27      1.0000 0.64460  0.45590  0.57460  Biso   1.000  O
  O28      1.0000 0.47420  0.40240  0.40610  Biso   1.000  O
  O29      1.0000 0.19380  0.44620  0.38430  Biso   1.000  O
  O30      1.0000 0.80910  0.56800  0.64110  Biso   1.000  O
  O31      1.0000 0.56210  0.37690  0.28440  Biso   1.000  O
  O32      1.0000 0.43060  0.61590  0.74540  Biso   1.000  O
  O33      1.0000 0.44420  0.80940  0.45500  Biso   1.000  O
  O34      1.0000 0.40170  0.92390  0.62360  Biso   1.000  O
  O35      1.0000 0.54410  0.18870  0.57460  Biso   1.000  O
  O36      1.0000 0.59760  0.07180  0.40610  Biso   1.000  O
  O37      1.0000 0.55380  0.74760  0.38430  Biso   1.000  O
  O38      1.0000 0.43200  0.24110  0.64110  Biso   1.000  O
  O39      1.0000 0.62310  0.18520  0.28440  Biso   1.000  O
  O40      1.0000 0.38410  0.81470  0.74540  Biso   1.000  O
  O41      1.0000 0.19060  0.63480  0.45500  Biso   1.000  O
  O42      1.0000 0.07610  0.47780  0.62360  Biso   1.000  O
  O43      1.0000 0.81130  0.35540  0.57460  Biso   1.000  O
  O44      1.0000 0.92820  0.52580  0.40610  Biso   1.000  O
  O45      1.0000 0.25240  0.80620  0.38430  Biso   1.000  O
  O46      1.0000 0.75890  0.19090  0.64110  Biso   1.000  O
  O47      1.0000 0.81480  0.43790  0.28440  Biso   1.000  O
  O48      1.0000 0.18530  0.56940  0.74540  Biso   1.000  O
