data_image0
_cell_length_a       9.9983
_cell_length_b       11.0159
_cell_length_c       12.3746
_cell_angle_alpha    90.955
_cell_angle_beta     110.694
_cell_angle_gamma    95.116

_symmetry_space_group_name_H-M    "P 1"
_symmetry_int_tables_number       1

loop_
  _symmetry_equiv_pos_as_xyz
  'x, y, z'

loop_
  _atom_site_label
  _atom_site_occupancy
  _atom_site_fract_x
  _atom_site_fract_y
  _atom_site_fract_z
  _atom_site_thermal_displace_type
  _atom_site_B_iso_or_equiv
  _atom_site_type_symbol
  Cu1      1.0000 0.67535  0.87699  0.50347  Biso   1.000  Cu
  O1       1.0000 0.69390  0.71430  0.43810  Biso   1.000  O
  O2       1.0000 0.91990  0.79390  0.51760  Biso   1.000  O
  O3       1.0000 0.24550  0.96670  0.41100  Biso   1.000  O
  O4       1.0000 0.43270  0.86670  0.41710  Biso   1.000  O
  O5       1.0000 0.69050  0.13030  0.99790  Biso   1.000  O
  O6       1.0000 0.78940  0.71920  0.05990  Biso   1.000  O
  N1       1.0000 0.66170  0.80490  0.64760  Biso   1.000  N
  N2       1.0000 0.69850  0.94780  0.36080  Biso   1.000  N
  N3       1.0000 0.90410  0.05090  0.04480  Biso   1.000  N
  N4       1.0000 0.57740  0.60890  0.99100  Biso   1.000  N
  C1       1.0000 0.82910  0.71360  0.45630  Biso   1.000  C
  C2       1.0000 0.87020  0.61020  0.39820  Biso   1.000  C
  C3       1.0000 0.98210  0.62700  0.35350  Biso   1.000  C
  C4       1.0000 0.00810  0.52710  0.29570  Biso   1.000  C
  H1       1.0000 0.07910  0.53720  0.26110  Biso   1.000  H
  C5       1.0000 0.93320  0.41430  0.28760  Biso   1.000  C
  H2       1.0000 0.95250  0.34800  0.24710  Biso   1.000  H
  C6       1.0000 0.83060  0.39680  0.33750  Biso   1.000  C
  H3       1.0000 0.78290  0.31770  0.33560  Biso   1.000  H
  C7       1.0000 0.79730  0.49490  0.39070  Biso   1.000  C
  H4       1.0000 0.72370  0.48360  0.42250  Biso   1.000  H
  C8       1.0000 0.07240  0.74350  0.36780  Biso   1.000  C
  H5       1.0000 0.02850  0.81670  0.36660  Biso   1.000  H
  C9       1.0000 0.30500  0.86990  0.40540  Biso   1.000  C
  C10      1.0000 0.81430  0.02460  0.37160  Biso   1.000  C
  H6       1.0000 0.87580  0.05420  0.44700  Biso   1.000  H
  C11      1.0000 0.84830  0.06280  0.27790  Biso   1.000  C
  H7       1.0000 0.93260  0.11630  0.28930  Biso   1.000  H
  C12      1.0000 0.75880  0.02250  0.16730  Biso   1.000  C
  C13      1.0000 0.63750  0.94340  0.15510  Biso   1.000  C
  H8       1.0000 0.57270  0.91440  0.08070  Biso   1.000  H
  C14      1.0000 0.61310  0.90800  0.25350  Biso   1.000  C
  H9       1.0000 0.53130  0.85230  0.24480  Biso   1.000  H
  C15      1.0000 0.78320  0.07130  0.06270  Biso   1.000  C
  C16      1.0000 0.01800  0.98290  0.11970  Biso   1.000  C
  H10      1.0000 0.98370  0.93980  0.17600  Biso   1.000  H
  H11      1.0000 0.10260  0.04050  0.16350  Biso   1.000  H
  C17      1.0000 0.93880  0.10850  0.95110  Biso   1.000  C
  H12      1.0000 0.01840  0.17410  0.98410  Biso   1.000  H
  H13      1.0000 0.85410  0.14620  0.90020  Biso   1.000  H
  C18      1.0000 0.43970  0.56840  0.89830  Biso   1.000  C
  H14      1.0000 0.44310  0.59380  0.82290  Biso   1.000  H
  H15      1.0000 0.36110  0.60700  0.91220  Biso   1.000  H
  C19      1.0000 0.58880  0.56610  0.10470  Biso   1.000  C
  H16      1.0000 0.51900  0.60410  0.13130  Biso   1.000  H
  H17      1.0000 0.68640  0.59160  0.16080  Biso   1.000  H
  C20      1.0000 0.68100  0.68340  0.97870  Biso   1.000  C
  C21      1.0000 0.66510  0.72270  0.85990  Biso   1.000  C
  C22      1.0000 0.59070  0.81950  0.81110  Biso   1.000  C
  H18      1.0000 0.53810  0.85910  0.84950  Biso   1.000  H
  C23      1.0000 0.59300  0.85840  0.70700  Biso   1.000  C
  H19      1.0000 0.54330  0.92660  0.67580  Biso   1.000  H
  C24      1.0000 0.73390  0.71170  0.69510  Biso   1.000  C
  H20      1.0000 0.78400  0.67250  0.65420  Biso   1.000  H
  C25      1.0000 0.73950  0.66940  0.80000  Biso   1.000  C
  H21      1.0000 0.79430  0.60380  0.83130  Biso   1.000  H
  C26      1.0000 0.21100  0.75320  0.38230  Biso   1.000  C
  H22      1.0000 0.25300  0.68020  0.37750  Biso   1.000  H
  Cu2      1.0000 0.32465  0.12301  0.49653  Biso   1.000  Cu
  O7       1.0000 0.30610  0.28570  0.56190  Biso   1.000  O
  O8       1.0000 0.08010  0.20610  0.48240  Biso   1.000  O
  O9       1.0000 0.75450  0.03330  0.58900  Biso   1.000  O
  O10      1.0000 0.56730  0.13330  0.58290  Biso   1.000  O
  O11      1.0000 0.30950  0.86970  0.00210  Biso   1.000  O
  O12      1.0000 0.21060  0.28080  0.94010  Biso   1.000  O
  N5       1.0000 0.33830  0.19510  0.35240  Biso   1.000  N
  N6       1.0000 0.30150  0.05220  0.63920  Biso   1.000  N
  N7       1.0000 0.09590  0.94910  0.95520  Biso   1.000  N
  N8       1.0000 0.42260  0.39110  0.00900  Biso   1.000  N
  C27      1.0000 0.17090  0.28640  0.54370  Biso   1.000  C
  C28      1.0000 0.12980  0.38980  0.60180  Biso   1.000  C
  C29      1.0000 0.01790  0.37300  0.64650  Biso   1.000  C
  C30      1.0000 0.99190  0.47290  0.70430  Biso   1.000  C
  H23      1.0000 0.92090  0.46280  0.73890  Biso   1.000  H
  C31      1.0000 0.06680  0.58570  0.71240  Biso   1.000  C
  H24      1.0000 0.04750  0.65200  0.75290  Biso   1.000  H
  C32      1.0000 0.16940  0.60320  0.66250  Biso   1.000  C
  H25      1.0000 0.21710  0.68230  0.66440  Biso   1.000  H
  C33      1.0000 0.20270  0.50510  0.60930  Biso   1.000  C
  H26      1.0000 0.27630  0.51640  0.57750  Biso   1.000  H
  C34      1.0000 0.92760  0.25650  0.63220  Biso   1.000  C
  H27      1.0000 0.97150  0.18330  0.63340  Biso   1.000  H
  C35      1.0000 0.69500  0.13010  0.59460  Biso   1.000  C
  C36      1.0000 0.18570  0.97540  0.62840  Biso   1.000  C
  H28      1.0000 0.12420  0.94580  0.55300  Biso   1.000  H
  C37      1.0000 0.15170  0.93720  0.72210  Biso   1.000  C
  H29      1.0000 0.06740  0.88370  0.71070  Biso   1.000  H
  C38      1.0000 0.24120  0.97750  0.83270  Biso   1.000  C
  C39      1.0000 0.36250  0.05660  0.84490  Biso   1.000  C
  H30      1.0000 0.42730  0.08560  0.91930  Biso   1.000  H
  C40      1.0000 0.38690  0.09200  0.74650  Biso   1.000  C
  H31      1.0000 0.46870  0.14770  0.75520  Biso   1.000  H
  C41      1.0000 0.21680  0.92870  0.93730  Biso   1.000  C
  C42      1.0000 0.98200  0.01710  0.88030  Biso   1.000  C
  H32      1.0000 0.01630  0.06020  0.82400  Biso   1.000  H
  H33      1.0000 0.89740  0.95950  0.83650  Biso   1.000  H
  C43      1.0000 0.06120  0.89150  0.04890  Biso   1.000  C
  H34      1.0000 0.98160  0.82590  0.01590  Biso   1.000  H
  H35      1.0000 0.14590  0.85380  0.09980  Biso   1.000  H
  C44      1.0000 0.56030  0.43160  0.10170  Biso   1.000  C
  H36      1.0000 0.55690  0.40620  0.17710  Biso   1.000  H
  H37      1.0000 0.63890  0.39300  0.08780  Biso   1.000  H
  C45      1.0000 0.41120  0.43390  0.89530  Biso   1.000  C
  H38      1.0000 0.48100  0.39590  0.86870  Biso   1.000  H
  H39      1.0000 0.31360  0.40840  0.83920  Biso   1.000  H
  C46      1.0000 0.31900  0.31660  0.02130  Biso   1.000  C
  C47      1.0000 0.33490  0.27730  0.14010  Biso   1.000  C
  C48      1.0000 0.40930  0.18050  0.18890  Biso   1.000  C
  H40      1.0000 0.46190  0.14090  0.15050  Biso   1.000  H
  C49      1.0000 0.40700  0.14160  0.29300  Biso   1.000  C
  H41      1.0000 0.45670  0.07340  0.32420  Biso   1.000  H
  C50      1.0000 0.26610  0.28830  0.30490  Biso   1.000  C
  H42      1.0000 0.21600  0.32750  0.34580  Biso   1.000  H
  C51      1.0000 0.26050  0.33060  0.20000  Biso   1.000  C
  H43      1.0000 0.20570  0.39620  0.16870  Biso   1.000  H
  C52      1.0000 0.78900  0.24680  0.61770  Biso   1.000  C
  H44      1.0000 0.74700  0.31980  0.62250  Biso   1.000  H
