data_image0
_cell_length_a       7.7201
_cell_length_b       23.2507
_cell_length_c       23.2507
_cell_angle_alpha    61.2084
_cell_angle_beta     83.6455
_cell_angle_gamma    96.3545

_symmetry_space_group_name_H-M    P 1
_symmetry_int_tables_number       1

loop_
  _symmetry_equiv_pos_as_xyz
  'x, y, z'

loop_
  _atom_site_label
  _atom_site_occupancy
  _atom_site_fract_x
  _atom_site_fract_y
  _atom_site_fract_z
  _atom_site_thermal_displace_type
  _atom_site_B_iso_or_equiv
  _atom_site_type_symbol
  Cd1      1.0000 0.74563  0.52422  0.43716  Biso   1.000  Cd
  Cd2      1.0000 0.18297  0.47828  0.40088  Biso   1.000  Cd
  Cd3      1.0000 0.18279  0.43716  0.03862  Biso   1.000  Cd
  Cd4      1.0000 0.58385  0.40088  0.12084  Biso   1.000  Cd
  Cd5      1.0000 0.22141  0.03862  0.52422  Biso   1.000  Cd
  Cd6      1.0000 0.70469  0.12084  0.47828  Biso   1.000  Cd
  Cd7      1.0000 0.25437  0.47578  0.56284  Biso   1.000  Cd
  Cd8      1.0000 0.81703  0.52172  0.59912  Biso   1.000  Cd
  Cd9      1.0000 0.81721  0.56284  0.96138  Biso   1.000  Cd
  Cd10     1.0000 0.41615  0.59912  0.87916  Biso   1.000  Cd
  Cd11     1.0000 0.77859  0.96138  0.47578  Biso   1.000  Cd
  Cd12     1.0000 0.29531  0.87916  0.52172  Biso   1.000  Cd
  H1       1.0000 0.53670  0.70420  0.29830  Biso   1.000  H
  H2       1.0000 0.39770  0.79210  0.24190  Biso   1.000  H
  H3       1.0000 0.96970  0.70040  0.39020  Biso   1.000  H
  H4       1.0000 0.11500  0.83010  0.37590  Biso   1.000  H
  H5       1.0000 0.52590  0.83220  0.35940  Biso   1.000  H
  H6       1.0000 0.71410  0.81970  0.28420  Biso   1.000  H
  H7       1.0000 0.32000  0.36380  0.43550  Biso   1.000  H
  H8       1.0000 0.14160  0.35810  0.45650  Biso   1.000  H
  H9       1.0000 0.83500  0.29830  0.99750  Biso   1.000  H
  H10      1.0000 0.63960  0.24190  0.96600  Biso   1.000  H
  H11      1.0000 0.35990  0.39020  0.90940  Biso   1.000  H
  H12      1.0000 0.49090  0.37590  0.79400  Biso   1.000  H
  H13      1.0000 0.88530  0.35940  0.80840  Biso   1.000  H
  H14      1.0000 0.99830  0.28420  0.89610  Biso   1.000  H
  H15      1.0000 0.75550  0.43550  0.20070  Biso   1.000  H
  H16      1.0000 0.59810  0.45650  0.18540  Biso   1.000  H
  H17      1.0000 0.83250  0.99750  0.70420  Biso   1.000  H
  H18      1.0000 0.60560  0.96600  0.79210  Biso   1.000  H
  H19      1.0000 0.26930  0.90940  0.70040  Biso   1.000  H
  H20      1.0000 0.28490  0.79400  0.83010  Biso   1.000  H
  H21      1.0000 0.69370  0.80840  0.83220  Biso   1.000  H
  H22      1.0000 0.89440  0.89610  0.81970  Biso   1.000  H
  H23      1.0000 0.95620  0.20070  0.36380  Biso   1.000  H
  H24      1.0000 0.78350  0.18540  0.35810  Biso   1.000  H
  H25      1.0000 0.46330  0.29580  0.70170  Biso   1.000  H
  H26      1.0000 0.60230  0.20790  0.75810  Biso   1.000  H
  H27      1.0000 0.03030  0.29960  0.60980  Biso   1.000  H
  H28      1.0000 0.88500  0.16990  0.62410  Biso   1.000  H
  H29      1.0000 0.47410  0.16780  0.64060  Biso   1.000  H
  H30      1.0000 0.28590  0.18030  0.71580  Biso   1.000  H
  H31      1.0000 0.68000  0.63620  0.56450  Biso   1.000  H
  H32      1.0000 0.85840  0.64190  0.54350  Biso   1.000  H
  H33      1.0000 0.16500  0.70170  0.00250  Biso   1.000  H
  H34      1.0000 0.36040  0.75810  0.03400  Biso   1.000  H
  H35      1.0000 0.64010  0.60980  0.09060  Biso   1.000  H
  H36      1.0000 0.50910  0.62410  0.20600  Biso   1.000  H
  H37      1.0000 0.11470  0.64060  0.19160  Biso   1.000  H
  H38      1.0000 0.00170  0.71580  0.10390  Biso   1.000  H
  H39      1.0000 0.24450  0.56450  0.79930  Biso   1.000  H
  H40      1.0000 0.40190  0.54350  0.81460  Biso   1.000  H
  H41      1.0000 0.16750  0.00250  0.29580  Biso   1.000  H
  H42      1.0000 0.39440  0.03400  0.20790  Biso   1.000  H
  H43      1.0000 0.73070  0.09060  0.29960  Biso   1.000  H
  H44      1.0000 0.71510  0.20600  0.16990  Biso   1.000  H
  H45      1.0000 0.30630  0.19160  0.16780  Biso   1.000  H
  H46      1.0000 0.10560  0.10390  0.18030  Biso   1.000  H
  H47      1.0000 0.04380  0.79930  0.63620  Biso   1.000  H
  H48      1.0000 0.21650  0.81460  0.64190  Biso   1.000  H
  C1       1.0000 0.34443  0.65091  0.37992  Biso   1.000  C
  C2       1.0000 0.42430  0.70402  0.31762  Biso   1.000  C
  C3       1.0000 0.34071  0.75669  0.28356  Biso   1.000  C
  C4       1.0000 0.17218  0.64996  0.40762  Biso   1.000  C
  C5       1.0000 0.08568  0.70220  0.37256  Biso   1.000  C
  C6       1.0000 0.17080  0.75745  0.31105  Biso   1.000  C
  C7       1.0000 0.44481  0.59548  0.41335  Biso   1.000  C
  C8       1.0000 0.08180  0.59659  0.47659  Biso   1.000  C
  C9       1.0000 0.07361  0.81502  0.27349  Biso   1.000  C
  C10      1.0000 0.20592  0.88297  0.23161  Biso   1.000  C
  C11      1.0000 0.98610  0.80032  0.22432  Biso   1.000  C
  C12      1.0000 0.93602  0.82348  0.32152  Biso   1.000  C
  C13      1.0000 0.99712  0.83185  0.37159  Biso   1.000  C
  C14      1.0000 0.88608  0.84284  0.41570  Biso   1.000  C
  C15      1.0000 0.70721  0.84322  0.41179  Biso   1.000  C
  C16      1.0000 0.64542  0.83324  0.36218  Biso   1.000  C
  C17      1.0000 0.75806  0.82471  0.31753  Biso   1.000  C
  C18      1.0000 0.96758  0.85413  0.46629  Biso   1.000  C
  C19      1.0000 0.57206  0.85300  0.45682  Biso   1.000  C
  C20      1.0000 0.72435  0.37992  0.96917  Biso   1.000  C
  C21      1.0000 0.74192  0.31762  0.97836  Biso   1.000  C
  C22      1.0000 0.62427  0.28356  0.95975  Biso   1.000  C
  C23      1.0000 0.57980  0.40762  0.94242  Biso   1.000  C
  C24      1.0000 0.45824  0.37256  0.92524  Biso   1.000  C
  C25      1.0000 0.48185  0.31105  0.93150  Biso   1.000  C
  C26      1.0000 0.85816  0.41335  0.99117  Biso   1.000  C
  C27      1.0000 0.55839  0.47659  0.92682  Biso   1.000  C
  C28      1.0000 0.34710  0.27349  0.91149  Biso   1.000  C
  C29      1.0000 0.43753  0.23161  0.88542  Biso   1.000  C
  C30      1.0000 0.21042  0.22432  0.97536  Biso   1.000  C
  C31      1.0000 0.25754  0.32152  0.85500  Biso   1.000  C
  C32      1.0000 0.36871  0.37159  0.79656  Biso   1.000  C
  C33      1.0000 0.30178  0.41570  0.74146  Biso   1.000  C
  C34      1.0000 0.11900  0.41179  0.74499  Biso   1.000  C
  C35      1.0000 0.00760  0.36218  0.80458  Biso   1.000  C
  C36      1.0000 0.07559  0.31753  0.85776  Biso   1.000  C
  C37      1.0000 0.43387  0.46629  0.67958  Biso   1.000  C
  C38      1.0000 0.02888  0.45682  0.69018  Biso   1.000  C
  C39      1.0000 0.69352  0.96917  0.65091  Biso   1.000  C
  C40      1.0000 0.72028  0.97836  0.70402  Biso   1.000  C
  C41      1.0000 0.58402  0.95975  0.75669  Biso   1.000  C
  C42      1.0000 0.52222  0.94242  0.64996  Biso   1.000  C
  C43      1.0000 0.38348  0.92524  0.70220  Biso   1.000  C
  C44      1.0000 0.41335  0.93150  0.75745  Biso   1.000  C
  C45      1.0000 0.84933  0.99117  0.59548  Biso   1.000  C
  C46      1.0000 0.48521  0.92682  0.59659  Biso   1.000  C
  C47      1.0000 0.25859  0.91149  0.81502  Biso   1.000  C
  C48      1.0000 0.32295  0.88542  0.88297  Biso   1.000  C
  C49      1.0000 0.18578  0.97536  0.80032  Biso   1.000  C
  C50      1.0000 0.11254  0.85500  0.82348  Biso   1.000  C
  C51      1.0000 0.16527  0.79656  0.83185  Biso   1.000  C
  C52      1.0000 0.04324  0.74146  0.84284  Biso   1.000  C
  C53      1.0000 0.86399  0.74499  0.84322  Biso   1.000  C
  C54      1.0000 0.81218  0.80458  0.83324  Biso   1.000  C
  C55      1.0000 0.93335  0.85776  0.82471  Biso   1.000  C
  C56      1.0000 0.11345  0.67958  0.85413  Biso   1.000  C
  C57      1.0000 0.71906  0.69018  0.85300  Biso   1.000  C
  C58      1.0000 0.65557  0.34909  0.62008  Biso   1.000  C
  C59      1.0000 0.57570  0.29598  0.68238  Biso   1.000  C
  C60      1.0000 0.65929  0.24331  0.71644  Biso   1.000  C
  C61      1.0000 0.82782  0.35004  0.59238  Biso   1.000  C
  C62      1.0000 0.91432  0.29780  0.62744  Biso   1.000  C
  C63      1.0000 0.82920  0.24255  0.68895  Biso   1.000  C
  C64      1.0000 0.55519  0.40452  0.58665  Biso   1.000  C
  C65      1.0000 0.91820  0.40341  0.52341  Biso   1.000  C
  C66      1.0000 0.92639  0.18498  0.72651  Biso   1.000  C
  C67      1.0000 0.79408  0.11703  0.76839  Biso   1.000  C
  C68      1.0000 0.01390  0.19968  0.77568  Biso   1.000  C
  C69      1.0000 0.06398  0.17652  0.67848  Biso   1.000  C
  C70      1.0000 0.00288  0.16815  0.62841  Biso   1.000  C
  C71      1.0000 0.11392  0.15716  0.58430  Biso   1.000  C
  C72      1.0000 0.29279  0.15678  0.58821  Biso   1.000  C
  C73      1.0000 0.35458  0.16676  0.63782  Biso   1.000  C
  C74      1.0000 0.24194  0.17529  0.68247  Biso   1.000  C
  C75      1.0000 0.03242  0.14587  0.53371  Biso   1.000  C
  C76      1.0000 0.42794  0.14700  0.54318  Biso   1.000  C
  C77      1.0000 0.27565  0.62008  0.03083  Biso   1.000  C
  C78      1.0000 0.25808  0.68238  0.02164  Biso   1.000  C
  C79      1.0000 0.37573  0.71644  0.04025  Biso   1.000  C
  C80      1.0000 0.42020  0.59238  0.05758  Biso   1.000  C
  C81      1.0000 0.54176  0.62744  0.07476  Biso   1.000  C
  C82      1.0000 0.51815  0.68895  0.06850  Biso   1.000  C
  C83      1.0000 0.14184  0.58665  0.00883  Biso   1.000  C
  C84      1.0000 0.44161  0.52341  0.07318  Biso   1.000  C
  C85      1.0000 0.65290  0.72651  0.08851  Biso   1.000  C
  C86      1.0000 0.56247  0.76839  0.11458  Biso   1.000  C
  C87      1.0000 0.78958  0.77568  0.02464  Biso   1.000  C
  C88      1.0000 0.74246  0.67848  0.14500  Biso   1.000  C
  C89      1.0000 0.63129  0.62841  0.20344  Biso   1.000  C
  C90      1.0000 0.69822  0.58430  0.25854  Biso   1.000  C
  C91      1.0000 0.88100  0.58821  0.25501  Biso   1.000  C
  C92      1.0000 0.99240  0.63782  0.19542  Biso   1.000  C
  C93      1.0000 0.92441  0.68247  0.14224  Biso   1.000  C
  C94      1.0000 0.56613  0.53371  0.32042  Biso   1.000  C
  C95      1.0000 0.97112  0.54318  0.30982  Biso   1.000  C
  C96      1.0000 0.30648  0.03083  0.34909  Biso   1.000  C
  C97      1.0000 0.27972  0.02164  0.29598  Biso   1.000  C
  C98      1.0000 0.41598  0.04025  0.24331  Biso   1.000  C
  C99      1.0000 0.47778  0.05758  0.35004  Biso   1.000  C
  C100     1.0000 0.61652  0.07476  0.29780  Biso   1.000  C
  C101     1.0000 0.58665  0.06850  0.24255  Biso   1.000  C
  C102     1.0000 0.15067  0.00883  0.40452  Biso   1.000  C
  C103     1.0000 0.51479  0.07318  0.40341  Biso   1.000  C
  C104     1.0000 0.74141  0.08851  0.18498  Biso   1.000  C
  C105     1.0000 0.67705  0.11458  0.11703  Biso   1.000  C
  C106     1.0000 0.81422  0.02464  0.19968  Biso   1.000  C
  C107     1.0000 0.88746  0.14500  0.17652  Biso   1.000  C
  C108     1.0000 0.83473  0.20344  0.16815  Biso   1.000  C
  C109     1.0000 0.95676  0.25854  0.15716  Biso   1.000  C
  C110     1.0000 0.13601  0.25501  0.15678  Biso   1.000  C
  C111     1.0000 0.18782  0.19542  0.16676  Biso   1.000  C
  C112     1.0000 0.06665  0.14224  0.17529  Biso   1.000  C
  C113     1.0000 0.88655  0.32042  0.14587  Biso   1.000  C
  C114     1.0000 0.28094  0.30982  0.14700  Biso   1.000  C
  O1       1.0000 0.60883  0.61050  0.40221  Biso   1.000  O
  O2       1.0000 0.35875  0.53507  0.44912  Biso   1.000  O
  O3       1.0000 0.16462  0.58065  0.52359  Biso   1.000  O
  O4       1.0000 0.91994  0.57044  0.48572  Biso   1.000  O
  O5       1.0000 0.87199  0.86344  0.50737  Biso   1.000  O
  O6       1.0000 0.13009  0.85282  0.46405  Biso   1.000  O
  O7       1.0000 0.46410  0.80391  0.50181  Biso   1.000  O
  O8       1.0000 0.56289  0.91251  0.44394  Biso   1.000  O
  O9       1.0000 0.22622  0.37769  0.42293  Biso   1.000  O
  O10      1.0000 0.01104  0.40221  0.98729  Biso   1.000  O
  O11      1.0000 0.80787  0.44912  0.01581  Biso   1.000  O
  O12      1.0000 0.68821  0.52359  0.89576  Biso   1.000  O
  O13      1.0000 0.40566  0.48572  0.94384  Biso   1.000  O
  O14      1.0000 0.37936  0.50737  0.62919  Biso   1.000  O
  O15      1.0000 0.59414  0.46405  0.68313  Biso   1.000  O
  O16      1.0000 0.96591  0.50181  0.69428  Biso   1.000  O
  O17      1.0000 0.00683  0.44394  0.64355  Biso   1.000  O
  O18      1.0000 0.64915  0.42293  0.19938  Biso   1.000  O
  O19      1.0000 0.99833  0.98729  0.61050  Biso   1.000  O
  O20      1.0000 0.82368  0.01581  0.53507  Biso   1.000  O
  O21      1.0000 0.58397  0.89576  0.58065  Biso   1.000  O
  O22      1.0000 0.34950  0.94384  0.57044  Biso   1.000  O
  O23      1.0000 0.00855  0.62919  0.86344  Biso   1.000  O
  O24      1.0000 0.27727  0.68313  0.85282  Biso   1.000  O
  O25      1.0000 0.66019  0.69428  0.80391  Biso   1.000  O
  O26      1.0000 0.65038  0.64355  0.91251  Biso   1.000  O
  O27      1.0000 0.84853  0.19938  0.37769  Biso   1.000  O
  O28      1.0000 0.39117  0.38950  0.59779  Biso   1.000  O
  O29      1.0000 0.64125  0.46493  0.55088  Biso   1.000  O
  O30      1.0000 0.83538  0.41935  0.47641  Biso   1.000  O
  O31      1.0000 0.08006  0.42956  0.51428  Biso   1.000  O
  O32      1.0000 0.12801  0.13656  0.49263  Biso   1.000  O
  O33      1.0000 0.86991  0.14718  0.53595  Biso   1.000  O
  O34      1.0000 0.53590  0.19609  0.49819  Biso   1.000  O
  O35      1.0000 0.43711  0.08749  0.55606  Biso   1.000  O
  O36      1.0000 0.77378  0.62231  0.57707  Biso   1.000  O
  O37      1.0000 0.98896  0.59779  0.01271  Biso   1.000  O
  O38      1.0000 0.19213  0.55088  0.98419  Biso   1.000  O
  O39      1.0000 0.31179  0.47641  0.10424  Biso   1.000  O
  O40      1.0000 0.59434  0.51428  0.05616  Biso   1.000  O
  O41      1.0000 0.62064  0.49263  0.37081  Biso   1.000  O
  O42      1.0000 0.40586  0.53595  0.31687  Biso   1.000  O
  O43      1.0000 0.03409  0.49819  0.30572  Biso   1.000  O
  O44      1.0000 0.99317  0.55606  0.35645  Biso   1.000  O
  O45      1.0000 0.35085  0.57707  0.80062  Biso   1.000  O
  O46      1.0000 0.00167  0.01271  0.38950  Biso   1.000  O
  O47      1.0000 0.17632  0.98419  0.46493  Biso   1.000  O
  O48      1.0000 0.41603  0.10424  0.41935  Biso   1.000  O
  O49      1.0000 0.65050  0.05616  0.42956  Biso   1.000  O
  O50      1.0000 0.99145  0.37081  0.13656  Biso   1.000  O
  O51      1.0000 0.72273  0.31687  0.14718  Biso   1.000  O
  O52      1.0000 0.33981  0.30572  0.19609  Biso   1.000  O
  O53      1.0000 0.34962  0.35645  0.08749  Biso   1.000  O
  O54      1.0000 0.15147  0.80062  0.62231  Biso   1.000  O
  F1       1.0000 0.12281  0.93449  0.21236  Biso   1.000  F
  F2       1.0000 0.30162  0.89035  0.17659  Biso   1.000  F
  F3       1.0000 0.32087  0.89003  0.26822  Biso   1.000  F
  F4       1.0000 0.91136  0.85030  0.18382  Biso   1.000  F
  F5       1.0000 0.10066  0.78871  0.18553  Biso   1.000  F
  F6       1.0000 0.85877  0.74522  0.25781  Biso   1.000  F
  F7       1.0000 0.33517  0.21236  0.85315  Biso   1.000  F
  F8       1.0000 0.47821  0.17659  0.93306  Biso   1.000  F
  F9       1.0000 0.58909  0.26822  0.84175  Biso   1.000  F
  F10      1.0000 0.09518  0.18382  0.96588  Biso   1.000  F
  F11      1.0000 0.28619  0.18553  0.02576  Biso   1.000  F
  F12      1.0000 0.11658  0.25781  0.99697  Biso   1.000  F
  F13      1.0000 0.18832  0.85315  0.93449  Biso   1.000  F
  F14      1.0000 0.41127  0.93306  0.89035  Biso   1.000  F
  F15      1.0000 0.43084  0.84175  0.89003  Biso   1.000  F
  F16      1.0000 0.06106  0.96588  0.85030  Biso   1.000  F
  F17      1.0000 0.31195  0.02576  0.78871  Biso   1.000  F
  F18      1.0000 0.11355  0.99697  0.74522  Biso   1.000  F
  F19      1.0000 0.87719  0.06551  0.78764  Biso   1.000  F
  F20      1.0000 0.69838  0.10965  0.82341  Biso   1.000  F
  F21      1.0000 0.67913  0.10997  0.73178  Biso   1.000  F
  F22      1.0000 0.08864  0.14970  0.81618  Biso   1.000  F
  F23      1.0000 0.89934  0.21129  0.81447  Biso   1.000  F
  F24      1.0000 0.14123  0.25478  0.74219  Biso   1.000  F
  F25      1.0000 0.66483  0.78764  0.14685  Biso   1.000  F
  F26      1.0000 0.52179  0.82341  0.06694  Biso   1.000  F
  F27      1.0000 0.41091  0.73178  0.15825  Biso   1.000  F
  F28      1.0000 0.90482  0.81618  0.03412  Biso   1.000  F
  F29      1.0000 0.71381  0.81447  0.97424  Biso   1.000  F
  F30      1.0000 0.88342  0.74219  0.00303  Biso   1.000  F
  F31      1.0000 0.81168  0.14685  0.06551  Biso   1.000  F
  F32      1.0000 0.58873  0.06694  0.10965  Biso   1.000  F
  F33      1.0000 0.56916  0.15825  0.10997  Biso   1.000  F
  F34      1.0000 0.93894  0.03412  0.14970  Biso   1.000  F
  F35      1.0000 0.68805  0.97424  0.21129  Biso   1.000  F
  F36      1.0000 0.88645  0.00303  0.25478  Biso   1.000  F
