data_image0
_cell_length_a       18.794
_cell_length_b       18.794
_cell_length_c       19.9351
_cell_angle_alpha    61.8761
_cell_angle_beta     61.8761
_cell_angle_gamma    60

_symmetry_space_group_name_H-M    P 1
_symmetry_int_tables_number       1

loop_
  _symmetry_equiv_pos_as_xyz
  'x, y, z'

loop_
  _atom_site_label
  _atom_site_occupancy
  _atom_site_fract_x
  _atom_site_fract_y
  _atom_site_fract_z
  _atom_site_thermal_displace_type
  _atom_site_B_iso_or_equiv
  _atom_site_type_symbol
  Cu1      1.0000 0.06767  0.49914  0.93405  Biso   1.000  Cu
  Cu2      1.0000 0.49914  0.49914  0.93405  Biso   1.000  Cu
  Cu3      1.0000 0.49914  0.06767  0.93405  Biso   1.000  Cu
  Cu4      1.0000 0.93233  0.50086  0.06595  Biso   1.000  Cu
  Cu5      1.0000 0.50086  0.93233  0.06595  Biso   1.000  Cu
  Cu6      1.0000 0.50086  0.50086  0.06595  Biso   1.000  Cu
  H1       1.0000 0.97920  0.46780  0.79360  Biso   1.000  H
  H2       1.0000 0.04600  0.67790  0.68140  Biso   1.000  H
  H3       1.0000 0.26610  0.48930  0.67210  Biso   1.000  H
  H4       1.0000 0.46780  0.75940  0.79360  Biso   1.000  H
  H5       1.0000 0.67790  0.59470  0.68140  Biso   1.000  H
  H6       1.0000 0.48930  0.57250  0.67210  Biso   1.000  H
  H7       1.0000 0.75940  0.97920  0.79360  Biso   1.000  H
  H8       1.0000 0.59470  0.04600  0.68140  Biso   1.000  H
  H9       1.0000 0.57250  0.26610  0.67210  Biso   1.000  H
  H10      1.0000 0.02080  0.24060  0.20640  Biso   1.000  H
  H11      1.0000 0.95400  0.40530  0.31860  Biso   1.000  H
  H12      1.0000 0.73390  0.42750  0.32790  Biso   1.000  H
  H13      1.0000 0.53220  0.02080  0.20640  Biso   1.000  H
  H14      1.0000 0.32210  0.95400  0.31860  Biso   1.000  H
  H15      1.0000 0.51070  0.73390  0.32790  Biso   1.000  H
  H16      1.0000 0.24060  0.53220  0.20640  Biso   1.000  H
  H17      1.0000 0.40530  0.32210  0.31860  Biso   1.000  H
  H18      1.0000 0.42750  0.51070  0.32790  Biso   1.000  H
  H19      1.0000 0.02080  0.53220  0.20640  Biso   1.000  H
  H20      1.0000 0.95400  0.32210  0.31860  Biso   1.000  H
  H21      1.0000 0.73390  0.51070  0.32790  Biso   1.000  H
  H22      1.0000 0.53220  0.24060  0.20640  Biso   1.000  H
  H23      1.0000 0.32210  0.40530  0.31860  Biso   1.000  H
  H24      1.0000 0.51070  0.42750  0.32790  Biso   1.000  H
  H25      1.0000 0.24060  0.02080  0.20640  Biso   1.000  H
  H26      1.0000 0.40530  0.95400  0.31860  Biso   1.000  H
  H27      1.0000 0.42750  0.73390  0.32790  Biso   1.000  H
  H28      1.0000 0.97920  0.75940  0.79360  Biso   1.000  H
  H29      1.0000 0.04600  0.59470  0.68140  Biso   1.000  H
  H30      1.0000 0.26610  0.57250  0.67210  Biso   1.000  H
  H31      1.0000 0.46780  0.97920  0.79360  Biso   1.000  H
  H32      1.0000 0.67790  0.04600  0.68140  Biso   1.000  H
  H33      1.0000 0.48930  0.26610  0.67210  Biso   1.000  H
  H34      1.0000 0.75940  0.46780  0.79360  Biso   1.000  H
  H35      1.0000 0.59470  0.67790  0.68140  Biso   1.000  H
  H36      1.0000 0.57250  0.48930  0.67210  Biso   1.000  H
  H37      1.0000 0.76940  0.46630  0.99490  Biso   1.000  H
  H38      1.0000 0.46630  0.76940  0.99490  Biso   1.000  H
  H39      1.0000 0.76940  0.76940  0.99490  Biso   1.000  H
  H40      1.0000 0.23060  0.23060  0.00510  Biso   1.000  H
  H41      1.0000 0.53370  0.23060  0.00510  Biso   1.000  H
  H42      1.0000 0.23060  0.53370  0.00510  Biso   1.000  H
  H43      1.0000 0.12630  0.50000  0.50000  Biso   1.000  H
  H44      1.0000 0.50000  0.87370  0.50000  Biso   1.000  H
  H45      1.0000 0.87370  0.12630  0.50000  Biso   1.000  H
  H46      1.0000 0.87370  0.50000  0.50000  Biso   1.000  H
  H47      1.0000 0.50000  0.12630  0.50000  Biso   1.000  H
  H48      1.0000 0.12630  0.87370  0.50000  Biso   1.000  H
  H49      1.0000 0.08170  0.56250  0.79330  Biso   1.000  H
  H50      1.0000 0.10770  0.64175  0.60880  Biso   1.000  H
  H51      1.0000 0.25210  0.57405  0.59980  Biso   1.000  H
  H52      1.0000 0.56250  0.56250  0.79330  Biso   1.000  H
  H53      1.0000 0.64175  0.64175  0.60880  Biso   1.000  H
  H54      1.0000 0.57405  0.57405  0.59980  Biso   1.000  H
  H55      1.0000 0.56250  0.08170  0.79330  Biso   1.000  H
  H56      1.0000 0.64175  0.10770  0.60880  Biso   1.000  H
  H57      1.0000 0.57405  0.25210  0.59980  Biso   1.000  H
  H58      1.0000 0.91830  0.43750  0.20670  Biso   1.000  H
  H59      1.0000 0.89230  0.35825  0.39120  Biso   1.000  H
  H60      1.0000 0.74790  0.42595  0.40020  Biso   1.000  H
  H61      1.0000 0.43750  0.91830  0.20670  Biso   1.000  H
  H62      1.0000 0.35825  0.89230  0.39120  Biso   1.000  H
  H63      1.0000 0.42595  0.74790  0.40020  Biso   1.000  H
  H64      1.0000 0.43750  0.43750  0.20670  Biso   1.000  H
  H65      1.0000 0.35825  0.35825  0.39120  Biso   1.000  H
  H66      1.0000 0.42595  0.42595  0.40020  Biso   1.000  H
  C1       1.0000 0.87907  0.46787  0.89899  Biso   1.000  C
  C2       1.0000 0.92316  0.46756  0.81982  Biso   1.000  C
  C3       1.0000 0.92608  0.47398  0.93976  Biso   1.000  C
  C4       1.0000 0.99390  0.46360  0.65830  Biso   1.000  C
  C5       1.0000 0.00320  0.48040  0.56920  Biso   1.000  C
  C6       1.0000 0.46787  0.75407  0.89899  Biso   1.000  C
  C7       1.0000 0.46756  0.78946  0.81982  Biso   1.000  C
  C8       1.0000 0.47398  0.66018  0.93976  Biso   1.000  C
  C9       1.0000 0.46360  0.88420  0.65830  Biso   1.000  C
  C10      1.0000 0.48040  0.94720  0.56920  Biso   1.000  C
  C11      1.0000 0.75407  0.87907  0.89899  Biso   1.000  C
  C12      1.0000 0.78946  0.92316  0.81982  Biso   1.000  C
  C13      1.0000 0.66018  0.92608  0.93976  Biso   1.000  C
  C14      1.0000 0.88420  0.99390  0.65830  Biso   1.000  C
  C15      1.0000 0.94720  0.00320  0.56920  Biso   1.000  C
  C16      1.0000 0.12093  0.24593  0.10101  Biso   1.000  C
  C17      1.0000 0.07684  0.21054  0.18018  Biso   1.000  C
  C18      1.0000 0.07392  0.33982  0.06024  Biso   1.000  C
  C19      1.0000 0.00610  0.11580  0.34170  Biso   1.000  C
  C20      1.0000 0.99680  0.05280  0.43080  Biso   1.000  C
  C21      1.0000 0.53213  0.12093  0.10101  Biso   1.000  C
  C22      1.0000 0.53244  0.07684  0.18018  Biso   1.000  C
  C23      1.0000 0.52602  0.07392  0.06024  Biso   1.000  C
  C24      1.0000 0.53640  0.00610  0.34170  Biso   1.000  C
  C25      1.0000 0.51960  0.99680  0.43080  Biso   1.000  C
  C26      1.0000 0.24593  0.53213  0.10101  Biso   1.000  C
  C27      1.0000 0.21054  0.53244  0.18018  Biso   1.000  C
  C28      1.0000 0.33982  0.52602  0.06024  Biso   1.000  C
  C29      1.0000 0.11580  0.53640  0.34170  Biso   1.000  C
  C30      1.0000 0.05280  0.51960  0.43080  Biso   1.000  C
  C31      1.0000 0.12093  0.53213  0.10101  Biso   1.000  C
  C32      1.0000 0.07684  0.53244  0.18018  Biso   1.000  C
  C33      1.0000 0.07392  0.52602  0.06024  Biso   1.000  C
  C34      1.0000 0.00610  0.53640  0.34170  Biso   1.000  C
  C35      1.0000 0.99680  0.51960  0.43080  Biso   1.000  C
  C36      1.0000 0.53213  0.24593  0.10101  Biso   1.000  C
  C37      1.0000 0.53244  0.21054  0.18018  Biso   1.000  C
  C38      1.0000 0.52602  0.33982  0.06024  Biso   1.000  C
  C39      1.0000 0.53640  0.11580  0.34170  Biso   1.000  C
  C40      1.0000 0.51960  0.05280  0.43080  Biso   1.000  C
  C41      1.0000 0.24593  0.12093  0.10101  Biso   1.000  C
  C42      1.0000 0.21054  0.07684  0.18018  Biso   1.000  C
  C43      1.0000 0.33982  0.07392  0.06024  Biso   1.000  C
  C44      1.0000 0.11580  0.00610  0.34170  Biso   1.000  C
  C45      1.0000 0.05280  0.99680  0.43080  Biso   1.000  C
  C46      1.0000 0.87907  0.75407  0.89899  Biso   1.000  C
  C47      1.0000 0.92316  0.78946  0.81982  Biso   1.000  C
  C48      1.0000 0.92608  0.66018  0.93976  Biso   1.000  C
  C49      1.0000 0.99390  0.88420  0.65830  Biso   1.000  C
  C50      1.0000 0.00320  0.94720  0.56920  Biso   1.000  C
  C51      1.0000 0.46787  0.87907  0.89899  Biso   1.000  C
  C52      1.0000 0.46756  0.92316  0.81982  Biso   1.000  C
  C53      1.0000 0.47398  0.92608  0.93976  Biso   1.000  C
  C54      1.0000 0.46360  0.99390  0.65830  Biso   1.000  C
  C55      1.0000 0.48040  0.00320  0.56920  Biso   1.000  C
  C56      1.0000 0.75407  0.46787  0.89899  Biso   1.000  C
  C57      1.0000 0.78946  0.46756  0.81982  Biso   1.000  C
  C58      1.0000 0.66018  0.47398  0.93976  Biso   1.000  C
  C59      1.0000 0.88420  0.46360  0.65830  Biso   1.000  C
  C60      1.0000 0.94720  0.48040  0.56920  Biso   1.000  C
  C61      1.0000 0.79556  0.46726  0.94162  Biso   1.000  C
  C62      1.0000 0.87500  0.46720  0.78280  Biso   1.000  C
  C63      1.0000 0.46726  0.79556  0.94162  Biso   1.000  C
  C64      1.0000 0.46720  0.87500  0.78280  Biso   1.000  C
  C65      1.0000 0.79556  0.79556  0.94162  Biso   1.000  C
  C66      1.0000 0.87500  0.87500  0.78280  Biso   1.000  C
  C67      1.0000 0.20444  0.20444  0.05838  Biso   1.000  C
  C68      1.0000 0.12500  0.12500  0.21720  Biso   1.000  C
  C69      1.0000 0.53274  0.20444  0.05838  Biso   1.000  C
  C70      1.0000 0.53280  0.12500  0.21720  Biso   1.000  C
  C71      1.0000 0.20444  0.53274  0.05838  Biso   1.000  C
  C72      1.0000 0.12500  0.53280  0.21720  Biso   1.000  C
  C73      1.0000 0.07680  0.50000  0.50000  Biso   1.000  C
  C74      1.0000 0.50000  0.92320  0.50000  Biso   1.000  C
  C75      1.0000 0.92320  0.07680  0.50000  Biso   1.000  C
  C76      1.0000 0.92320  0.50000  0.50000  Biso   1.000  C
  C77      1.0000 0.50000  0.07680  0.50000  Biso   1.000  C
  C78      1.0000 0.07680  0.92320  0.50000  Biso   1.000  C
  C79      1.0000 0.14060  0.54685  0.76570  Biso   1.000  C
  C80      1.0000 0.08130  0.62645  0.66580  Biso   1.000  C
  C81      1.0000 0.24100  0.55110  0.65680  Biso   1.000  C
  C82      1.0000 0.54685  0.54685  0.76570  Biso   1.000  C
  C83      1.0000 0.62645  0.62645  0.66580  Biso   1.000  C
  C84      1.0000 0.55110  0.55110  0.65680  Biso   1.000  C
  C85      1.0000 0.54685  0.14060  0.76570  Biso   1.000  C
  C86      1.0000 0.62645  0.08130  0.66580  Biso   1.000  C
  C87      1.0000 0.55110  0.24100  0.65680  Biso   1.000  C
  C88      1.0000 0.85940  0.45315  0.23430  Biso   1.000  C
  C89      1.0000 0.91870  0.37355  0.33420  Biso   1.000  C
  C90      1.0000 0.75900  0.44890  0.34320  Biso   1.000  C
  C91      1.0000 0.45315  0.85940  0.23430  Biso   1.000  C
  C92      1.0000 0.37355  0.91870  0.33420  Biso   1.000  C
  C93      1.0000 0.44890  0.75900  0.34320  Biso   1.000  C
  C94      1.0000 0.45315  0.45315  0.23430  Biso   1.000  C
  C95      1.0000 0.37355  0.37355  0.33420  Biso   1.000  C
  C96      1.0000 0.44890  0.44890  0.34320  Biso   1.000  C
  N1       1.0000 0.91540  0.47730  0.69190  Biso   1.000  N
  N2       1.0000 0.47730  0.91540  0.69190  Biso   1.000  N
  N3       1.0000 0.91540  0.91540  0.69190  Biso   1.000  N
  N4       1.0000 0.08460  0.08460  0.30810  Biso   1.000  N
  N5       1.0000 0.52270  0.08460  0.30810  Biso   1.000  N
  N6       1.0000 0.08460  0.52270  0.30810  Biso   1.000  N
  N7       1.0000 0.14000  0.58000  0.70000  Biso   1.000  N
  N8       1.0000 0.58000  0.58000  0.70000  Biso   1.000  N
  N9       1.0000 0.58000  0.14000  0.70000  Biso   1.000  N
  N10      1.0000 0.86000  0.42000  0.30000  Biso   1.000  N
  N11      1.0000 0.42000  0.86000  0.30000  Biso   1.000  N
  N12      1.0000 0.42000  0.42000  0.30000  Biso   1.000  N
  O1       1.0000 0.00085  0.47765  0.89785  Biso   1.000  O
  O2       1.0000 0.88533  0.47913  0.01071  Biso   1.000  O
  O3       1.0000 0.05000  0.47000  0.67000  Biso   1.000  O
  O4       1.0000 0.47765  0.62365  0.89785  Biso   1.000  O
  O5       1.0000 0.47913  0.62483  0.01071  Biso   1.000  O
  O6       1.0000 0.47000  0.81000  0.67000  Biso   1.000  O
  O7       1.0000 0.62365  0.00085  0.89785  Biso   1.000  O
  O8       1.0000 0.62483  0.88533  0.01071  Biso   1.000  O
  O9       1.0000 0.81000  0.05000  0.67000  Biso   1.000  O
  O10      1.0000 0.99915  0.37635  0.10215  Biso   1.000  O
  O11      1.0000 0.11467  0.37517  0.98929  Biso   1.000  O
  O12      1.0000 0.95000  0.19000  0.33000  Biso   1.000  O
  O13      1.0000 0.52235  0.99915  0.10215  Biso   1.000  O
  O14      1.0000 0.52087  0.11467  0.98929  Biso   1.000  O
  O15      1.0000 0.53000  0.95000  0.33000  Biso   1.000  O
  O16      1.0000 0.37635  0.52235  0.10215  Biso   1.000  O
  O17      1.0000 0.37517  0.52087  0.98929  Biso   1.000  O
  O18      1.0000 0.19000  0.53000  0.33000  Biso   1.000  O
  O19      1.0000 0.99915  0.52235  0.10215  Biso   1.000  O
  O20      1.0000 0.11467  0.52087  0.98929  Biso   1.000  O
  O21      1.0000 0.95000  0.53000  0.33000  Biso   1.000  O
  O22      1.0000 0.52235  0.37635  0.10215  Biso   1.000  O
  O23      1.0000 0.52087  0.37517  0.98929  Biso   1.000  O
  O24      1.0000 0.53000  0.19000  0.33000  Biso   1.000  O
  O25      1.0000 0.37635  0.99915  0.10215  Biso   1.000  O
  O26      1.0000 0.37517  0.11467  0.98929  Biso   1.000  O
  O27      1.0000 0.19000  0.95000  0.33000  Biso   1.000  O
  O28      1.0000 0.00085  0.62365  0.89785  Biso   1.000  O
  O29      1.0000 0.88533  0.62483  0.01071  Biso   1.000  O
  O30      1.0000 0.05000  0.81000  0.67000  Biso   1.000  O
  O31      1.0000 0.47765  0.00085  0.89785  Biso   1.000  O
  O32      1.0000 0.47913  0.88533  0.01071  Biso   1.000  O
  O33      1.0000 0.47000  0.05000  0.67000  Biso   1.000  O
  O34      1.0000 0.62365  0.47765  0.89785  Biso   1.000  O
  O35      1.0000 0.62483  0.47913  0.01071  Biso   1.000  O
  O36      1.0000 0.81000  0.47000  0.67000  Biso   1.000  O
  O37      1.0000 0.17259  0.50219  0.82303  Biso   1.000  O
  O38      1.0000 0.50219  0.50219  0.82303  Biso   1.000  O
  O39      1.0000 0.50219  0.17259  0.82303  Biso   1.000  O
  O40      1.0000 0.82741  0.49781  0.17697  Biso   1.000  O
  O41      1.0000 0.49781  0.82741  0.17697  Biso   1.000  O
  O42      1.0000 0.49781  0.49781  0.17697  Biso   1.000  O
