data_image0
_cell_length_a       8.793
_cell_length_b       8.793
_cell_length_c       24.53
_cell_angle_alpha    90
_cell_angle_beta     90
_cell_angle_gamma    120

_symmetry_space_group_name_H-M    "P 1"
_symmetry_int_tables_number       1

loop_
  _symmetry_equiv_pos_as_xyz
  'x, y, z'

loop_
  _atom_site_label
  _atom_site_occupancy
  _atom_site_fract_x
  _atom_site_fract_y
  _atom_site_fract_z
  _atom_site_thermal_displace_type
  _atom_site_B_iso_or_equiv
  _atom_site_type_symbol
  O1       1.0000 0.56380  0.30600  0.72360  Biso   1.000  O
  O2       1.0000 0.91120  0.65800  0.78660  Biso   1.000  O
  O3       1.0000 0.74050  0.66020  0.71950  Biso   1.000  O
  O4       1.0000 0.76820  0.31670  0.78090  Biso   1.000  O
  C1       1.0000 0.70330  0.38270  0.75050  Biso   1.000  C
  C2       1.0000 0.78880  0.58410  0.75170  Biso   1.000  C
  O5       1.0000 0.69400  0.25780  0.05693  Biso   1.000  O
  O6       1.0000 0.34200  0.25320  0.11993  Biso   1.000  O
  O7       1.0000 0.33980  0.08030  0.05283  Biso   1.000  O
  O8       1.0000 0.68330  0.45150  0.11423  Biso   1.000  O
  C3       1.0000 0.61730  0.32060  0.08383  Biso   1.000  C
  C4       1.0000 0.41590  0.20470  0.08503  Biso   1.000  C
  O9       1.0000 0.74220  0.43620  0.39027  Biso   1.000  O
  O10      1.0000 0.74680  0.08880  0.45327  Biso   1.000  O
  O11      1.0000 0.91970  0.25950  0.38617  Biso   1.000  O
  O12      1.0000 0.54850  0.23180  0.44757  Biso   1.000  O
  C5       1.0000 0.67940  0.29670  0.41717  Biso   1.000  C
  C6       1.0000 0.79530  0.21120  0.41837  Biso   1.000  C
  O13      1.0000 0.43620  0.69400  0.72360  Biso   1.000  O
  O14      1.0000 0.08880  0.34200  0.78660  Biso   1.000  O
  O15      1.0000 0.25950  0.33980  0.71950  Biso   1.000  O
  O16      1.0000 0.23180  0.68330  0.78090  Biso   1.000  O
  C7       1.0000 0.29670  0.61730  0.75050  Biso   1.000  C
  C8       1.0000 0.21120  0.41590  0.75170  Biso   1.000  C
  O17      1.0000 0.30600  0.74220  0.05693  Biso   1.000  O
  O18      1.0000 0.65800  0.74680  0.11993  Biso   1.000  O
  O19      1.0000 0.66020  0.91970  0.05283  Biso   1.000  O
  O20      1.0000 0.31670  0.54850  0.11423  Biso   1.000  O
  C9       1.0000 0.38270  0.67940  0.08383  Biso   1.000  C
  C10      1.0000 0.58410  0.79530  0.08503  Biso   1.000  C
  O21      1.0000 0.25780  0.56380  0.39027  Biso   1.000  O
  O22      1.0000 0.25320  0.91120  0.45327  Biso   1.000  O
  O23      1.0000 0.08030  0.74050  0.38617  Biso   1.000  O
  O24      1.0000 0.45150  0.76820  0.44757  Biso   1.000  O
  C11      1.0000 0.32060  0.70330  0.41717  Biso   1.000  C
  C12      1.0000 0.20470  0.78880  0.41837  Biso   1.000  C
  O25      1.0000 0.30600  0.56380  0.60973  Biso   1.000  O
  O26      1.0000 0.65800  0.91120  0.54673  Biso   1.000  O
  O27      1.0000 0.66020  0.74050  0.61383  Biso   1.000  O
  O28      1.0000 0.31670  0.76820  0.55243  Biso   1.000  O
  C13      1.0000 0.38270  0.70330  0.58283  Biso   1.000  C
  C14      1.0000 0.58410  0.78880  0.58163  Biso   1.000  C
  O29      1.0000 0.25780  0.69400  0.27640  Biso   1.000  O
  O30      1.0000 0.25320  0.34200  0.21340  Biso   1.000  O
  O31      1.0000 0.08030  0.33980  0.28050  Biso   1.000  O
  O32      1.0000 0.45150  0.68330  0.21910  Biso   1.000  O
  C15      1.0000 0.32060  0.61730  0.24950  Biso   1.000  C
  C16      1.0000 0.20470  0.41590  0.24830  Biso   1.000  C
  O33      1.0000 0.43620  0.74220  0.94307  Biso   1.000  O
  O34      1.0000 0.08880  0.74680  0.88007  Biso   1.000  O
  O35      1.0000 0.25950  0.91970  0.94717  Biso   1.000  O
  O36      1.0000 0.23180  0.54850  0.88577  Biso   1.000  O
  C17      1.0000 0.29670  0.67940  0.91617  Biso   1.000  C
  C18      1.0000 0.21120  0.79530  0.91497  Biso   1.000  C
  O37      1.0000 0.69400  0.43620  0.60973  Biso   1.000  O
  O38      1.0000 0.34200  0.08880  0.54673  Biso   1.000  O
  O39      1.0000 0.33980  0.25950  0.61383  Biso   1.000  O
  O40      1.0000 0.68330  0.23180  0.55243  Biso   1.000  O
  C19      1.0000 0.61730  0.29670  0.58283  Biso   1.000  C
  C20      1.0000 0.41590  0.21120  0.58163  Biso   1.000  C
  O41      1.0000 0.74220  0.30600  0.27640  Biso   1.000  O
  O42      1.0000 0.74680  0.65800  0.21340  Biso   1.000  O
  O43      1.0000 0.91970  0.66020  0.28050  Biso   1.000  O
  O44      1.0000 0.54850  0.31670  0.21910  Biso   1.000  O
  C21      1.0000 0.67940  0.38270  0.24950  Biso   1.000  C
  C22      1.0000 0.79530  0.58410  0.24830  Biso   1.000  C
  O45      1.0000 0.56380  0.25780  0.94307  Biso   1.000  O
  O46      1.0000 0.91120  0.25320  0.88007  Biso   1.000  O
  O47      1.0000 0.74050  0.08030  0.94717  Biso   1.000  O
  O48      1.0000 0.76820  0.45150  0.88577  Biso   1.000  O
  C23      1.0000 0.70330  0.32060  0.91617  Biso   1.000  C
  C24      1.0000 0.78880  0.20470  0.91497  Biso   1.000  C
  Cd1      1.0000 0.50000  0.50000  0.66667  Biso   1.000  Cd
  Cd2      1.0000 0.50000  0.00000  0.00000  Biso   1.000  Cd
  Cd3      1.0000 0.00000  0.50000  0.33333  Biso   1.000  Cd
  Zr1      1.0000 0.00000  0.50000  0.83333  Biso   1.000  Zr
  Zr2      1.0000 0.50000  0.50000  0.16667  Biso   1.000  Zr
  Zr3      1.0000 0.50000  0.00000  0.50000  Biso   1.000  Zr
