data_image0
_cell_length_a       8.1387
_cell_length_b       18.4609
_cell_length_c       18.6553
_cell_angle_alpha    90
_cell_angle_beta     90
_cell_angle_gamma    90

_symmetry_space_group_name_H-M    P 1
_symmetry_int_tables_number       1

loop_
  _symmetry_equiv_pos_as_xyz
  'x, y, z'

loop_
  _atom_site_label
  _atom_site_occupancy
  _atom_site_fract_x
  _atom_site_fract_y
  _atom_site_fract_z
  _atom_site_thermal_displace_type
  _atom_site_B_iso_or_equiv
  _atom_site_type_symbol
  Cu1      1.0000 0.79067  0.93076  0.41436  Biso   1.000  Cu
  Cu2      1.0000 0.79067  0.56924  0.08564  Biso   1.000  Cu
  Cu3      1.0000 0.70933  0.06924  0.91436  Biso   1.000  Cu
  Cu4      1.0000 0.70933  0.43076  0.58564  Biso   1.000  Cu
  Cu5      1.0000 0.20933  0.06924  0.58564  Biso   1.000  Cu
  Cu6      1.0000 0.20933  0.43076  0.91436  Biso   1.000  Cu
  Cu7      1.0000 0.29067  0.93076  0.08564  Biso   1.000  Cu
  Cu8      1.0000 0.29067  0.56924  0.41436  Biso   1.000  Cu
  Cu9      1.0000 0.00000  0.50000  0.50000  Biso   1.000  Cu
  Cu10     1.0000 0.00000  0.00000  0.00000  Biso   1.000  Cu
  Cu11     1.0000 0.50000  0.50000  0.00000  Biso   1.000  Cu
  Cu12     1.0000 0.50000  0.00000  0.50000  Biso   1.000  Cu
  H1       1.0000 0.80580  0.71040  0.51670  Biso   1.000  H
  H2       1.0000 0.57700  0.63040  0.69030  Biso   1.000  H
  H3       1.0000 0.58320  0.84460  0.65550  Biso   1.000  H
  H4       1.0000 0.38950  0.70810  0.75650  Biso   1.000  H
  H5       1.0000 0.99500  0.44600  0.62900  Biso   1.000  H
  H6       1.0000 0.10000  0.95500  0.38100  Biso   1.000  H
  H7       1.0000 0.06500  0.94200  0.45920  Biso   1.000  H
  H8       1.0000 0.80580  0.78960  0.98330  Biso   1.000  H
  H9       1.0000 0.57700  0.86960  0.80970  Biso   1.000  H
  H10      1.0000 0.58320  0.65540  0.84450  Biso   1.000  H
  H11      1.0000 0.38950  0.79190  0.74350  Biso   1.000  H
  H12      1.0000 0.99500  0.05400  0.87100  Biso   1.000  H
  H13      1.0000 0.10000  0.54500  0.11900  Biso   1.000  H
  H14      1.0000 0.06500  0.55800  0.04080  Biso   1.000  H
  H15      1.0000 0.69420  0.28960  0.01670  Biso   1.000  H
  H16      1.0000 0.92300  0.36960  0.19030  Biso   1.000  H
  H17      1.0000 0.91680  0.15540  0.15550  Biso   1.000  H
  H18      1.0000 0.11050  0.29190  0.25650  Biso   1.000  H
  H19      1.0000 0.50500  0.55400  0.12900  Biso   1.000  H
  H20      1.0000 0.40000  0.04500  0.88100  Biso   1.000  H
  H21      1.0000 0.43500  0.05800  0.95920  Biso   1.000  H
  H22      1.0000 0.69420  0.21040  0.48330  Biso   1.000  H
  H23      1.0000 0.92300  0.13040  0.30970  Biso   1.000  H
  H24      1.0000 0.91680  0.34460  0.34450  Biso   1.000  H
  H25      1.0000 0.11050  0.20810  0.24350  Biso   1.000  H
  H26      1.0000 0.50500  0.94600  0.37100  Biso   1.000  H
  H27      1.0000 0.40000  0.45500  0.61900  Biso   1.000  H
  H28      1.0000 0.43500  0.44200  0.54080  Biso   1.000  H
  H29      1.0000 0.19420  0.28960  0.48330  Biso   1.000  H
  H30      1.0000 0.42300  0.36960  0.30970  Biso   1.000  H
  H31      1.0000 0.41680  0.15540  0.34450  Biso   1.000  H
  H32      1.0000 0.61050  0.29190  0.24350  Biso   1.000  H
  H33      1.0000 0.00500  0.55400  0.37100  Biso   1.000  H
  H34      1.0000 0.90000  0.04500  0.61900  Biso   1.000  H
  H35      1.0000 0.93500  0.05800  0.54080  Biso   1.000  H
  H36      1.0000 0.19420  0.21040  0.01670  Biso   1.000  H
  H37      1.0000 0.42300  0.13040  0.19030  Biso   1.000  H
  H38      1.0000 0.41680  0.34460  0.15550  Biso   1.000  H
  H39      1.0000 0.61050  0.20810  0.25650  Biso   1.000  H
  H40      1.0000 0.00500  0.94600  0.12900  Biso   1.000  H
  H41      1.0000 0.90000  0.45500  0.88100  Biso   1.000  H
  H42      1.0000 0.93500  0.44200  0.95920  Biso   1.000  H
  H43      1.0000 0.30580  0.71040  0.98330  Biso   1.000  H
  H44      1.0000 0.07700  0.63040  0.80970  Biso   1.000  H
  H45      1.0000 0.08320  0.84460  0.84450  Biso   1.000  H
  H46      1.0000 0.88950  0.70810  0.74350  Biso   1.000  H
  H47      1.0000 0.49500  0.44600  0.87100  Biso   1.000  H
  H48      1.0000 0.60000  0.95500  0.11900  Biso   1.000  H
  H49      1.0000 0.56500  0.94200  0.04080  Biso   1.000  H
  H50      1.0000 0.30580  0.78960  0.51670  Biso   1.000  H
  H51      1.0000 0.07700  0.86960  0.69030  Biso   1.000  H
  H52      1.0000 0.08320  0.65540  0.65550  Biso   1.000  H
  H53      1.0000 0.88950  0.79190  0.75650  Biso   1.000  H
  H54      1.0000 0.49500  0.05400  0.62900  Biso   1.000  H
  H55      1.0000 0.60000  0.54500  0.38100  Biso   1.000  H
  H56      1.0000 0.56500  0.55800  0.45920  Biso   1.000  H
  C1       1.0000 0.70110  0.78720  0.57847  Biso   1.000  C
  C2       1.0000 0.74580  0.71780  0.55850  Biso   1.000  C
  C3       1.0000 0.70100  0.65900  0.60070  Biso   1.000  C
  C4       1.0000 0.60830  0.66990  0.66259  Biso   1.000  C
  C5       1.0000 0.56240  0.73940  0.68306  Biso   1.000  C
  C6       1.0000 0.61090  0.79790  0.64140  Biso   1.000  C
  C7       1.0000 0.74560  0.85040  0.53200  Biso   1.000  C
  C8       1.0000 0.74980  0.58360  0.57980  Biso   1.000  C
  C9       1.0000 0.70110  0.71280  0.92153  Biso   1.000  C
  C10      1.0000 0.74580  0.78220  0.94150  Biso   1.000  C
  C11      1.0000 0.70100  0.84100  0.89930  Biso   1.000  C
  C12      1.0000 0.60830  0.83010  0.83741  Biso   1.000  C
  C13      1.0000 0.56240  0.76060  0.81694  Biso   1.000  C
  C14      1.0000 0.61090  0.70210  0.85860  Biso   1.000  C
  C15      1.0000 0.74560  0.64960  0.96800  Biso   1.000  C
  C16      1.0000 0.74980  0.91640  0.92020  Biso   1.000  C
  C17      1.0000 0.79890  0.21280  0.07847  Biso   1.000  C
  C18      1.0000 0.75420  0.28220  0.05850  Biso   1.000  C
  C19      1.0000 0.79900  0.34100  0.10070  Biso   1.000  C
  C20      1.0000 0.89170  0.33010  0.16259  Biso   1.000  C
  C21      1.0000 0.93760  0.26060  0.18306  Biso   1.000  C
  C22      1.0000 0.88910  0.20210  0.14140  Biso   1.000  C
  C23      1.0000 0.75440  0.14960  0.03200  Biso   1.000  C
  C24      1.0000 0.75020  0.41640  0.07980  Biso   1.000  C
  C25      1.0000 0.79890  0.28720  0.42153  Biso   1.000  C
  C26      1.0000 0.75420  0.21780  0.44150  Biso   1.000  C
  C27      1.0000 0.79900  0.15900  0.39930  Biso   1.000  C
  C28      1.0000 0.89170  0.16990  0.33741  Biso   1.000  C
  C29      1.0000 0.93760  0.23940  0.31694  Biso   1.000  C
  C30      1.0000 0.88910  0.29790  0.35860  Biso   1.000  C
  C31      1.0000 0.75440  0.35040  0.46800  Biso   1.000  C
  C32      1.0000 0.75020  0.08360  0.42020  Biso   1.000  C
  C33      1.0000 0.29890  0.21280  0.42153  Biso   1.000  C
  C34      1.0000 0.25420  0.28220  0.44150  Biso   1.000  C
  C35      1.0000 0.29900  0.34100  0.39930  Biso   1.000  C
  C36      1.0000 0.39170  0.33010  0.33741  Biso   1.000  C
  C37      1.0000 0.43760  0.26060  0.31694  Biso   1.000  C
  C38      1.0000 0.38910  0.20210  0.35860  Biso   1.000  C
  C39      1.0000 0.25440  0.14960  0.46800  Biso   1.000  C
  C40      1.0000 0.25020  0.41640  0.42020  Biso   1.000  C
  C41      1.0000 0.29890  0.28720  0.07847  Biso   1.000  C
  C42      1.0000 0.25420  0.21780  0.05850  Biso   1.000  C
  C43      1.0000 0.29900  0.15900  0.10070  Biso   1.000  C
  C44      1.0000 0.39170  0.16990  0.16259  Biso   1.000  C
  C45      1.0000 0.43760  0.23940  0.18306  Biso   1.000  C
  C46      1.0000 0.38910  0.29790  0.14140  Biso   1.000  C
  C47      1.0000 0.25440  0.35040  0.03200  Biso   1.000  C
  C48      1.0000 0.25020  0.08360  0.07980  Biso   1.000  C
  C49      1.0000 0.20110  0.78720  0.92153  Biso   1.000  C
  C50      1.0000 0.24580  0.71780  0.94150  Biso   1.000  C
  C51      1.0000 0.20100  0.65900  0.89930  Biso   1.000  C
  C52      1.0000 0.10830  0.66990  0.83741  Biso   1.000  C
  C53      1.0000 0.06240  0.73940  0.81694  Biso   1.000  C
  C54      1.0000 0.11090  0.79790  0.85860  Biso   1.000  C
  C55      1.0000 0.24560  0.85040  0.96800  Biso   1.000  C
  C56      1.0000 0.24980  0.58360  0.92020  Biso   1.000  C
  C57      1.0000 0.20110  0.71280  0.57847  Biso   1.000  C
  C58      1.0000 0.24580  0.78220  0.55850  Biso   1.000  C
  C59      1.0000 0.20100  0.84100  0.60070  Biso   1.000  C
  C60      1.0000 0.10830  0.83010  0.66259  Biso   1.000  C
  C61      1.0000 0.06240  0.76060  0.68306  Biso   1.000  C
  C62      1.0000 0.11090  0.70210  0.64140  Biso   1.000  C
  C63      1.0000 0.24560  0.64960  0.53200  Biso   1.000  C
  C64      1.0000 0.24980  0.91640  0.57980  Biso   1.000  C
  C65      1.0000 0.45980  0.75000  0.75000  Biso   1.000  C
  C66      1.0000 0.04020  0.25000  0.25000  Biso   1.000  C
  C67      1.0000 0.54020  0.25000  0.25000  Biso   1.000  C
  C68      1.0000 0.95980  0.75000  0.75000  Biso   1.000  C
  O1       1.0000 0.75250  0.91257  0.55707  Biso   1.000  O
  O2       1.0000 0.77270  0.83678  0.46543  Biso   1.000  O
  O3       1.0000 0.84870  0.57776  0.52771  Biso   1.000  O
  O4       1.0000 0.69220  0.53271  0.61523  Biso   1.000  O
  O5       1.0000 0.94670  0.44281  0.58315  Biso   1.000  O
  O6       1.0000 0.03620  0.92580  0.41230  Biso   1.000  O
  O7       1.0000 0.75250  0.58743  0.94293  Biso   1.000  O
  O8       1.0000 0.77270  0.66322  0.03457  Biso   1.000  O
  O9       1.0000 0.84870  0.92224  0.97229  Biso   1.000  O
  O10      1.0000 0.69220  0.96729  0.88477  Biso   1.000  O
  O11      1.0000 0.94670  0.05719  0.91685  Biso   1.000  O
  O12      1.0000 0.03620  0.57420  0.08770  Biso   1.000  O
  O13      1.0000 0.74750  0.08743  0.05707  Biso   1.000  O
  O14      1.0000 0.72730  0.16322  0.96543  Biso   1.000  O
  O15      1.0000 0.65130  0.42224  0.02771  Biso   1.000  O
  O16      1.0000 0.80780  0.46729  0.11523  Biso   1.000  O
  O17      1.0000 0.55330  0.55719  0.08315  Biso   1.000  O
  O18      1.0000 0.46380  0.07420  0.91230  Biso   1.000  O
  O19      1.0000 0.74750  0.41257  0.44293  Biso   1.000  O
  O20      1.0000 0.72730  0.33678  0.53457  Biso   1.000  O
  O21      1.0000 0.65130  0.07776  0.47229  Biso   1.000  O
  O22      1.0000 0.80780  0.03271  0.38477  Biso   1.000  O
  O23      1.0000 0.55330  0.94281  0.41685  Biso   1.000  O
  O24      1.0000 0.46380  0.42580  0.58770  Biso   1.000  O
  O25      1.0000 0.24750  0.08743  0.44293  Biso   1.000  O
  O26      1.0000 0.22730  0.16322  0.53457  Biso   1.000  O
  O27      1.0000 0.15130  0.42224  0.47229  Biso   1.000  O
  O28      1.0000 0.30780  0.46729  0.38477  Biso   1.000  O
  O29      1.0000 0.05330  0.55719  0.41685  Biso   1.000  O
  O30      1.0000 0.96380  0.07420  0.58770  Biso   1.000  O
  O31      1.0000 0.24750  0.41257  0.05707  Biso   1.000  O
  O32      1.0000 0.22730  0.33678  0.96543  Biso   1.000  O
  O33      1.0000 0.15130  0.07776  0.02771  Biso   1.000  O
  O34      1.0000 0.30780  0.03271  0.11523  Biso   1.000  O
  O35      1.0000 0.05330  0.94281  0.08315  Biso   1.000  O
  O36      1.0000 0.96380  0.42580  0.91230  Biso   1.000  O
  O37      1.0000 0.25250  0.91257  0.94293  Biso   1.000  O
  O38      1.0000 0.27270  0.83678  0.03457  Biso   1.000  O
  O39      1.0000 0.34870  0.57776  0.97229  Biso   1.000  O
  O40      1.0000 0.19220  0.53271  0.88477  Biso   1.000  O
  O41      1.0000 0.44670  0.44281  0.91685  Biso   1.000  O
  O42      1.0000 0.53620  0.92580  0.08770  Biso   1.000  O
  O43      1.0000 0.25250  0.58743  0.55707  Biso   1.000  O
  O44      1.0000 0.27270  0.66322  0.46543  Biso   1.000  O
  O45      1.0000 0.34870  0.92224  0.52771  Biso   1.000  O
  O46      1.0000 0.19220  0.96729  0.61523  Biso   1.000  O
  O47      1.0000 0.44670  0.05719  0.58315  Biso   1.000  O
  O48      1.0000 0.53620  0.57420  0.41230  Biso   1.000  O
