data_image0
_cell_length_a       16.1044
_cell_length_b       16.1044
_cell_length_c       27.919
_cell_angle_alpha    79.8987
_cell_angle_beta     79.8987
_cell_angle_gamma    63.146

_symmetry_space_group_name_H-M    P 1
_symmetry_int_tables_number       1

loop_
  _symmetry_equiv_pos_as_xyz
  'x, y, z'

loop_
  _atom_site_label
  _atom_site_occupancy
  _atom_site_fract_x
  _atom_site_fract_y
  _atom_site_fract_z
  _atom_site_thermal_displace_type
  _atom_site_B_iso_or_equiv
  _atom_site_type_symbol
  Eu1      1.0000 0.53134  0.06657  0.04609  Biso   1.000  Eu
  Eu2      1.0000 0.93343  0.46866  0.45391  Biso   1.000  Eu
  Eu3      1.0000 0.46866  0.93343  0.95391  Biso   1.000  Eu
  Eu4      1.0000 0.06657  0.53134  0.54609  Biso   1.000  Eu
  H1       1.0000 0.63320  0.06560  0.20330  Biso   1.000  H
  H2       1.0000 0.70740  0.10660  0.25360  Biso   1.000  H
  H3       1.0000 0.84180  0.19380  0.13350  Biso   1.000  H
  H4       1.0000 0.75940  0.16100  0.08560  Biso   1.000  H
  H5       1.0000 0.67510  0.17250  0.91020  Biso   1.000  H
  H6       1.0000 0.73850  0.23310  0.84130  Biso   1.000  H
  H7       1.0000 0.63290  0.13470  0.75740  Biso   1.000  H
  H8       1.0000 0.56950  0.06790  0.82920  Biso   1.000  H
  H9       1.0000 0.17590  0.21070  0.94440  Biso   1.000  H
  H10      1.0000 0.05090  0.35430  0.95690  Biso   1.000  H
  H11      1.0000 0.19280  0.41160  0.03960  Biso   1.000  H
  H12      1.0000 0.31790  0.26850  0.03100  Biso   1.000  H
  H13      1.0000 0.30630  0.34750  0.10880  Biso   1.000  H
  H14      1.0000 0.26920  0.32960  0.16350  Biso   1.000  H
  H15      1.0000 0.25350  0.28390  0.12290  Biso   1.000  H
  H16      1.0000 0.32790  0.16190  0.21330  Biso   1.000  H
  H17      1.0000 0.43130  0.13590  0.22080  Biso   1.000  H
  H18      1.0000 0.41020  0.07220  0.19310  Biso   1.000  H
  H19      1.0000 0.48970  0.41290  0.04420  Biso   1.000  H
  H20      1.0000 0.59910  0.35930  0.04160  Biso   1.000  H
  H21      1.0000 0.53660  0.32140  0.07940  Biso   1.000  H
  H22      1.0000 0.47420  0.34440  0.92830  Biso   1.000  H
  H23      1.0000 0.46500  0.42580  0.95580  Biso   1.000  H
  H24      1.0000 0.39740  0.37780  0.97280  Biso   1.000  H
  H25      1.0000 0.93440  0.36680  0.29670  Biso   1.000  H
  H26      1.0000 0.89340  0.29260  0.24640  Biso   1.000  H
  H27      1.0000 0.80620  0.15820  0.36650  Biso   1.000  H
  H28      1.0000 0.83900  0.24060  0.41440  Biso   1.000  H
  H29      1.0000 0.82750  0.32490  0.58980  Biso   1.000  H
  H30      1.0000 0.76690  0.26150  0.65870  Biso   1.000  H
  H31      1.0000 0.86530  0.36710  0.74260  Biso   1.000  H
  H32      1.0000 0.93210  0.43050  0.67080  Biso   1.000  H
  H33      1.0000 0.78930  0.82410  0.55560  Biso   1.000  H
  H34      1.0000 0.64570  0.94910  0.54310  Biso   1.000  H
  H35      1.0000 0.58840  0.80720  0.46040  Biso   1.000  H
  H36      1.0000 0.73150  0.68210  0.46900  Biso   1.000  H
  H37      1.0000 0.65250  0.69370  0.39120  Biso   1.000  H
  H38      1.0000 0.67040  0.73080  0.33650  Biso   1.000  H
  H39      1.0000 0.71610  0.74650  0.37710  Biso   1.000  H
  H40      1.0000 0.83810  0.67210  0.28670  Biso   1.000  H
  H41      1.0000 0.86410  0.56870  0.27920  Biso   1.000  H
  H42      1.0000 0.92780  0.58980  0.30690  Biso   1.000  H
  H43      1.0000 0.58710  0.51030  0.45580  Biso   1.000  H
  H44      1.0000 0.64070  0.40090  0.45840  Biso   1.000  H
  H45      1.0000 0.67860  0.46340  0.42060  Biso   1.000  H
  H46      1.0000 0.65560  0.52580  0.57170  Biso   1.000  H
  H47      1.0000 0.57420  0.53500  0.54420  Biso   1.000  H
  H48      1.0000 0.62220  0.60260  0.52720  Biso   1.000  H
  H49      1.0000 0.36680  0.93440  0.79670  Biso   1.000  H
  H50      1.0000 0.29260  0.89340  0.74640  Biso   1.000  H
  H51      1.0000 0.15820  0.80620  0.86650  Biso   1.000  H
  H52      1.0000 0.24060  0.83900  0.91440  Biso   1.000  H
  H53      1.0000 0.32490  0.82750  0.08980  Biso   1.000  H
  H54      1.0000 0.26150  0.76690  0.15870  Biso   1.000  H
  H55      1.0000 0.36710  0.86530  0.24260  Biso   1.000  H
  H56      1.0000 0.43050  0.93210  0.17080  Biso   1.000  H
  H57      1.0000 0.82410  0.78930  0.05560  Biso   1.000  H
  H58      1.0000 0.94910  0.64570  0.04310  Biso   1.000  H
  H59      1.0000 0.80720  0.58840  0.96040  Biso   1.000  H
  H60      1.0000 0.68210  0.73150  0.96900  Biso   1.000  H
  H61      1.0000 0.69370  0.65250  0.89120  Biso   1.000  H
  H62      1.0000 0.73080  0.67040  0.83650  Biso   1.000  H
  H63      1.0000 0.74650  0.71610  0.87710  Biso   1.000  H
  H64      1.0000 0.67210  0.83810  0.78670  Biso   1.000  H
  H65      1.0000 0.56870  0.86410  0.77920  Biso   1.000  H
  H66      1.0000 0.58980  0.92780  0.80690  Biso   1.000  H
  H67      1.0000 0.51030  0.58710  0.95580  Biso   1.000  H
  H68      1.0000 0.40090  0.64070  0.95840  Biso   1.000  H
  H69      1.0000 0.46340  0.67860  0.92060  Biso   1.000  H
  H70      1.0000 0.52580  0.65560  0.07170  Biso   1.000  H
  H71      1.0000 0.53500  0.57420  0.04420  Biso   1.000  H
  H72      1.0000 0.60260  0.62220  0.02720  Biso   1.000  H
  H73      1.0000 0.06560  0.63320  0.70330  Biso   1.000  H
  H74      1.0000 0.10660  0.70740  0.75360  Biso   1.000  H
  H75      1.0000 0.19380  0.84180  0.63350  Biso   1.000  H
  H76      1.0000 0.16100  0.75940  0.58560  Biso   1.000  H
  H77      1.0000 0.17250  0.67510  0.41020  Biso   1.000  H
  H78      1.0000 0.23310  0.73850  0.34130  Biso   1.000  H
  H79      1.0000 0.13470  0.63290  0.25740  Biso   1.000  H
  H80      1.0000 0.06790  0.56950  0.32920  Biso   1.000  H
  H81      1.0000 0.21070  0.17590  0.44440  Biso   1.000  H
  H82      1.0000 0.35430  0.05090  0.45690  Biso   1.000  H
  H83      1.0000 0.41160  0.19280  0.53960  Biso   1.000  H
  H84      1.0000 0.26850  0.31790  0.53100  Biso   1.000  H
  H85      1.0000 0.34750  0.30630  0.60880  Biso   1.000  H
  H86      1.0000 0.32960  0.26920  0.66350  Biso   1.000  H
  H87      1.0000 0.28390  0.25350  0.62290  Biso   1.000  H
  H88      1.0000 0.16190  0.32790  0.71330  Biso   1.000  H
  H89      1.0000 0.13590  0.43130  0.72080  Biso   1.000  H
  H90      1.0000 0.07220  0.41020  0.69310  Biso   1.000  H
  H91      1.0000 0.41290  0.48970  0.54420  Biso   1.000  H
  H92      1.0000 0.35930  0.59910  0.54160  Biso   1.000  H
  H93      1.0000 0.32140  0.53660  0.57940  Biso   1.000  H
  H94      1.0000 0.34440  0.47420  0.42830  Biso   1.000  H
  H95      1.0000 0.42580  0.46500  0.45580  Biso   1.000  H
  H96      1.0000 0.37780  0.39740  0.47280  Biso   1.000  H
  C1       1.0000 0.64531  0.07611  0.11000  Biso   1.000  C
  C2       1.0000 0.70513  0.09217  0.13885  Biso   1.000  C
  C3       1.0000 0.67801  0.08701  0.18987  Biso   1.000  C
  C4       1.0000 0.71990  0.11480  0.21970  Biso   1.000  C
  C5       1.0000 0.77995  0.15455  0.19899  Biso   1.000  C
  C6       1.0000 0.80024  0.16860  0.14748  Biso   1.000  C
  C7       1.0000 0.75568  0.14332  0.11917  Biso   1.000  C
  C8       1.0000 0.57842  0.07616  0.92317  Biso   1.000  C
  C9       1.0000 0.61811  0.11305  0.87701  Biso   1.000  C
  C10      1.0000 0.66732  0.16332  0.87958  Biso   1.000  C
  C11      1.0000 0.70502  0.20002  0.83870  Biso   1.000  C
  C12      1.0000 0.69283  0.18763  0.79534  Biso   1.000  C
  C13      1.0000 0.64155  0.14017  0.78854  Biso   1.000  C
  C14      1.0000 0.60327  0.10071  0.83152  Biso   1.000  C
  C15      1.0000 0.33559  0.12951  0.98095  Biso   1.000  C
  C16      1.0000 0.25944  0.22300  0.98745  Biso   1.000  C
  C17      1.0000 0.17918  0.24978  0.96412  Biso   1.000  C
  C18      1.0000 0.10525  0.33585  0.97145  Biso   1.000  C
  C19      1.0000 0.11007  0.39799  0.00114  Biso   1.000  C
  C20      1.0000 0.18881  0.37081  0.02126  Biso   1.000  C
  C21      1.0000 0.26448  0.28528  0.01608  Biso   1.000  C
  C22      1.0000 0.29578  0.30240  0.13329  Biso   1.000  C
  C23      1.0000 0.39183  0.13543  0.19895  Biso   1.000  C
  C24      1.0000 0.54199  0.35225  0.04714  Biso   1.000  C
  C25      1.0000 0.46000  0.36768  0.95961  Biso   1.000  C
  C26      1.0000 0.92389  0.35469  0.39000  Biso   1.000  C
  C27      1.0000 0.90783  0.29487  0.36115  Biso   1.000  C
  C28      1.0000 0.91299  0.32199  0.31013  Biso   1.000  C
  C29      1.0000 0.88520  0.28010  0.28030  Biso   1.000  C
  C30      1.0000 0.84545  0.22005  0.30101  Biso   1.000  C
  C31      1.0000 0.83140  0.19976  0.35252  Biso   1.000  C
  C32      1.0000 0.85668  0.24432  0.38083  Biso   1.000  C
  C33      1.0000 0.92384  0.42158  0.57683  Biso   1.000  C
  C34      1.0000 0.88695  0.38189  0.62299  Biso   1.000  C
  C35      1.0000 0.83668  0.33268  0.62042  Biso   1.000  C
  C36      1.0000 0.79998  0.29498  0.66130  Biso   1.000  C
  C37      1.0000 0.81237  0.30717  0.70466  Biso   1.000  C
  C38      1.0000 0.85983  0.35845  0.71146  Biso   1.000  C
  C39      1.0000 0.89929  0.39673  0.66848  Biso   1.000  C
  C40      1.0000 0.87049  0.66441  0.51905  Biso   1.000  C
  C41      1.0000 0.77700  0.74056  0.51255  Biso   1.000  C
  C42      1.0000 0.75022  0.82082  0.53588  Biso   1.000  C
  C43      1.0000 0.66415  0.89475  0.52855  Biso   1.000  C
  C44      1.0000 0.60201  0.88993  0.49886  Biso   1.000  C
  C45      1.0000 0.62919  0.81119  0.47874  Biso   1.000  C
  C46      1.0000 0.71472  0.73552  0.48392  Biso   1.000  C
  C47      1.0000 0.69760  0.70422  0.36671  Biso   1.000  C
  C48      1.0000 0.86457  0.60817  0.30105  Biso   1.000  C
  C49      1.0000 0.64775  0.45801  0.45286  Biso   1.000  C
  C50      1.0000 0.63232  0.54000  0.54039  Biso   1.000  C
  C51      1.0000 0.35469  0.92389  0.89000  Biso   1.000  C
  C52      1.0000 0.29487  0.90783  0.86115  Biso   1.000  C
  C53      1.0000 0.32199  0.91299  0.81013  Biso   1.000  C
  C54      1.0000 0.28010  0.88520  0.78030  Biso   1.000  C
  C55      1.0000 0.22005  0.84545  0.80101  Biso   1.000  C
  C56      1.0000 0.19976  0.83140  0.85252  Biso   1.000  C
  C57      1.0000 0.24432  0.85668  0.88083  Biso   1.000  C
  C58      1.0000 0.42158  0.92384  0.07683  Biso   1.000  C
  C59      1.0000 0.38189  0.88695  0.12299  Biso   1.000  C
  C60      1.0000 0.33268  0.83668  0.12042  Biso   1.000  C
  C61      1.0000 0.29498  0.79998  0.16130  Biso   1.000  C
  C62      1.0000 0.30717  0.81237  0.20466  Biso   1.000  C
  C63      1.0000 0.35845  0.85983  0.21146  Biso   1.000  C
  C64      1.0000 0.39673  0.89929  0.16848  Biso   1.000  C
  C65      1.0000 0.66441  0.87049  0.01905  Biso   1.000  C
  C66      1.0000 0.74056  0.77700  0.01255  Biso   1.000  C
  C67      1.0000 0.82082  0.75022  0.03588  Biso   1.000  C
  C68      1.0000 0.89475  0.66415  0.02855  Biso   1.000  C
  C69      1.0000 0.88993  0.60201  0.99886  Biso   1.000  C
  C70      1.0000 0.81119  0.62919  0.97874  Biso   1.000  C
  C71      1.0000 0.73552  0.71472  0.98392  Biso   1.000  C
  C72      1.0000 0.70422  0.69760  0.86671  Biso   1.000  C
  C73      1.0000 0.60817  0.86457  0.80105  Biso   1.000  C
  C74      1.0000 0.45801  0.64775  0.95286  Biso   1.000  C
  C75      1.0000 0.54000  0.63232  0.04039  Biso   1.000  C
  C76      1.0000 0.07611  0.64531  0.61000  Biso   1.000  C
  C77      1.0000 0.09217  0.70513  0.63885  Biso   1.000  C
  C78      1.0000 0.08701  0.67801  0.68987  Biso   1.000  C
  C79      1.0000 0.11480  0.71990  0.71970  Biso   1.000  C
  C80      1.0000 0.15455  0.77995  0.69899  Biso   1.000  C
  C81      1.0000 0.16860  0.80024  0.64748  Biso   1.000  C
  C82      1.0000 0.14332  0.75568  0.61917  Biso   1.000  C
  C83      1.0000 0.07616  0.57842  0.42317  Biso   1.000  C
  C84      1.0000 0.11305  0.61811  0.37701  Biso   1.000  C
  C85      1.0000 0.16332  0.66732  0.37958  Biso   1.000  C
  C86      1.0000 0.20002  0.70502  0.33870  Biso   1.000  C
  C87      1.0000 0.18763  0.69283  0.29534  Biso   1.000  C
  C88      1.0000 0.14017  0.64155  0.28854  Biso   1.000  C
  C89      1.0000 0.10071  0.60327  0.33152  Biso   1.000  C
  C90      1.0000 0.12951  0.33559  0.48095  Biso   1.000  C
  C91      1.0000 0.22300  0.25944  0.48745  Biso   1.000  C
  C92      1.0000 0.24978  0.17918  0.46412  Biso   1.000  C
  C93      1.0000 0.33585  0.10525  0.47145  Biso   1.000  C
  C94      1.0000 0.39799  0.11007  0.50114  Biso   1.000  C
  C95      1.0000 0.37081  0.18881  0.52126  Biso   1.000  C
  C96      1.0000 0.28528  0.26448  0.51608  Biso   1.000  C
  C97      1.0000 0.30240  0.29578  0.63329  Biso   1.000  C
  C98      1.0000 0.13543  0.39183  0.69895  Biso   1.000  C
  C99      1.0000 0.35225  0.54199  0.54714  Biso   1.000  C
  C100     1.0000 0.36768  0.46000  0.45961  Biso   1.000  C
  S1       1.0000 0.40303  0.20355  0.14196  Biso   1.000  S
  S2       1.0000 0.54294  0.28180  0.00149  Biso   1.000  S
  S3       1.0000 0.79645  0.59697  0.35804  Biso   1.000  S
  S4       1.0000 0.71820  0.45706  0.49851  Biso   1.000  S
  S5       1.0000 0.59697  0.79645  0.85804  Biso   1.000  S
  S6       1.0000 0.45706  0.71820  0.99851  Biso   1.000  S
  S7       1.0000 0.20355  0.40303  0.64196  Biso   1.000  S
  S8       1.0000 0.28180  0.54294  0.50149  Biso   1.000  S
  N1       1.0000 0.81996  0.19094  0.22532  Biso   1.000  N
  N2       1.0000 0.72372  0.22590  0.75093  Biso   1.000  N
  N3       1.0000 0.04436  0.48418  0.00520  Biso   1.000  N
  N4       1.0000 0.80906  0.18004  0.27468  Biso   1.000  N
  N5       1.0000 0.77410  0.27628  0.74907  Biso   1.000  N
  N6       1.0000 0.51582  0.95564  0.49480  Biso   1.000  N
  N7       1.0000 0.18004  0.80906  0.77468  Biso   1.000  N
  N8       1.0000 0.27628  0.77410  0.24907  Biso   1.000  N
  N9       1.0000 0.95564  0.51582  0.99480  Biso   1.000  N
  N10      1.0000 0.19094  0.81996  0.72532  Biso   1.000  N
  N11      1.0000 0.22590  0.72372  0.25093  Biso   1.000  N
  N12      1.0000 0.48418  0.04436  0.50520  Biso   1.000  N
  O1       1.0000 0.59076  0.04176  0.12591  Biso   1.000  O
  O2       1.0000 0.65647  0.10377  0.06337  Biso   1.000  O
  O3       1.0000 0.59233  0.08465  0.96484  Biso   1.000  O
  O4       1.0000 0.53102  0.03640  0.91389  Biso   1.000  O
  O5       1.0000 0.40294  0.10378  0.00293  Biso   1.000  O
  O6       1.0000 0.32488  0.07948  0.95382  Biso   1.000  O
  O7       1.0000 0.40416  0.14948  0.10243  Biso   1.000  O
  O8       1.0000 0.48719  0.23221  0.02646  Biso   1.000  O
  O9       1.0000 0.95824  0.40924  0.37409  Biso   1.000  O
  O10      1.0000 0.89623  0.34353  0.43663  Biso   1.000  O
  O11      1.0000 0.91535  0.40767  0.53516  Biso   1.000  O
  O12      1.0000 0.96360  0.46898  0.58611  Biso   1.000  O
  O13      1.0000 0.89622  0.59706  0.49707  Biso   1.000  O
  O14      1.0000 0.92052  0.67512  0.54618  Biso   1.000  O
  O15      1.0000 0.85052  0.59584  0.39757  Biso   1.000  O
  O16      1.0000 0.76779  0.51281  0.47354  Biso   1.000  O
  O17      1.0000 0.40924  0.95824  0.87409  Biso   1.000  O
  O18      1.0000 0.34353  0.89623  0.93663  Biso   1.000  O
  O19      1.0000 0.40767  0.91535  0.03516  Biso   1.000  O
  O20      1.0000 0.46898  0.96360  0.08611  Biso   1.000  O
  O21      1.0000 0.59706  0.89622  0.99707  Biso   1.000  O
  O22      1.0000 0.67512  0.92052  0.04618  Biso   1.000  O
  O23      1.0000 0.59584  0.85052  0.89757  Biso   1.000  O
  O24      1.0000 0.51281  0.76779  0.97354  Biso   1.000  O
  O25      1.0000 0.04176  0.59076  0.62591  Biso   1.000  O
  O26      1.0000 0.10377  0.65647  0.56337  Biso   1.000  O
  O27      1.0000 0.08465  0.59233  0.46484  Biso   1.000  O
  O28      1.0000 0.03640  0.53102  0.41389  Biso   1.000  O
  O29      1.0000 0.10378  0.40294  0.50293  Biso   1.000  O
  O30      1.0000 0.07948  0.32488  0.45382  Biso   1.000  O
  O31      1.0000 0.14948  0.40416  0.60243  Biso   1.000  O
  O32      1.0000 0.23221  0.48719  0.52646  Biso   1.000  O
