data_image0
_cell_length_a       16.1035
_cell_length_b       16.1035
_cell_length_c       28.128
_cell_angle_alpha    79.3908
_cell_angle_beta     79.3908
_cell_angle_gamma    63.1772

_symmetry_space_group_name_H-M    P 1
_symmetry_int_tables_number       1

loop_
  _symmetry_equiv_pos_as_xyz
  'x, y, z'

loop_
  _atom_site_label
  _atom_site_occupancy
  _atom_site_fract_x
  _atom_site_fract_y
  _atom_site_fract_z
  _atom_site_thermal_displace_type
  _atom_site_B_iso_or_equiv
  _atom_site_type_symbol
  Ce1      1.0000 0.53122  0.06662  0.04610  Biso   1.000  Ce
  Ce2      1.0000 0.93338  0.46878  0.45390  Biso   1.000  Ce
  Ce3      1.0000 0.46878  0.93338  0.95390  Biso   1.000  Ce
  Ce4      1.0000 0.06662  0.53122  0.54610  Biso   1.000  Ce
  H1       1.0000 0.63380  0.06440  0.20340  Biso   1.000  H
  H2       1.0000 0.70690  0.10570  0.25350  Biso   1.000  H
  H3       1.0000 0.84220  0.19380  0.13350  Biso   1.000  H
  H4       1.0000 0.76030  0.16110  0.08570  Biso   1.000  H
  H5       1.0000 0.32530  0.82770  0.09000  Biso   1.000  H
  H6       1.0000 0.26230  0.76570  0.15910  Biso   1.000  H
  H7       1.0000 0.36620  0.86600  0.24220  Biso   1.000  H
  H8       1.0000 0.43040  0.93140  0.17050  Biso   1.000  H
  H9       1.0000 0.82390  0.78830  0.05600  Biso   1.000  H
  H10      1.0000 0.94920  0.64640  0.04260  Biso   1.000  H
  H11      1.0000 0.80750  0.58850  0.96090  Biso   1.000  H
  H12      1.0000 0.68240  0.73220  0.96880  Biso   1.000  H
  H13      1.0000 0.30590  0.34850  0.10930  Biso   1.000  H
  H14      1.0000 0.26720  0.32840  0.16330  Biso   1.000  H
  H15      1.0000 0.25390  0.28370  0.12200  Biso   1.000  H
  H16      1.0000 0.32690  0.16150  0.21300  Biso   1.000  H
  H17      1.0000 0.42930  0.13810  0.22090  Biso   1.000  H
  H18      1.0000 0.41120  0.07220  0.19370  Biso   1.000  H
  H19      1.0000 0.49050  0.41350  0.04380  Biso   1.000  H
  H20      1.0000 0.59980  0.35840  0.04200  Biso   1.000  H
  H21      1.0000 0.53510  0.32190  0.07940  Biso   1.000  H
  H22      1.0000 0.47730  0.34610  0.92820  Biso   1.000  H
  H23      1.0000 0.46250  0.42690  0.95730  Biso   1.000  H
  H24      1.0000 0.39810  0.37450  0.97200  Biso   1.000  H
  H25      1.0000 0.93560  0.36620  0.29660  Biso   1.000  H
  H26      1.0000 0.89430  0.29310  0.24650  Biso   1.000  H
  H27      1.0000 0.80620  0.15780  0.36650  Biso   1.000  H
  H28      1.0000 0.83890  0.23970  0.41430  Biso   1.000  H
  H29      1.0000 0.17230  0.67470  0.41000  Biso   1.000  H
  H30      1.0000 0.23430  0.73770  0.34090  Biso   1.000  H
  H31      1.0000 0.13400  0.63380  0.25780  Biso   1.000  H
  H32      1.0000 0.06860  0.56960  0.32950  Biso   1.000  H
  H33      1.0000 0.21170  0.17610  0.44400  Biso   1.000  H
  H34      1.0000 0.35360  0.05080  0.45740  Biso   1.000  H
  H35      1.0000 0.41150  0.19250  0.53910  Biso   1.000  H
  H36      1.0000 0.26780  0.31760  0.53120  Biso   1.000  H
  H37      1.0000 0.65150  0.69410  0.39070  Biso   1.000  H
  H38      1.0000 0.67160  0.73280  0.33670  Biso   1.000  H
  H39      1.0000 0.71630  0.74610  0.37800  Biso   1.000  H
  H40      1.0000 0.83850  0.67310  0.28700  Biso   1.000  H
  H41      1.0000 0.86190  0.57070  0.27910  Biso   1.000  H
  H42      1.0000 0.92780  0.58880  0.30630  Biso   1.000  H
  H43      1.0000 0.58650  0.50950  0.45620  Biso   1.000  H
  H44      1.0000 0.64160  0.40020  0.45800  Biso   1.000  H
  H45      1.0000 0.67810  0.46490  0.42060  Biso   1.000  H
  H46      1.0000 0.65390  0.52270  0.57180  Biso   1.000  H
  H47      1.0000 0.57310  0.53750  0.54270  Biso   1.000  H
  H48      1.0000 0.62550  0.60190  0.52800  Biso   1.000  H
  H49      1.0000 0.36620  0.93560  0.79660  Biso   1.000  H
  H50      1.0000 0.29310  0.89430  0.74650  Biso   1.000  H
  H51      1.0000 0.15780  0.80620  0.86650  Biso   1.000  H
  H52      1.0000 0.23970  0.83890  0.91430  Biso   1.000  H
  H53      1.0000 0.67470  0.17230  0.91000  Biso   1.000  H
  H54      1.0000 0.73770  0.23430  0.84090  Biso   1.000  H
  H55      1.0000 0.63380  0.13400  0.75780  Biso   1.000  H
  H56      1.0000 0.56960  0.06860  0.82950  Biso   1.000  H
  H57      1.0000 0.17610  0.21170  0.94400  Biso   1.000  H
  H58      1.0000 0.05080  0.35360  0.95740  Biso   1.000  H
  H59      1.0000 0.19250  0.41150  0.03910  Biso   1.000  H
  H60      1.0000 0.31760  0.26780  0.03120  Biso   1.000  H
  H61      1.0000 0.69410  0.65150  0.89070  Biso   1.000  H
  H62      1.0000 0.73280  0.67160  0.83670  Biso   1.000  H
  H63      1.0000 0.74610  0.71630  0.87800  Biso   1.000  H
  H64      1.0000 0.67310  0.83850  0.78700  Biso   1.000  H
  H65      1.0000 0.57070  0.86190  0.77910  Biso   1.000  H
  H66      1.0000 0.58880  0.92780  0.80630  Biso   1.000  H
  H67      1.0000 0.50950  0.58650  0.95620  Biso   1.000  H
  H68      1.0000 0.40020  0.64160  0.95800  Biso   1.000  H
  H69      1.0000 0.46490  0.67810  0.92060  Biso   1.000  H
  H70      1.0000 0.52270  0.65390  0.07180  Biso   1.000  H
  H71      1.0000 0.53750  0.57310  0.04270  Biso   1.000  H
  H72      1.0000 0.60190  0.62550  0.02800  Biso   1.000  H
  H73      1.0000 0.06440  0.63380  0.70340  Biso   1.000  H
  H74      1.0000 0.10570  0.70690  0.75350  Biso   1.000  H
  H75      1.0000 0.19380  0.84220  0.63350  Biso   1.000  H
  H76      1.0000 0.16110  0.76030  0.58570  Biso   1.000  H
  H77      1.0000 0.82770  0.32530  0.59000  Biso   1.000  H
  H78      1.0000 0.76570  0.26230  0.65910  Biso   1.000  H
  H79      1.0000 0.86600  0.36620  0.74220  Biso   1.000  H
  H80      1.0000 0.93140  0.43040  0.67050  Biso   1.000  H
  H81      1.0000 0.78830  0.82390  0.55600  Biso   1.000  H
  H82      1.0000 0.64640  0.94920  0.54260  Biso   1.000  H
  H83      1.0000 0.58850  0.80750  0.46090  Biso   1.000  H
  H84      1.0000 0.73220  0.68240  0.46880  Biso   1.000  H
  H85      1.0000 0.34850  0.30590  0.60930  Biso   1.000  H
  H86      1.0000 0.32840  0.26720  0.66330  Biso   1.000  H
  H87      1.0000 0.28370  0.25390  0.62200  Biso   1.000  H
  H88      1.0000 0.16150  0.32690  0.71300  Biso   1.000  H
  H89      1.0000 0.13810  0.42930  0.72090  Biso   1.000  H
  H90      1.0000 0.07220  0.41120  0.69370  Biso   1.000  H
  H91      1.0000 0.41350  0.49050  0.54380  Biso   1.000  H
  H92      1.0000 0.35840  0.59980  0.54200  Biso   1.000  H
  H93      1.0000 0.32190  0.53510  0.57940  Biso   1.000  H
  H94      1.0000 0.34610  0.47730  0.42820  Biso   1.000  H
  H95      1.0000 0.42690  0.46250  0.45730  Biso   1.000  H
  H96      1.0000 0.37450  0.39810  0.47200  Biso   1.000  H
  C1       1.0000 0.64537  0.07657  0.10996  Biso   1.000  C
  C2       1.0000 0.70470  0.09290  0.13889  Biso   1.000  C
  C3       1.0000 0.67819  0.08659  0.18993  Biso   1.000  C
  C4       1.0000 0.71977  0.11437  0.21978  Biso   1.000  C
  C5       1.0000 0.78000  0.15460  0.19905  Biso   1.000  C
  C6       1.0000 0.80038  0.16858  0.14755  Biso   1.000  C
  C7       1.0000 0.75586  0.14346  0.11917  Biso   1.000  C
  C8       1.0000 0.42105  0.92385  0.07698  Biso   1.000  C
  C9       1.0000 0.38140  0.88680  0.12306  Biso   1.000  C
  C10      1.0000 0.33281  0.83661  0.12041  Biso   1.000  C
  C11      1.0000 0.29532  0.79932  0.16129  Biso   1.000  C
  C12      1.0000 0.30756  0.81276  0.20473  Biso   1.000  C
  C13      1.0000 0.35806  0.86006  0.21131  Biso   1.000  C
  C14      1.0000 0.39623  0.89883  0.16853  Biso   1.000  C
  C15      1.0000 0.66490  0.87070  0.01912  Biso   1.000  C
  C16      1.0000 0.74092  0.77732  0.01256  Biso   1.000  C
  C17      1.0000 0.82112  0.74972  0.03603  Biso   1.000  C
  C18      1.0000 0.89479  0.66459  0.02854  Biso   1.000  C
  C19      1.0000 0.88958  0.60218  0.99911  Biso   1.000  C
  C20      1.0000 0.81128  0.62928  0.97901  Biso   1.000  C
  C21      1.0000 0.73562  0.71502  0.98379  Biso   1.000  C
  C22      1.0000 0.29513  0.30233  0.13314  Biso   1.000  C
  C23      1.0000 0.39121  0.13601  0.19902  Biso   1.000  C
  C24      1.0000 0.54200  0.35240  0.04719  Biso   1.000  C
  C25      1.0000 0.46034  0.36754  0.95978  Biso   1.000  C
  C26      1.0000 0.92343  0.35463  0.39004  Biso   1.000  C
  C27      1.0000 0.90710  0.29530  0.36111  Biso   1.000  C
  C28      1.0000 0.91341  0.32181  0.31007  Biso   1.000  C
  C29      1.0000 0.88563  0.28023  0.28022  Biso   1.000  C
  C30      1.0000 0.84540  0.22000  0.30095  Biso   1.000  C
  C31      1.0000 0.83142  0.19962  0.35245  Biso   1.000  C
  C32      1.0000 0.85654  0.24414  0.38083  Biso   1.000  C
  C33      1.0000 0.07615  0.57895  0.42302  Biso   1.000  C
  C34      1.0000 0.11320  0.61860  0.37694  Biso   1.000  C
  C35      1.0000 0.16339  0.66719  0.37959  Biso   1.000  C
  C36      1.0000 0.20068  0.70468  0.33871  Biso   1.000  C
  C37      1.0000 0.18724  0.69244  0.29527  Biso   1.000  C
  C38      1.0000 0.13994  0.64194  0.28869  Biso   1.000  C
  C39      1.0000 0.10117  0.60377  0.33147  Biso   1.000  C
  C40      1.0000 0.12930  0.33510  0.48088  Biso   1.000  C
  C41      1.0000 0.22268  0.25908  0.48744  Biso   1.000  C
  C42      1.0000 0.25028  0.17888  0.46397  Biso   1.000  C
  C43      1.0000 0.33541  0.10521  0.47146  Biso   1.000  C
  C44      1.0000 0.39782  0.11042  0.50089  Biso   1.000  C
  C45      1.0000 0.37072  0.18872  0.52099  Biso   1.000  C
  C46      1.0000 0.28498  0.26438  0.51621  Biso   1.000  C
  C47      1.0000 0.69767  0.70487  0.36686  Biso   1.000  C
  C48      1.0000 0.86399  0.60879  0.30098  Biso   1.000  C
  C49      1.0000 0.64760  0.45800  0.45281  Biso   1.000  C
  C50      1.0000 0.63246  0.53966  0.54022  Biso   1.000  C
  C51      1.0000 0.35463  0.92343  0.89004  Biso   1.000  C
  C52      1.0000 0.29530  0.90710  0.86111  Biso   1.000  C
  C53      1.0000 0.32181  0.91341  0.81007  Biso   1.000  C
  C54      1.0000 0.28023  0.88563  0.78022  Biso   1.000  C
  C55      1.0000 0.22000  0.84540  0.80095  Biso   1.000  C
  C56      1.0000 0.19962  0.83142  0.85245  Biso   1.000  C
  C57      1.0000 0.24414  0.85654  0.88083  Biso   1.000  C
  C58      1.0000 0.57895  0.07615  0.92302  Biso   1.000  C
  C59      1.0000 0.61860  0.11320  0.87694  Biso   1.000  C
  C60      1.0000 0.66719  0.16339  0.87959  Biso   1.000  C
  C61      1.0000 0.70468  0.20068  0.83871  Biso   1.000  C
  C62      1.0000 0.69244  0.18724  0.79527  Biso   1.000  C
  C63      1.0000 0.64194  0.13994  0.78869  Biso   1.000  C
  C64      1.0000 0.60377  0.10117  0.83147  Biso   1.000  C
  C65      1.0000 0.33510  0.12930  0.98088  Biso   1.000  C
  C66      1.0000 0.25908  0.22268  0.98744  Biso   1.000  C
  C67      1.0000 0.17888  0.25028  0.96397  Biso   1.000  C
  C68      1.0000 0.10521  0.33541  0.97146  Biso   1.000  C
  C69      1.0000 0.11042  0.39782  0.00089  Biso   1.000  C
  C70      1.0000 0.18872  0.37072  0.02099  Biso   1.000  C
  C71      1.0000 0.26438  0.28498  0.01621  Biso   1.000  C
  C72      1.0000 0.70487  0.69767  0.86686  Biso   1.000  C
  C73      1.0000 0.60879  0.86399  0.80098  Biso   1.000  C
  C74      1.0000 0.45800  0.64760  0.95281  Biso   1.000  C
  C75      1.0000 0.53966  0.63246  0.04022  Biso   1.000  C
  C76      1.0000 0.07657  0.64537  0.60996  Biso   1.000  C
  C77      1.0000 0.09290  0.70470  0.63889  Biso   1.000  C
  C78      1.0000 0.08659  0.67819  0.68993  Biso   1.000  C
  C79      1.0000 0.11437  0.71977  0.71978  Biso   1.000  C
  C80      1.0000 0.15460  0.78000  0.69905  Biso   1.000  C
  C81      1.0000 0.16858  0.80038  0.64755  Biso   1.000  C
  C82      1.0000 0.14346  0.75586  0.61917  Biso   1.000  C
  C83      1.0000 0.92385  0.42105  0.57698  Biso   1.000  C
  C84      1.0000 0.88680  0.38140  0.62306  Biso   1.000  C
  C85      1.0000 0.83661  0.33281  0.62041  Biso   1.000  C
  C86      1.0000 0.79932  0.29532  0.66129  Biso   1.000  C
  C87      1.0000 0.81276  0.30756  0.70473  Biso   1.000  C
  C88      1.0000 0.86006  0.35806  0.71131  Biso   1.000  C
  C89      1.0000 0.89883  0.39623  0.66853  Biso   1.000  C
  C90      1.0000 0.87070  0.66490  0.51912  Biso   1.000  C
  C91      1.0000 0.77732  0.74092  0.51256  Biso   1.000  C
  C92      1.0000 0.74972  0.82112  0.53603  Biso   1.000  C
  C93      1.0000 0.66459  0.89479  0.52854  Biso   1.000  C
  C94      1.0000 0.60218  0.88958  0.49911  Biso   1.000  C
  C95      1.0000 0.62928  0.81128  0.47901  Biso   1.000  C
  C96      1.0000 0.71502  0.73562  0.48379  Biso   1.000  C
  C97      1.0000 0.30233  0.29513  0.63314  Biso   1.000  C
  C98      1.0000 0.13601  0.39121  0.69902  Biso   1.000  C
  C99      1.0000 0.35240  0.54200  0.54719  Biso   1.000  C
  C100     1.0000 0.36754  0.46034  0.45978  Biso   1.000  C
  S1       1.0000 0.40294  0.20360  0.14198  Biso   1.000  S
  S2       1.0000 0.54294  0.28182  0.00148  Biso   1.000  S
  S3       1.0000 0.79640  0.59706  0.35802  Biso   1.000  S
  S4       1.0000 0.71818  0.45706  0.49852  Biso   1.000  S
  S5       1.0000 0.59706  0.79640  0.85802  Biso   1.000  S
  S6       1.0000 0.45706  0.71818  0.99852  Biso   1.000  S
  S7       1.0000 0.20360  0.40294  0.64198  Biso   1.000  S
  S8       1.0000 0.28182  0.54294  0.50148  Biso   1.000  S
  N1       1.0000 0.82003  0.19043  0.22509  Biso   1.000  N
  N2       1.0000 0.27596  0.77396  0.24918  Biso   1.000  N
  N3       1.0000 0.95558  0.51536  0.99474  Biso   1.000  N
  N4       1.0000 0.80957  0.17997  0.27491  Biso   1.000  N
  N5       1.0000 0.22604  0.72404  0.25082  Biso   1.000  N
  N6       1.0000 0.48464  0.04442  0.50526  Biso   1.000  N
  N7       1.0000 0.17997  0.80957  0.77491  Biso   1.000  N
  N8       1.0000 0.72404  0.22604  0.75082  Biso   1.000  N
  N9       1.0000 0.04442  0.48464  0.00526  Biso   1.000  N
  N10      1.0000 0.19043  0.82003  0.72509  Biso   1.000  N
  N11      1.0000 0.77396  0.27596  0.74918  Biso   1.000  N
  N12      1.0000 0.51536  0.95558  0.49474  Biso   1.000  N
  O1       1.0000 0.59068  0.04176  0.12603  Biso   1.000  O
  O2       1.0000 0.65646  0.10362  0.06344  Biso   1.000  O
  O3       1.0000 0.40755  0.91535  0.03519  Biso   1.000  O
  O4       1.0000 0.46928  0.96352  0.08620  Biso   1.000  O
  O5       1.0000 0.59706  0.89650  0.99714  Biso   1.000  O
  O6       1.0000 0.67496  0.92064  0.04606  Biso   1.000  O
  O7       1.0000 0.40415  0.14961  0.10245  Biso   1.000  O
  O8       1.0000 0.48701  0.23253  0.02634  Biso   1.000  O
  O9       1.0000 0.95824  0.40932  0.37397  Biso   1.000  O
  O10      1.0000 0.89638  0.34354  0.43656  Biso   1.000  O
  O11      1.0000 0.08465  0.59245  0.46481  Biso   1.000  O
  O12      1.0000 0.03648  0.53072  0.41380  Biso   1.000  O
  O13      1.0000 0.10350  0.40294  0.50286  Biso   1.000  O
  O14      1.0000 0.07936  0.32504  0.45394  Biso   1.000  O
  O15      1.0000 0.85039  0.59585  0.39755  Biso   1.000  O
  O16      1.0000 0.76747  0.51299  0.47366  Biso   1.000  O
  O17      1.0000 0.40932  0.95824  0.87397  Biso   1.000  O
  O18      1.0000 0.34354  0.89638  0.93656  Biso   1.000  O
  O19      1.0000 0.59245  0.08465  0.96481  Biso   1.000  O
  O20      1.0000 0.53072  0.03648  0.91380  Biso   1.000  O
  O21      1.0000 0.40294  0.10350  0.00286  Biso   1.000  O
  O22      1.0000 0.32504  0.07936  0.95394  Biso   1.000  O
  O23      1.0000 0.59585  0.85039  0.89755  Biso   1.000  O
  O24      1.0000 0.51299  0.76747  0.97366  Biso   1.000  O
  O25      1.0000 0.04176  0.59068  0.62603  Biso   1.000  O
  O26      1.0000 0.10362  0.65646  0.56344  Biso   1.000  O
  O27      1.0000 0.91535  0.40755  0.53519  Biso   1.000  O
  O28      1.0000 0.96352  0.46928  0.58620  Biso   1.000  O
  O29      1.0000 0.89650  0.59706  0.49714  Biso   1.000  O
  O30      1.0000 0.92064  0.67496  0.54606  Biso   1.000  O
  O31      1.0000 0.14961  0.40415  0.60245  Biso   1.000  O
  O32      1.0000 0.23253  0.48701  0.52634  Biso   1.000  O
