data_image0
_cell_length_a       16.1086
_cell_length_b       16.1086
_cell_length_c       27.9632
_cell_angle_alpha    79.9799
_cell_angle_beta     79.9799
_cell_angle_gamma    63.0188

_symmetry_space_group_name_H-M    P 1
_symmetry_int_tables_number       1

loop_
  _symmetry_equiv_pos_as_xyz
  'x, y, z'

loop_
  _atom_site_label
  _atom_site_occupancy
  _atom_site_fract_x
  _atom_site_fract_y
  _atom_site_fract_z
  _atom_site_thermal_displace_type
  _atom_site_B_iso_or_equiv
  _atom_site_type_symbol
  Sm1      1.0000 0.53125  0.06657  0.04610  Biso   1.000  Sm
  Sm2      1.0000 0.93343  0.46875  0.45390  Biso   1.000  Sm
  Sm3      1.0000 0.46875  0.93343  0.95390  Biso   1.000  Sm
  Sm4      1.0000 0.06657  0.53125  0.54610  Biso   1.000  Sm
  H1       1.0000 0.63320  0.06500  0.20280  Biso   1.000  H
  H2       1.0000 0.70760  0.10620  0.25370  Biso   1.000  H
  H3       1.0000 0.84060  0.19500  0.13370  Biso   1.000  H
  H4       1.0000 0.75990  0.16010  0.08550  Biso   1.000  H
  H5       1.0000 0.32570  0.82710  0.09000  Biso   1.000  H
  H6       1.0000 0.26120  0.76760  0.15830  Biso   1.000  H
  H7       1.0000 0.36760  0.86500  0.24240  Biso   1.000  H
  H8       1.0000 0.42910  0.93370  0.17070  Biso   1.000  H
  H9       1.0000 0.82330  0.78910  0.05610  Biso   1.000  H
  H10      1.0000 0.94970  0.64650  0.04280  Biso   1.000  H
  H11      1.0000 0.80640  0.58800  0.96110  Biso   1.000  H
  H12      1.0000 0.68200  0.73220  0.96890  Biso   1.000  H
  H13      1.0000 0.30520  0.34740  0.10900  Biso   1.000  H
  H14      1.0000 0.26940  0.32980  0.16380  Biso   1.000  H
  H15      1.0000 0.25270  0.28370  0.12370  Biso   1.000  H
  H16      1.0000 0.32740  0.16280  0.21380  Biso   1.000  H
  H17      1.0000 0.43130  0.13570  0.22110  Biso   1.000  H
  H18      1.0000 0.40900  0.07240  0.19370  Biso   1.000  H
  H19      1.0000 0.49010  0.41410  0.04310  Biso   1.000  H
  H20      1.0000 0.59920  0.35780  0.04260  Biso   1.000  H
  H21      1.0000 0.53310  0.32310  0.07930  Biso   1.000  H
  H22      1.0000 0.47560  0.34460  0.92830  Biso   1.000  H
  H23      1.0000 0.46390  0.42590  0.95650  Biso   1.000  H
  H24      1.0000 0.39780  0.37620  0.97240  Biso   1.000  H
  H25      1.0000 0.93500  0.36680  0.29720  Biso   1.000  H
  H26      1.0000 0.89380  0.29240  0.24630  Biso   1.000  H
  H27      1.0000 0.80500  0.15940  0.36630  Biso   1.000  H
  H28      1.0000 0.83990  0.24010  0.41450  Biso   1.000  H
  H29      1.0000 0.17290  0.67430  0.41000  Biso   1.000  H
  H30      1.0000 0.23240  0.73880  0.34170  Biso   1.000  H
  H31      1.0000 0.13500  0.63240  0.25760  Biso   1.000  H
  H32      1.0000 0.06630  0.57090  0.32930  Biso   1.000  H
  H33      1.0000 0.21090  0.17670  0.44390  Biso   1.000  H
  H34      1.0000 0.35350  0.05030  0.45720  Biso   1.000  H
  H35      1.0000 0.41200  0.19360  0.53890  Biso   1.000  H
  H36      1.0000 0.26780  0.31800  0.53110  Biso   1.000  H
  H37      1.0000 0.65260  0.69480  0.39100  Biso   1.000  H
  H38      1.0000 0.67020  0.73060  0.33620  Biso   1.000  H
  H39      1.0000 0.71630  0.74730  0.37630  Biso   1.000  H
  H40      1.0000 0.83720  0.67260  0.28620  Biso   1.000  H
  H41      1.0000 0.86430  0.56870  0.27890  Biso   1.000  H
  H42      1.0000 0.92760  0.59100  0.30630  Biso   1.000  H
  H43      1.0000 0.58590  0.50990  0.45690  Biso   1.000  H
  H44      1.0000 0.64220  0.40080  0.45740  Biso   1.000  H
  H45      1.0000 0.67690  0.46690  0.42070  Biso   1.000  H
  H46      1.0000 0.65540  0.52440  0.57170  Biso   1.000  H
  H47      1.0000 0.57410  0.53610  0.54350  Biso   1.000  H
  H48      1.0000 0.62380  0.60220  0.52760  Biso   1.000  H
  H49      1.0000 0.36680  0.93500  0.79720  Biso   1.000  H
  H50      1.0000 0.29240  0.89380  0.74630  Biso   1.000  H
  H51      1.0000 0.15940  0.80500  0.86630  Biso   1.000  H
  H52      1.0000 0.24010  0.83990  0.91450  Biso   1.000  H
  H53      1.0000 0.67430  0.17290  0.91000  Biso   1.000  H
  H54      1.0000 0.73880  0.23240  0.84170  Biso   1.000  H
  H55      1.0000 0.63240  0.13500  0.75760  Biso   1.000  H
  H56      1.0000 0.57090  0.06630  0.82930  Biso   1.000  H
  H57      1.0000 0.17670  0.21090  0.94390  Biso   1.000  H
  H58      1.0000 0.05030  0.35350  0.95720  Biso   1.000  H
  H59      1.0000 0.19360  0.41200  0.03890  Biso   1.000  H
  H60      1.0000 0.31800  0.26780  0.03110  Biso   1.000  H
  H61      1.0000 0.69480  0.65260  0.89100  Biso   1.000  H
  H62      1.0000 0.73060  0.67020  0.83620  Biso   1.000  H
  H63      1.0000 0.74730  0.71630  0.87630  Biso   1.000  H
  H64      1.0000 0.67260  0.83720  0.78620  Biso   1.000  H
  H65      1.0000 0.56870  0.86430  0.77890  Biso   1.000  H
  H66      1.0000 0.59100  0.92760  0.80630  Biso   1.000  H
  H67      1.0000 0.50990  0.58590  0.95690  Biso   1.000  H
  H68      1.0000 0.40080  0.64220  0.95740  Biso   1.000  H
  H69      1.0000 0.46690  0.67690  0.92070  Biso   1.000  H
  H70      1.0000 0.52440  0.65540  0.07170  Biso   1.000  H
  H71      1.0000 0.53610  0.57410  0.04350  Biso   1.000  H
  H72      1.0000 0.60220  0.62380  0.02760  Biso   1.000  H
  H73      1.0000 0.06500  0.63320  0.70280  Biso   1.000  H
  H74      1.0000 0.10620  0.70760  0.75370  Biso   1.000  H
  H75      1.0000 0.19500  0.84060  0.63370  Biso   1.000  H
  H76      1.0000 0.16010  0.75990  0.58550  Biso   1.000  H
  H77      1.0000 0.82710  0.32570  0.59000  Biso   1.000  H
  H78      1.0000 0.76760  0.26120  0.65830  Biso   1.000  H
  H79      1.0000 0.86500  0.36760  0.74240  Biso   1.000  H
  H80      1.0000 0.93370  0.42910  0.67070  Biso   1.000  H
  H81      1.0000 0.78910  0.82330  0.55610  Biso   1.000  H
  H82      1.0000 0.64650  0.94970  0.54280  Biso   1.000  H
  H83      1.0000 0.58800  0.80640  0.46110  Biso   1.000  H
  H84      1.0000 0.73220  0.68200  0.46890  Biso   1.000  H
  H85      1.0000 0.34740  0.30520  0.60900  Biso   1.000  H
  H86      1.0000 0.32980  0.26940  0.66380  Biso   1.000  H
  H87      1.0000 0.28370  0.25270  0.62370  Biso   1.000  H
  H88      1.0000 0.16280  0.32740  0.71380  Biso   1.000  H
  H89      1.0000 0.13570  0.43130  0.72110  Biso   1.000  H
  H90      1.0000 0.07240  0.40900  0.69370  Biso   1.000  H
  H91      1.0000 0.41410  0.49010  0.54310  Biso   1.000  H
  H92      1.0000 0.35780  0.59920  0.54260  Biso   1.000  H
  H93      1.0000 0.32310  0.53310  0.57930  Biso   1.000  H
  H94      1.0000 0.34460  0.47560  0.42830  Biso   1.000  H
  H95      1.0000 0.42590  0.46390  0.45650  Biso   1.000  H
  H96      1.0000 0.37620  0.39780  0.47240  Biso   1.000  H
  C1       1.0000 0.64529  0.07709  0.10971  Biso   1.000  C
  C2       1.0000 0.70540  0.09220  0.13885  Biso   1.000  C
  C3       1.0000 0.67793  0.08653  0.18965  Biso   1.000  C
  C4       1.0000 0.71993  0.11453  0.21991  Biso   1.000  C
  C5       1.0000 0.77960  0.15420  0.19912  Biso   1.000  C
  C6       1.0000 0.79958  0.16898  0.14747  Biso   1.000  C
  C7       1.0000 0.75581  0.14301  0.11908  Biso   1.000  C
  C8       1.0000 0.42113  0.92393  0.07698  Biso   1.000  C
  C9       1.0000 0.38147  0.88707  0.12269  Biso   1.000  C
  C10      1.0000 0.33298  0.83678  0.12057  Biso   1.000  C
  C11      1.0000 0.29481  0.80021  0.16113  Biso   1.000  C
  C12      1.0000 0.30707  0.81227  0.20493  Biso   1.000  C
  C13      1.0000 0.35839  0.85979  0.21140  Biso   1.000  C
  C14      1.0000 0.39610  0.90010  0.16837  Biso   1.000  C
  C15      1.0000 0.66537  0.87017  0.01899  Biso   1.000  C
  C16      1.0000 0.74074  0.77674  0.01253  Biso   1.000  C
  C17      1.0000 0.82067  0.75007  0.03603  Biso   1.000  C
  C18      1.0000 0.89520  0.66460  0.02860  Biso   1.000  C
  C19      1.0000 0.88955  0.60215  0.99860  Biso   1.000  C
  C20      1.0000 0.81084  0.62904  0.97900  Biso   1.000  C
  C21      1.0000 0.73537  0.71497  0.98395  Biso   1.000  C
  C22      1.0000 0.29532  0.30232  0.13368  Biso   1.000  C
  C23      1.0000 0.39139  0.13559  0.19937  Biso   1.000  C
  C24      1.0000 0.54108  0.35268  0.04707  Biso   1.000  C
  C25      1.0000 0.46025  0.36725  0.95970  Biso   1.000  C
  C26      1.0000 0.92291  0.35471  0.39029  Biso   1.000  C
  C27      1.0000 0.90780  0.29460  0.36115  Biso   1.000  C
  C28      1.0000 0.91347  0.32207  0.31035  Biso   1.000  C
  C29      1.0000 0.88547  0.28007  0.28009  Biso   1.000  C
  C30      1.0000 0.84580  0.22040  0.30088  Biso   1.000  C
  C31      1.0000 0.83102  0.20042  0.35253  Biso   1.000  C
  C32      1.0000 0.85699  0.24419  0.38092  Biso   1.000  C
  C33      1.0000 0.07607  0.57887  0.42302  Biso   1.000  C
  C34      1.0000 0.11293  0.61853  0.37731  Biso   1.000  C
  C35      1.0000 0.16322  0.66702  0.37943  Biso   1.000  C
  C36      1.0000 0.19979  0.70519  0.33887  Biso   1.000  C
  C37      1.0000 0.18773  0.69293  0.29507  Biso   1.000  C
  C38      1.0000 0.14021  0.64161  0.28860  Biso   1.000  C
  C39      1.0000 0.09990  0.60390  0.33163  Biso   1.000  C
  C40      1.0000 0.12983  0.33463  0.48101  Biso   1.000  C
  C41      1.0000 0.22326  0.25926  0.48747  Biso   1.000  C
  C42      1.0000 0.24993  0.17933  0.46397  Biso   1.000  C
  C43      1.0000 0.33540  0.10480  0.47140  Biso   1.000  C
  C44      1.0000 0.39785  0.11045  0.50140  Biso   1.000  C
  C45      1.0000 0.37096  0.18916  0.52100  Biso   1.000  C
  C46      1.0000 0.28503  0.26463  0.51605  Biso   1.000  C
  C47      1.0000 0.69768  0.70468  0.36632  Biso   1.000  C
  C48      1.0000 0.86441  0.60861  0.30063  Biso   1.000  C
  C49      1.0000 0.64732  0.45892  0.45293  Biso   1.000  C
  C50      1.0000 0.63275  0.53975  0.54030  Biso   1.000  C
  C51      1.0000 0.35471  0.92291  0.89029  Biso   1.000  C
  C52      1.0000 0.29460  0.90780  0.86115  Biso   1.000  C
  C53      1.0000 0.32207  0.91347  0.81035  Biso   1.000  C
  C54      1.0000 0.28007  0.88547  0.78009  Biso   1.000  C
  C55      1.0000 0.22040  0.84580  0.80088  Biso   1.000  C
  C56      1.0000 0.20042  0.83102  0.85253  Biso   1.000  C
  C57      1.0000 0.24419  0.85699  0.88092  Biso   1.000  C
  C58      1.0000 0.57887  0.07607  0.92302  Biso   1.000  C
  C59      1.0000 0.61853  0.11293  0.87731  Biso   1.000  C
  C60      1.0000 0.66702  0.16322  0.87943  Biso   1.000  C
  C61      1.0000 0.70519  0.19979  0.83887  Biso   1.000  C
  C62      1.0000 0.69293  0.18773  0.79507  Biso   1.000  C
  C63      1.0000 0.64161  0.14021  0.78860  Biso   1.000  C
  C64      1.0000 0.60390  0.09990  0.83163  Biso   1.000  C
  C65      1.0000 0.33463  0.12983  0.98101  Biso   1.000  C
  C66      1.0000 0.25926  0.22326  0.98747  Biso   1.000  C
  C67      1.0000 0.17933  0.24993  0.96397  Biso   1.000  C
  C68      1.0000 0.10480  0.33540  0.97140  Biso   1.000  C
  C69      1.0000 0.11045  0.39785  0.00140  Biso   1.000  C
  C70      1.0000 0.18916  0.37096  0.02100  Biso   1.000  C
  C71      1.0000 0.26463  0.28503  0.01605  Biso   1.000  C
  C72      1.0000 0.70468  0.69768  0.86632  Biso   1.000  C
  C73      1.0000 0.60861  0.86441  0.80063  Biso   1.000  C
  C74      1.0000 0.45892  0.64732  0.95293  Biso   1.000  C
  C75      1.0000 0.53975  0.63275  0.04030  Biso   1.000  C
  C76      1.0000 0.07709  0.64529  0.60971  Biso   1.000  C
  C77      1.0000 0.09220  0.70540  0.63885  Biso   1.000  C
  C78      1.0000 0.08653  0.67793  0.68965  Biso   1.000  C
  C79      1.0000 0.11453  0.71993  0.71991  Biso   1.000  C
  C80      1.0000 0.15420  0.77960  0.69912  Biso   1.000  C
  C81      1.0000 0.16898  0.79958  0.64747  Biso   1.000  C
  C82      1.0000 0.14301  0.75581  0.61908  Biso   1.000  C
  C83      1.0000 0.92393  0.42113  0.57698  Biso   1.000  C
  C84      1.0000 0.88707  0.38147  0.62269  Biso   1.000  C
  C85      1.0000 0.83678  0.33298  0.62057  Biso   1.000  C
  C86      1.0000 0.80021  0.29481  0.66113  Biso   1.000  C
  C87      1.0000 0.81227  0.30707  0.70493  Biso   1.000  C
  C88      1.0000 0.85979  0.35839  0.71140  Biso   1.000  C
  C89      1.0000 0.90010  0.39610  0.66837  Biso   1.000  C
  C90      1.0000 0.87017  0.66537  0.51899  Biso   1.000  C
  C91      1.0000 0.77674  0.74074  0.51253  Biso   1.000  C
  C92      1.0000 0.75007  0.82067  0.53603  Biso   1.000  C
  C93      1.0000 0.66460  0.89520  0.52860  Biso   1.000  C
  C94      1.0000 0.60215  0.88955  0.49860  Biso   1.000  C
  C95      1.0000 0.62904  0.81084  0.47900  Biso   1.000  C
  C96      1.0000 0.71497  0.73537  0.48395  Biso   1.000  C
  C97      1.0000 0.30232  0.29532  0.63368  Biso   1.000  C
  C98      1.0000 0.13559  0.39139  0.69937  Biso   1.000  C
  C99      1.0000 0.35268  0.54108  0.54707  Biso   1.000  C
  C100     1.0000 0.36725  0.46025  0.45970  Biso   1.000  C
  S1       1.0000 0.40295  0.20351  0.14193  Biso   1.000  S
  S2       1.0000 0.54305  0.28171  0.00144  Biso   1.000  S
  S3       1.0000 0.79649  0.59705  0.35807  Biso   1.000  S
  S4       1.0000 0.71829  0.45695  0.49856  Biso   1.000  S
  S5       1.0000 0.59705  0.79649  0.85807  Biso   1.000  S
  S6       1.0000 0.45695  0.71829  0.99856  Biso   1.000  S
  S7       1.0000 0.20351  0.40295  0.64193  Biso   1.000  S
  S8       1.0000 0.28171  0.54305  0.50144  Biso   1.000  S
  N1       1.0000 0.82001  0.19101  0.22520  Biso   1.000  N
  N2       1.0000 0.27595  0.77435  0.24909  Biso   1.000  N
  N3       1.0000 0.95578  0.51538  0.99502  Biso   1.000  N
  N4       1.0000 0.80899  0.17999  0.27480  Biso   1.000  N
  N5       1.0000 0.22565  0.72405  0.25091  Biso   1.000  N
  N6       1.0000 0.48462  0.04422  0.50498  Biso   1.000  N
  N7       1.0000 0.17999  0.80899  0.77480  Biso   1.000  N
  N8       1.0000 0.72405  0.22565  0.75091  Biso   1.000  N
  N9       1.0000 0.04422  0.48462  0.00498  Biso   1.000  N
  N10      1.0000 0.19101  0.82001  0.72520  Biso   1.000  N
  N11      1.0000 0.77435  0.27595  0.74909  Biso   1.000  N
  N12      1.0000 0.51538  0.95578  0.49502  Biso   1.000  N
  O1       1.0000 0.59047  0.04213  0.12601  Biso   1.000  O
  O2       1.0000 0.65658  0.10354  0.06314  Biso   1.000  O
  O3       1.0000 0.40814  0.91496  0.03498  Biso   1.000  O
  O4       1.0000 0.46905  0.96401  0.08607  Biso   1.000  O
  O5       1.0000 0.59699  0.89603  0.99714  Biso   1.000  O
  O6       1.0000 0.67558  0.92066  0.04619  Biso   1.000  O
  O7       1.0000 0.40390  0.14970  0.10256  Biso   1.000  O
  O8       1.0000 0.48710  0.23202  0.02639  Biso   1.000  O
  O9       1.0000 0.95787  0.40953  0.37399  Biso   1.000  O
  O10      1.0000 0.89646  0.34342  0.43686  Biso   1.000  O
  O11      1.0000 0.08504  0.59186  0.46502  Biso   1.000  O
  O12      1.0000 0.03599  0.53095  0.41393  Biso   1.000  O
  O13      1.0000 0.10397  0.40301  0.50286  Biso   1.000  O
  O14      1.0000 0.07934  0.32442  0.45381  Biso   1.000  O
  O15      1.0000 0.85030  0.59610  0.39744  Biso   1.000  O
  O16      1.0000 0.76798  0.51290  0.47361  Biso   1.000  O
  O17      1.0000 0.40953  0.95787  0.87399  Biso   1.000  O
  O18      1.0000 0.34342  0.89646  0.93686  Biso   1.000  O
  O19      1.0000 0.59186  0.08504  0.96502  Biso   1.000  O
  O20      1.0000 0.53095  0.03599  0.91393  Biso   1.000  O
  O21      1.0000 0.40301  0.10397  0.00286  Biso   1.000  O
  O22      1.0000 0.32442  0.07934  0.95381  Biso   1.000  O
  O23      1.0000 0.59610  0.85030  0.89744  Biso   1.000  O
  O24      1.0000 0.51290  0.76798  0.97361  Biso   1.000  O
  O25      1.0000 0.04213  0.59047  0.62601  Biso   1.000  O
  O26      1.0000 0.10354  0.65658  0.56314  Biso   1.000  O
  O27      1.0000 0.91496  0.40814  0.53498  Biso   1.000  O
  O28      1.0000 0.96401  0.46905  0.58607  Biso   1.000  O
  O29      1.0000 0.89603  0.59699  0.49714  Biso   1.000  O
  O30      1.0000 0.92066  0.67558  0.54619  Biso   1.000  O
  O31      1.0000 0.14970  0.40390  0.60256  Biso   1.000  O
  O32      1.0000 0.23202  0.48710  0.52639  Biso   1.000  O
