data_image0
_cell_length_a       16.0636
_cell_length_b       16.0636
_cell_length_c       27.915
_cell_angle_alpha    79.8902
_cell_angle_beta     79.8902
_cell_angle_gamma    63.1763

_symmetry_space_group_name_H-M    P 1
_symmetry_int_tables_number       1

loop_
  _symmetry_equiv_pos_as_xyz
  'x, y, z'

loop_
  _atom_site_label
  _atom_site_occupancy
  _atom_site_fract_x
  _atom_site_fract_y
  _atom_site_fract_z
  _atom_site_thermal_displace_type
  _atom_site_B_iso_or_equiv
  _atom_site_type_symbol
  Gd1      1.0000 0.53127  0.06657  0.04611  Biso   1.000  Gd
  Gd2      1.0000 0.93343  0.46873  0.45389  Biso   1.000  Gd
  Gd3      1.0000 0.46873  0.93343  0.95389  Biso   1.000  Gd
  Gd4      1.0000 0.06657  0.53127  0.54611  Biso   1.000  Gd
  H1       1.0000 0.63370  0.06490  0.20350  Biso   1.000  H
  H2       1.0000 0.70770  0.10650  0.25350  Biso   1.000  H
  H3       1.0000 0.84120  0.19480  0.13350  Biso   1.000  H
  H4       1.0000 0.76030  0.15990  0.08550  Biso   1.000  H
  H5       1.0000 0.67520  0.17240  0.91010  Biso   1.000  H
  H6       1.0000 0.73860  0.23340  0.84140  Biso   1.000  H
  H7       1.0000 0.63280  0.13400  0.75750  Biso   1.000  H
  H8       1.0000 0.56920  0.06780  0.82940  Biso   1.000  H
  H9       1.0000 0.17620  0.21080  0.94430  Biso   1.000  H
  H10      1.0000 0.05040  0.35380  0.95710  Biso   1.000  H
  H11      1.0000 0.19330  0.41190  0.03930  Biso   1.000  H
  H12      1.0000 0.31810  0.26750  0.03130  Biso   1.000  H
  H13      1.0000 0.30590  0.34770  0.10890  Biso   1.000  H
  H14      1.0000 0.26830  0.32910  0.16350  Biso   1.000  H
  H15      1.0000 0.25350  0.28330  0.12250  Biso   1.000  H
  H16      1.0000 0.32690  0.16190  0.21320  Biso   1.000  H
  H17      1.0000 0.43020  0.13680  0.22120  Biso   1.000  H
  H18      1.0000 0.41020  0.07200  0.19350  Biso   1.000  H
  H19      1.0000 0.49120  0.41400  0.04310  Biso   1.000  H
  H20      1.0000 0.60030  0.35710  0.04250  Biso   1.000  H
  H21      1.0000 0.53350  0.32290  0.07940  Biso   1.000  H
  H22      1.0000 0.47500  0.34500  0.92830  Biso   1.000  H
  H23      1.0000 0.46440  0.42620  0.95640  Biso   1.000  H
  H24      1.0000 0.39740  0.37700  0.97270  Biso   1.000  H
  H25      1.0000 0.93510  0.36630  0.29650  Biso   1.000  H
  H26      1.0000 0.89350  0.29230  0.24650  Biso   1.000  H
  H27      1.0000 0.80520  0.15880  0.36650  Biso   1.000  H
  H28      1.0000 0.84010  0.23970  0.41450  Biso   1.000  H
  H29      1.0000 0.82760  0.32480  0.58990  Biso   1.000  H
  H30      1.0000 0.76660  0.26140  0.65860  Biso   1.000  H
  H31      1.0000 0.86600  0.36720  0.74250  Biso   1.000  H
  H32      1.0000 0.93220  0.43080  0.67060  Biso   1.000  H
  H33      1.0000 0.78920  0.82380  0.55570  Biso   1.000  H
  H34      1.0000 0.64620  0.94960  0.54290  Biso   1.000  H
  H35      1.0000 0.58810  0.80670  0.46070  Biso   1.000  H
  H36      1.0000 0.73250  0.68190  0.46870  Biso   1.000  H
  H37      1.0000 0.65230  0.69410  0.39110  Biso   1.000  H
  H38      1.0000 0.67090  0.73170  0.33650  Biso   1.000  H
  H39      1.0000 0.71670  0.74650  0.37750  Biso   1.000  H
  H40      1.0000 0.83810  0.67310  0.28680  Biso   1.000  H
  H41      1.0000 0.86320  0.56980  0.27880  Biso   1.000  H
  H42      1.0000 0.92800  0.58980  0.30650  Biso   1.000  H
  H43      1.0000 0.58600  0.50880  0.45690  Biso   1.000  H
  H44      1.0000 0.64290  0.39970  0.45750  Biso   1.000  H
  H45      1.0000 0.67710  0.46650  0.42060  Biso   1.000  H
  H46      1.0000 0.65500  0.52500  0.57170  Biso   1.000  H
  H47      1.0000 0.57380  0.53560  0.54360  Biso   1.000  H
  H48      1.0000 0.62300  0.60260  0.52730  Biso   1.000  H
  H49      1.0000 0.36630  0.93510  0.79650  Biso   1.000  H
  H50      1.0000 0.29230  0.89350  0.74650  Biso   1.000  H
  H51      1.0000 0.15880  0.80520  0.86650  Biso   1.000  H
  H52      1.0000 0.23970  0.84010  0.91450  Biso   1.000  H
  H53      1.0000 0.32480  0.82760  0.08990  Biso   1.000  H
  H54      1.0000 0.26140  0.76660  0.15860  Biso   1.000  H
  H55      1.0000 0.36720  0.86600  0.24250  Biso   1.000  H
  H56      1.0000 0.43080  0.93220  0.17060  Biso   1.000  H
  H57      1.0000 0.82380  0.78920  0.05570  Biso   1.000  H
  H58      1.0000 0.94960  0.64620  0.04290  Biso   1.000  H
  H59      1.0000 0.80670  0.58810  0.96070  Biso   1.000  H
  H60      1.0000 0.68190  0.73250  0.96870  Biso   1.000  H
  H61      1.0000 0.69410  0.65230  0.89110  Biso   1.000  H
  H62      1.0000 0.73170  0.67090  0.83650  Biso   1.000  H
  H63      1.0000 0.74650  0.71670  0.87750  Biso   1.000  H
  H64      1.0000 0.67310  0.83810  0.78680  Biso   1.000  H
  H65      1.0000 0.56980  0.86320  0.77880  Biso   1.000  H
  H66      1.0000 0.58980  0.92800  0.80650  Biso   1.000  H
  H67      1.0000 0.50880  0.58600  0.95690  Biso   1.000  H
  H68      1.0000 0.39970  0.64290  0.95750  Biso   1.000  H
  H69      1.0000 0.46650  0.67710  0.92060  Biso   1.000  H
  H70      1.0000 0.52500  0.65500  0.07170  Biso   1.000  H
  H71      1.0000 0.53560  0.57380  0.04360  Biso   1.000  H
  H72      1.0000 0.60260  0.62300  0.02730  Biso   1.000  H
  H73      1.0000 0.06490  0.63370  0.70350  Biso   1.000  H
  H74      1.0000 0.10650  0.70770  0.75350  Biso   1.000  H
  H75      1.0000 0.19480  0.84120  0.63350  Biso   1.000  H
  H76      1.0000 0.15990  0.76030  0.58550  Biso   1.000  H
  H77      1.0000 0.17240  0.67520  0.41010  Biso   1.000  H
  H78      1.0000 0.23340  0.73860  0.34140  Biso   1.000  H
  H79      1.0000 0.13400  0.63280  0.25750  Biso   1.000  H
  H80      1.0000 0.06780  0.56920  0.32940  Biso   1.000  H
  H81      1.0000 0.21080  0.17620  0.44430  Biso   1.000  H
  H82      1.0000 0.35380  0.05040  0.45710  Biso   1.000  H
  H83      1.0000 0.41190  0.19330  0.53930  Biso   1.000  H
  H84      1.0000 0.26750  0.31810  0.53130  Biso   1.000  H
  H85      1.0000 0.34770  0.30590  0.60890  Biso   1.000  H
  H86      1.0000 0.32910  0.26830  0.66350  Biso   1.000  H
  H87      1.0000 0.28330  0.25350  0.62250  Biso   1.000  H
  H88      1.0000 0.16190  0.32690  0.71320  Biso   1.000  H
  H89      1.0000 0.13680  0.43020  0.72120  Biso   1.000  H
  H90      1.0000 0.07200  0.41020  0.69350  Biso   1.000  H
  H91      1.0000 0.41400  0.49120  0.54310  Biso   1.000  H
  H92      1.0000 0.35710  0.60030  0.54250  Biso   1.000  H
  H93      1.0000 0.32290  0.53350  0.57940  Biso   1.000  H
  H94      1.0000 0.34500  0.47500  0.42830  Biso   1.000  H
  H95      1.0000 0.42620  0.46440  0.45640  Biso   1.000  H
  H96      1.0000 0.37700  0.39740  0.47270  Biso   1.000  H
  C1       1.0000 0.64490  0.07650  0.10989  Biso   1.000  C
  C2       1.0000 0.70420  0.09280  0.13883  Biso   1.000  C
  C3       1.0000 0.67820  0.08700  0.18990  Biso   1.000  C
  C4       1.0000 0.72010  0.11470  0.21964  Biso   1.000  C
  C5       1.0000 0.78010  0.15450  0.19880  Biso   1.000  C
  C6       1.0000 0.80000  0.16900  0.14743  Biso   1.000  C
  C7       1.0000 0.75570  0.14310  0.11911  Biso   1.000  C
  C8       1.0000 0.57870  0.07590  0.92305  Biso   1.000  C
  C9       1.0000 0.61800  0.11300  0.87716  Biso   1.000  C
  C10      1.0000 0.66740  0.16320  0.87949  Biso   1.000  C
  C11      1.0000 0.70520  0.20020  0.83880  Biso   1.000  C
  C12      1.0000 0.69290  0.18730  0.79540  Biso   1.000  C
  C13      1.0000 0.64150  0.13970  0.78860  Biso   1.000  C
  C14      1.0000 0.60330  0.10070  0.83165  Biso   1.000  C
  C15      1.0000 0.33530  0.12970  0.98096  Biso   1.000  C
  C16      1.0000 0.25946  0.22306  0.98751  Biso   1.000  C
  C17      1.0000 0.17910  0.24990  0.96418  Biso   1.000  C
  C18      1.0000 0.10490  0.33570  0.97150  Biso   1.000  C
  C19      1.0000 0.11033  0.39773  0.00101  Biso   1.000  C
  C20      1.0000 0.18920  0.37080  0.02116  Biso   1.000  C
  C21      1.0000 0.26474  0.28474  0.01614  Biso   1.000  C
  C22      1.0000 0.29550  0.30210  0.13322  Biso   1.000  C
  C23      1.0000 0.39120  0.13560  0.19914  Biso   1.000  C
  C24      1.0000 0.54183  0.35243  0.04709  Biso   1.000  C
  C25      1.0000 0.46010  0.36770  0.95976  Biso   1.000  C
  C26      1.0000 0.92350  0.35510  0.39011  Biso   1.000  C
  C27      1.0000 0.90720  0.29580  0.36117  Biso   1.000  C
  C28      1.0000 0.91300  0.32180  0.31010  Biso   1.000  C
  C29      1.0000 0.88530  0.27990  0.28036  Biso   1.000  C
  C30      1.0000 0.84550  0.21990  0.30120  Biso   1.000  C
  C31      1.0000 0.83100  0.20000  0.35257  Biso   1.000  C
  C32      1.0000 0.85690  0.24430  0.38089  Biso   1.000  C
  C33      1.0000 0.92410  0.42130  0.57695  Biso   1.000  C
  C34      1.0000 0.88700  0.38200  0.62284  Biso   1.000  C
  C35      1.0000 0.83680  0.33260  0.62051  Biso   1.000  C
  C36      1.0000 0.79980  0.29480  0.66120  Biso   1.000  C
  C37      1.0000 0.81270  0.30710  0.70460  Biso   1.000  C
  C38      1.0000 0.86030  0.35850  0.71140  Biso   1.000  C
  C39      1.0000 0.89930  0.39670  0.66835  Biso   1.000  C
  C40      1.0000 0.87030  0.66470  0.51904  Biso   1.000  C
  C41      1.0000 0.77694  0.74054  0.51249  Biso   1.000  C
  C42      1.0000 0.75010  0.82090  0.53582  Biso   1.000  C
  C43      1.0000 0.66430  0.89510  0.52850  Biso   1.000  C
  C44      1.0000 0.60227  0.88967  0.49899  Biso   1.000  C
  C45      1.0000 0.62920  0.81080  0.47884  Biso   1.000  C
  C46      1.0000 0.71526  0.73526  0.48386  Biso   1.000  C
  C47      1.0000 0.69790  0.70450  0.36678  Biso   1.000  C
  C48      1.0000 0.86440  0.60880  0.30086  Biso   1.000  C
  C49      1.0000 0.64757  0.45817  0.45291  Biso   1.000  C
  C50      1.0000 0.63230  0.53990  0.54024  Biso   1.000  C
  C51      1.0000 0.35510  0.92350  0.89011  Biso   1.000  C
  C52      1.0000 0.29580  0.90720  0.86117  Biso   1.000  C
  C53      1.0000 0.32180  0.91300  0.81010  Biso   1.000  C
  C54      1.0000 0.27990  0.88530  0.78036  Biso   1.000  C
  C55      1.0000 0.21990  0.84550  0.80120  Biso   1.000  C
  C56      1.0000 0.20000  0.83100  0.85257  Biso   1.000  C
  C57      1.0000 0.24430  0.85690  0.88089  Biso   1.000  C
  C58      1.0000 0.42130  0.92410  0.07695  Biso   1.000  C
  C59      1.0000 0.38200  0.88700  0.12284  Biso   1.000  C
  C60      1.0000 0.33260  0.83680  0.12051  Biso   1.000  C
  C61      1.0000 0.29480  0.79980  0.16120  Biso   1.000  C
  C62      1.0000 0.30710  0.81270  0.20460  Biso   1.000  C
  C63      1.0000 0.35850  0.86030  0.21140  Biso   1.000  C
  C64      1.0000 0.39670  0.89930  0.16835  Biso   1.000  C
  C65      1.0000 0.66470  0.87030  0.01904  Biso   1.000  C
  C66      1.0000 0.74054  0.77694  0.01249  Biso   1.000  C
  C67      1.0000 0.82090  0.75010  0.03582  Biso   1.000  C
  C68      1.0000 0.89510  0.66430  0.02850  Biso   1.000  C
  C69      1.0000 0.88967  0.60227  0.99899  Biso   1.000  C
  C70      1.0000 0.81080  0.62920  0.97884  Biso   1.000  C
  C71      1.0000 0.73526  0.71526  0.98386  Biso   1.000  C
  C72      1.0000 0.70450  0.69790  0.86678  Biso   1.000  C
  C73      1.0000 0.60880  0.86440  0.80086  Biso   1.000  C
  C74      1.0000 0.45817  0.64757  0.95291  Biso   1.000  C
  C75      1.0000 0.53990  0.63230  0.04024  Biso   1.000  C
  C76      1.0000 0.07650  0.64490  0.60989  Biso   1.000  C
  C77      1.0000 0.09280  0.70420  0.63883  Biso   1.000  C
  C78      1.0000 0.08700  0.67820  0.68990  Biso   1.000  C
  C79      1.0000 0.11470  0.72010  0.71964  Biso   1.000  C
  C80      1.0000 0.15450  0.78010  0.69880  Biso   1.000  C
  C81      1.0000 0.16900  0.80000  0.64743  Biso   1.000  C
  C82      1.0000 0.14310  0.75570  0.61911  Biso   1.000  C
  C83      1.0000 0.07590  0.57870  0.42305  Biso   1.000  C
  C84      1.0000 0.11300  0.61800  0.37716  Biso   1.000  C
  C85      1.0000 0.16320  0.66740  0.37949  Biso   1.000  C
  C86      1.0000 0.20020  0.70520  0.33880  Biso   1.000  C
  C87      1.0000 0.18730  0.69290  0.29540  Biso   1.000  C
  C88      1.0000 0.13970  0.64150  0.28860  Biso   1.000  C
  C89      1.0000 0.10070  0.60330  0.33165  Biso   1.000  C
  C90      1.0000 0.12970  0.33530  0.48096  Biso   1.000  C
  C91      1.0000 0.22306  0.25946  0.48751  Biso   1.000  C
  C92      1.0000 0.24990  0.17910  0.46418  Biso   1.000  C
  C93      1.0000 0.33570  0.10490  0.47150  Biso   1.000  C
  C94      1.0000 0.39773  0.11033  0.50101  Biso   1.000  C
  C95      1.0000 0.37080  0.18920  0.52116  Biso   1.000  C
  C96      1.0000 0.28474  0.26474  0.51614  Biso   1.000  C
  C97      1.0000 0.30210  0.29550  0.63322  Biso   1.000  C
  C98      1.0000 0.13560  0.39120  0.69914  Biso   1.000  C
  C99      1.0000 0.35243  0.54183  0.54709  Biso   1.000  C
  C100     1.0000 0.36770  0.46010  0.45976  Biso   1.000  C
  S1       1.0000 0.40298  0.20348  0.14195  Biso   1.000  S
  S2       1.0000 0.54292  0.28172  0.00151  Biso   1.000  S
  S3       1.0000 0.79652  0.59702  0.35805  Biso   1.000  S
  S4       1.0000 0.71828  0.45708  0.49849  Biso   1.000  S
  S5       1.0000 0.59702  0.79652  0.85805  Biso   1.000  S
  S6       1.0000 0.45708  0.71828  0.99849  Biso   1.000  S
  S7       1.0000 0.20348  0.40298  0.64195  Biso   1.000  S
  S8       1.0000 0.28172  0.54292  0.50151  Biso   1.000  S
  N1       1.0000 0.82016  0.19076  0.22522  Biso   1.000  N
  N2       1.0000 0.72374  0.22594  0.75095  Biso   1.000  N
  N3       1.0000 0.04427  0.48427  0.00515  Biso   1.000  N
  N4       1.0000 0.80924  0.17984  0.27478  Biso   1.000  N
  N5       1.0000 0.77406  0.27626  0.74905  Biso   1.000  N
  N6       1.0000 0.51573  0.95573  0.49485  Biso   1.000  N
  N7       1.0000 0.17984  0.80924  0.77478  Biso   1.000  N
  N8       1.0000 0.27626  0.77406  0.24905  Biso   1.000  N
  N9       1.0000 0.95573  0.51573  0.99485  Biso   1.000  N
  N10      1.0000 0.19076  0.82016  0.72522  Biso   1.000  N
  N11      1.0000 0.22594  0.72374  0.25095  Biso   1.000  N
  N12      1.0000 0.48427  0.04427  0.50515  Biso   1.000  N
  O1       1.0000 0.59043  0.04185  0.12606  Biso   1.000  O
  O2       1.0000 0.65655  0.10355  0.06349  Biso   1.000  O
  O3       1.0000 0.59233  0.08463  0.96494  Biso   1.000  O
  O4       1.0000 0.53091  0.03631  0.91401  Biso   1.000  O
  O5       1.0000 0.40292  0.10372  0.00289  Biso   1.000  O
  O6       1.0000 0.32472  0.07940  0.95384  Biso   1.000  O
  O7       1.0000 0.40409  0.14937  0.10235  Biso   1.000  O
  O8       1.0000 0.48730  0.23230  0.02639  Biso   1.000  O
  O9       1.0000 0.95815  0.40957  0.37394  Biso   1.000  O
  O10      1.0000 0.89645  0.34345  0.43651  Biso   1.000  O
  O11      1.0000 0.91537  0.40767  0.53506  Biso   1.000  O
  O12      1.0000 0.96369  0.46909  0.58599  Biso   1.000  O
  O13      1.0000 0.89628  0.59708  0.49711  Biso   1.000  O
  O14      1.0000 0.92060  0.67528  0.54616  Biso   1.000  O
  O15      1.0000 0.85063  0.59591  0.39765  Biso   1.000  O
  O16      1.0000 0.76770  0.51270  0.47361  Biso   1.000  O
  O17      1.0000 0.40957  0.95815  0.87394  Biso   1.000  O
  O18      1.0000 0.34345  0.89645  0.93651  Biso   1.000  O
  O19      1.0000 0.40767  0.91537  0.03506  Biso   1.000  O
  O20      1.0000 0.46909  0.96369  0.08599  Biso   1.000  O
  O21      1.0000 0.59708  0.89628  0.99711  Biso   1.000  O
  O22      1.0000 0.67528  0.92060  0.04616  Biso   1.000  O
  O23      1.0000 0.59591  0.85063  0.89765  Biso   1.000  O
  O24      1.0000 0.51270  0.76770  0.97361  Biso   1.000  O
  O25      1.0000 0.04185  0.59043  0.62606  Biso   1.000  O
  O26      1.0000 0.10355  0.65655  0.56349  Biso   1.000  O
  O27      1.0000 0.08463  0.59233  0.46494  Biso   1.000  O
  O28      1.0000 0.03631  0.53091  0.41401  Biso   1.000  O
  O29      1.0000 0.10372  0.40292  0.50289  Biso   1.000  O
  O30      1.0000 0.07940  0.32472  0.45384  Biso   1.000  O
  O31      1.0000 0.14937  0.40409  0.60235  Biso   1.000  O
  O32      1.0000 0.23230  0.48730  0.52639  Biso   1.000  O
