data_image0
_cell_length_a       11.4
_cell_length_b       18.657
_cell_length_c       24.38
_cell_angle_alpha    90
_cell_angle_beta     90
_cell_angle_gamma    90

_symmetry_space_group_name_H-M    P 1
_symmetry_int_tables_number       1

loop_
  _symmetry_equiv_pos_as_xyz
  'x, y, z'

loop_
  _atom_site_label
  _atom_site_occupancy
  _atom_site_fract_x
  _atom_site_fract_y
  _atom_site_fract_z
  _atom_site_thermal_displace_type
  _atom_site_B_iso_or_equiv
  _atom_site_type_symbol
  Co1      1.0000 0.53519  0.30028  0.51869  Biso   1.000  Co
  Co2      1.0000 0.53519  0.69972  0.48131  Biso   1.000  Co
  Co3      1.0000 0.46481  0.19972  0.01869  Biso   1.000  Co
  Co4      1.0000 0.46481  0.80028  0.98131  Biso   1.000  Co
  Co5      1.0000 0.54014  0.50000  0.50000  Biso   1.000  Co
  Co6      1.0000 0.45986  0.00000  0.00000  Biso   1.000  Co
  H1       1.0000 0.57560  0.47460  0.64500  Biso   1.000  H
  H2       1.0000 0.36710  0.40460  0.68090  Biso   1.000  H
  H3       1.0000 0.40610  0.48340  0.69680  Biso   1.000  H
  H4       1.0000 0.36600  0.46610  0.63610  Biso   1.000  H
  H5       1.0000 0.90760  0.38880  0.75640  Biso   1.000  H
  H6       1.0000 0.87240  0.21580  0.85320  Biso   1.000  H
  H7       1.0000 0.60810  0.27500  0.75090  Biso   1.000  H
  H8       1.0000 0.22550  0.46450  0.77600  Biso   1.000  H
  H9       1.0000 0.19080  0.47090  0.83870  Biso   1.000  H
  H10      1.0000 0.32360  0.45910  0.82180  Biso   1.000  H
  H11      1.0000 0.23640  0.35240  0.85390  Biso   1.000  H
  H12      1.0000 0.30880  0.19360  0.84300  Biso   1.000  H
  H13      1.0000 0.32990  0.14800  0.78910  Biso   1.000  H
  H14      1.0000 0.28110  0.11040  0.84270  Biso   1.000  H
  H15      1.0000 0.48500  0.08560  0.83130  Biso   1.000  H
  H16      1.0000 0.12750  0.24070  0.44860  Biso   1.000  H
  H17      1.0000 0.32820  0.24500  0.45130  Biso   1.000  H
  H18      1.0000 0.32140  0.34610  0.59130  Biso   1.000  H
  H19      1.0000 0.12150  0.34210  0.59400  Biso   1.000  H
  H20      1.0000 0.94390  0.26580  0.59980  Biso   1.000  H
  H21      1.0000 0.74110  0.26900  0.59740  Biso   1.000  H
  H22      1.0000 0.74810  0.32750  0.44370  Biso   1.000  H
  H23      1.0000 0.94730  0.32130  0.44050  Biso   1.000  H
  H24      1.0000 0.49880  0.16710  0.58640  Biso   1.000  H
  H25      1.0000 0.50620  0.04520  0.58240  Biso   1.000  H
  H26      1.0000 0.59030  0.06380  0.42370  Biso   1.000  H
  H27      1.0000 0.58250  0.18540  0.43380  Biso   1.000  H
  H28      1.0000 0.74910  0.48200  0.57920  Biso   1.000  H
  H29      1.0000 0.94780  0.48320  0.58110  Biso   1.000  H
  H30      1.0000 0.12830  0.55850  0.56940  Biso   1.000  H
  H31      1.0000 0.32910  0.55670  0.56700  Biso   1.000  H
  H32      1.0000 0.54760  0.37680  0.72470  Biso   1.000  H
  H33      1.0000 0.08240  0.36100  0.76630  Biso   1.000  H
  H34      1.0000 0.50510  0.22790  0.81480  Biso   1.000  H
  H35      1.0000 0.57560  0.52540  0.35500  Biso   1.000  H
  H36      1.0000 0.36710  0.59540  0.31910  Biso   1.000  H
  H37      1.0000 0.40610  0.51660  0.30320  Biso   1.000  H
  H38      1.0000 0.36600  0.53390  0.36390  Biso   1.000  H
  H39      1.0000 0.90760  0.61120  0.24360  Biso   1.000  H
  H40      1.0000 0.87240  0.78420  0.14680  Biso   1.000  H
  H41      1.0000 0.60810  0.72500  0.24910  Biso   1.000  H
  H42      1.0000 0.22550  0.53550  0.22400  Biso   1.000  H
  H43      1.0000 0.19080  0.52910  0.16130  Biso   1.000  H
  H44      1.0000 0.32360  0.54090  0.17820  Biso   1.000  H
  H45      1.0000 0.23640  0.64760  0.14610  Biso   1.000  H
  H46      1.0000 0.30880  0.80640  0.15700  Biso   1.000  H
  H47      1.0000 0.32990  0.85200  0.21090  Biso   1.000  H
  H48      1.0000 0.28110  0.88960  0.15730  Biso   1.000  H
  H49      1.0000 0.48500  0.91440  0.16870  Biso   1.000  H
  H50      1.0000 0.12750  0.75930  0.55140  Biso   1.000  H
  H51      1.0000 0.32820  0.75500  0.54870  Biso   1.000  H
  H52      1.0000 0.32140  0.65390  0.40870  Biso   1.000  H
  H53      1.0000 0.12150  0.65790  0.40600  Biso   1.000  H
  H54      1.0000 0.94390  0.73420  0.40020  Biso   1.000  H
  H55      1.0000 0.74110  0.73100  0.40260  Biso   1.000  H
  H56      1.0000 0.74810  0.67250  0.55630  Biso   1.000  H
  H57      1.0000 0.94730  0.67870  0.55950  Biso   1.000  H
  H58      1.0000 0.49880  0.83290  0.41360  Biso   1.000  H
  H59      1.0000 0.50620  0.95480  0.41760  Biso   1.000  H
  H60      1.0000 0.59030  0.93620  0.57630  Biso   1.000  H
  H61      1.0000 0.58250  0.81460  0.56620  Biso   1.000  H
  H62      1.0000 0.74910  0.51800  0.42080  Biso   1.000  H
  H63      1.0000 0.94780  0.51680  0.41890  Biso   1.000  H
  H64      1.0000 0.12830  0.44150  0.43060  Biso   1.000  H
  H65      1.0000 0.32910  0.44330  0.43300  Biso   1.000  H
  H66      1.0000 0.54760  0.62320  0.27530  Biso   1.000  H
  H67      1.0000 0.08240  0.63900  0.23370  Biso   1.000  H
  H68      1.0000 0.50510  0.77210  0.18520  Biso   1.000  H
  H69      1.0000 0.42440  0.02540  0.14500  Biso   1.000  H
  H70      1.0000 0.63290  0.09540  0.18090  Biso   1.000  H
  H71      1.0000 0.59390  0.01660  0.19680  Biso   1.000  H
  H72      1.0000 0.63400  0.03390  0.13610  Biso   1.000  H
  H73      1.0000 0.09240  0.11120  0.25640  Biso   1.000  H
  H74      1.0000 0.12760  0.28420  0.35320  Biso   1.000  H
  H75      1.0000 0.39190  0.22500  0.25090  Biso   1.000  H
  H76      1.0000 0.77450  0.03550  0.27600  Biso   1.000  H
  H77      1.0000 0.80920  0.02910  0.33870  Biso   1.000  H
  H78      1.0000 0.67640  0.04090  0.32180  Biso   1.000  H
  H79      1.0000 0.76360  0.14760  0.35390  Biso   1.000  H
  H80      1.0000 0.69120  0.30640  0.34300  Biso   1.000  H
  H81      1.0000 0.67010  0.35200  0.28910  Biso   1.000  H
  H82      1.0000 0.71890  0.38960  0.34270  Biso   1.000  H
  H83      1.0000 0.51500  0.41440  0.33130  Biso   1.000  H
  H84      1.0000 0.87250  0.25930  0.94860  Biso   1.000  H
  H85      1.0000 0.67180  0.25500  0.95130  Biso   1.000  H
  H86      1.0000 0.67860  0.15390  0.09130  Biso   1.000  H
  H87      1.0000 0.87850  0.15790  0.09400  Biso   1.000  H
  H88      1.0000 0.05610  0.23420  0.09980  Biso   1.000  H
  H89      1.0000 0.25890  0.23100  0.09740  Biso   1.000  H
  H90      1.0000 0.25190  0.17250  0.94370  Biso   1.000  H
  H91      1.0000 0.05270  0.17870  0.94050  Biso   1.000  H
  H92      1.0000 0.50120  0.33290  0.08640  Biso   1.000  H
  H93      1.0000 0.49380  0.45480  0.08240  Biso   1.000  H
  H94      1.0000 0.40970  0.43620  0.92370  Biso   1.000  H
  H95      1.0000 0.41750  0.31460  0.93380  Biso   1.000  H
  H96      1.0000 0.25090  0.01800  0.07920  Biso   1.000  H
  H97      1.0000 0.05220  0.01680  0.08110  Biso   1.000  H
  H98      1.0000 0.87170  0.94150  0.06940  Biso   1.000  H
  H99      1.0000 0.67090  0.94330  0.06700  Biso   1.000  H
  H100     1.0000 0.45240  0.12320  0.22470  Biso   1.000  H
  H101     1.0000 0.91760  0.13900  0.26630  Biso   1.000  H
  H102     1.0000 0.49490  0.27210  0.31480  Biso   1.000  H
  H103     1.0000 0.42440  0.97460  0.85500  Biso   1.000  H
  H104     1.0000 0.63290  0.90460  0.81910  Biso   1.000  H
  H105     1.0000 0.59390  0.98340  0.80320  Biso   1.000  H
  H106     1.0000 0.63400  0.96610  0.86390  Biso   1.000  H
  H107     1.0000 0.09240  0.88880  0.74360  Biso   1.000  H
  H108     1.0000 0.12760  0.71580  0.64680  Biso   1.000  H
  H109     1.0000 0.39190  0.77500  0.74910  Biso   1.000  H
  H110     1.0000 0.77450  0.96450  0.72400  Biso   1.000  H
  H111     1.0000 0.80920  0.97090  0.66130  Biso   1.000  H
  H112     1.0000 0.67640  0.95910  0.67820  Biso   1.000  H
  H113     1.0000 0.76360  0.85240  0.64610  Biso   1.000  H
  H114     1.0000 0.69120  0.69360  0.65700  Biso   1.000  H
  H115     1.0000 0.67010  0.64800  0.71090  Biso   1.000  H
  H116     1.0000 0.71890  0.61040  0.65730  Biso   1.000  H
  H117     1.0000 0.51500  0.58560  0.66870  Biso   1.000  H
  H118     1.0000 0.87250  0.74070  0.05140  Biso   1.000  H
  H119     1.0000 0.67180  0.74500  0.04870  Biso   1.000  H
  H120     1.0000 0.67860  0.84610  0.90870  Biso   1.000  H
  H121     1.0000 0.87850  0.84210  0.90600  Biso   1.000  H
  H122     1.0000 0.05610  0.76580  0.90020  Biso   1.000  H
  H123     1.0000 0.25890  0.76900  0.90260  Biso   1.000  H
  H124     1.0000 0.25190  0.82750  0.05630  Biso   1.000  H
  H125     1.0000 0.05270  0.82130  0.05950  Biso   1.000  H
  H126     1.0000 0.50120  0.66710  0.91360  Biso   1.000  H
  H127     1.0000 0.49380  0.54520  0.91760  Biso   1.000  H
  H128     1.0000 0.40970  0.56380  0.07630  Biso   1.000  H
  H129     1.0000 0.41750  0.68540  0.06620  Biso   1.000  H
  H130     1.0000 0.25090  0.98200  0.92080  Biso   1.000  H
  H131     1.0000 0.05220  0.98320  0.91890  Biso   1.000  H
  H132     1.0000 0.87170  0.05850  0.93060  Biso   1.000  H
  H133     1.0000 0.67090  0.05670  0.93300  Biso   1.000  H
  H134     1.0000 0.45240  0.87680  0.77530  Biso   1.000  H
  H135     1.0000 0.91760  0.86100  0.73370  Biso   1.000  H
  H136     1.0000 0.49490  0.72790  0.68520  Biso   1.000  H
  C1       1.0000 0.53780  0.38250  0.60150  Biso   1.000  C
  C2       1.0000 0.53340  0.42940  0.65270  Biso   1.000  C
  C3       1.0000 0.40650  0.44750  0.66800  Biso   1.000  C
  C4       1.0000 0.70580  0.38540  0.70170  Biso   1.000  C
  C5       1.0000 0.75210  0.33880  0.74700  Biso   1.000  C
  C6       1.0000 0.86240  0.34980  0.76860  Biso   1.000  C
  C7       1.0000 0.90700  0.30480  0.80760  Biso   1.000  C
  C8       1.0000 0.84050  0.24760  0.82720  Biso   1.000  C
  C9       1.0000 0.72560  0.23780  0.80790  Biso   1.000  C
  C10      1.0000 0.68290  0.28290  0.76590  Biso   1.000  C
  C11      1.0000 0.02640  0.31650  0.83090  Biso   1.000  C
  C12      1.0000 0.24290  0.44770  0.81270  Biso   1.000  C
  C13      1.0000 0.22540  0.36750  0.81530  Biso   1.000  C
  C14      1.0000 0.31490  0.32790  0.78070  Biso   1.000  C
  C15      1.0000 0.65220  0.17920  0.83110  Biso   1.000  C
  C16      1.0000 0.33310  0.14730  0.82890  Biso   1.000  C
  C17      1.0000 0.45900  0.13160  0.84750  Biso   1.000  C
  C18      1.0000 0.46330  0.12590  0.91020  Biso   1.000  C
  C19      1.0000 0.16540  0.26320  0.47820  Biso   1.000  C
  C20      1.0000 0.28590  0.26600  0.48020  Biso   1.000  C
  C21      1.0000 0.28190  0.32450  0.56180  Biso   1.000  C
  C22      1.0000 0.16160  0.32320  0.56360  Biso   1.000  C
  C23      1.0000 0.10000  0.29390  0.52030  Biso   1.000  C
  C24      1.0000 0.97000  0.29370  0.52070  Biso   1.000  C
  C25      1.0000 0.90540  0.27820  0.56710  Biso   1.000  C
  C26      1.0000 0.78360  0.28100  0.56560  Biso   1.000  C
  C27      1.0000 0.78840  0.31440  0.47580  Biso   1.000  C
  C28      1.0000 0.90760  0.31150  0.47350  Biso   1.000  C
  C29      1.0000 0.51880  0.14560  0.55280  Biso   1.000  C
  C30      1.0000 0.52270  0.07250  0.55090  Biso   1.000  C
  C31      1.0000 0.55090  0.03960  0.50240  Biso   1.000  C
  C32      1.0000 0.57220  0.08360  0.45810  Biso   1.000  C
  C33      1.0000 0.56670  0.15650  0.46460  Biso   1.000  C
  C34      1.0000 0.79000  0.48970  0.54630  Biso   1.000  C
  C35      1.0000 0.90900  0.49000  0.54750  Biso   1.000  C
  C36      1.0000 0.16720  0.53440  0.54080  Biso   1.000  C
  C37      1.0000 0.28800  0.53290  0.53890  Biso   1.000  C
  C38      1.0000 0.53780  0.61750  0.39850  Biso   1.000  C
  C39      1.0000 0.53340  0.57060  0.34730  Biso   1.000  C
  C40      1.0000 0.40650  0.55250  0.33200  Biso   1.000  C
  C41      1.0000 0.70580  0.61460  0.29830  Biso   1.000  C
  C42      1.0000 0.75210  0.66120  0.25300  Biso   1.000  C
  C43      1.0000 0.86240  0.65020  0.23140  Biso   1.000  C
  C44      1.0000 0.90700  0.69520  0.19240  Biso   1.000  C
  C45      1.0000 0.84050  0.75240  0.17280  Biso   1.000  C
  C46      1.0000 0.72560  0.76220  0.19210  Biso   1.000  C
  C47      1.0000 0.68290  0.71710  0.23410  Biso   1.000  C
  C48      1.0000 0.02640  0.68350  0.16910  Biso   1.000  C
  C49      1.0000 0.24290  0.55230  0.18730  Biso   1.000  C
  C50      1.0000 0.22540  0.63250  0.18470  Biso   1.000  C
  C51      1.0000 0.31490  0.67210  0.21930  Biso   1.000  C
  C52      1.0000 0.65220  0.82080  0.16890  Biso   1.000  C
  C53      1.0000 0.33310  0.85270  0.17110  Biso   1.000  C
  C54      1.0000 0.45900  0.86840  0.15250  Biso   1.000  C
  C55      1.0000 0.46330  0.87410  0.08980  Biso   1.000  C
  C56      1.0000 0.16540  0.73680  0.52180  Biso   1.000  C
  C57      1.0000 0.28590  0.73400  0.51980  Biso   1.000  C
  C58      1.0000 0.28190  0.67550  0.43820  Biso   1.000  C
  C59      1.0000 0.16160  0.67680  0.43640  Biso   1.000  C
  C60      1.0000 0.10000  0.70610  0.47970  Biso   1.000  C
  C61      1.0000 0.97000  0.70630  0.47930  Biso   1.000  C
  C62      1.0000 0.90540  0.72180  0.43290  Biso   1.000  C
  C63      1.0000 0.78360  0.71900  0.43440  Biso   1.000  C
  C64      1.0000 0.78840  0.68560  0.52420  Biso   1.000  C
  C65      1.0000 0.90760  0.68850  0.52650  Biso   1.000  C
  C66      1.0000 0.51880  0.85440  0.44720  Biso   1.000  C
  C67      1.0000 0.52270  0.92750  0.44910  Biso   1.000  C
  C68      1.0000 0.55090  0.96040  0.49760  Biso   1.000  C
  C69      1.0000 0.57220  0.91640  0.54190  Biso   1.000  C
  C70      1.0000 0.56670  0.84350  0.53540  Biso   1.000  C
  C71      1.0000 0.79000  0.51030  0.45370  Biso   1.000  C
  C72      1.0000 0.90900  0.51000  0.45250  Biso   1.000  C
  C73      1.0000 0.16720  0.46560  0.45920  Biso   1.000  C
  C74      1.0000 0.28800  0.46710  0.46110  Biso   1.000  C
  C75      1.0000 0.46220  0.11750  0.10150  Biso   1.000  C
  C76      1.0000 0.46660  0.07060  0.15270  Biso   1.000  C
  C77      1.0000 0.59350  0.05250  0.16800  Biso   1.000  C
  C78      1.0000 0.29420  0.11460  0.20170  Biso   1.000  C
  C79      1.0000 0.24790  0.16120  0.24700  Biso   1.000  C
  C80      1.0000 0.13760  0.15020  0.26860  Biso   1.000  C
  C81      1.0000 0.09300  0.19520  0.30760  Biso   1.000  C
  C82      1.0000 0.15950  0.25240  0.32720  Biso   1.000  C
  C83      1.0000 0.27440  0.26220  0.30790  Biso   1.000  C
  C84      1.0000 0.31710  0.21710  0.26590  Biso   1.000  C
  C85      1.0000 0.97360  0.18350  0.33090  Biso   1.000  C
  C86      1.0000 0.75710  0.05230  0.31270  Biso   1.000  C
  C87      1.0000 0.77460  0.13250  0.31530  Biso   1.000  C
  C88      1.0000 0.68510  0.17210  0.28070  Biso   1.000  C
  C89      1.0000 0.34780  0.32080  0.33110  Biso   1.000  C
  C90      1.0000 0.66690  0.35270  0.32890  Biso   1.000  C
  C91      1.0000 0.54100  0.36840  0.34750  Biso   1.000  C
  C92      1.0000 0.53670  0.37410  0.41020  Biso   1.000  C
  C93      1.0000 0.83460  0.23680  0.97820  Biso   1.000  C
  C94      1.0000 0.71410  0.23400  0.98020  Biso   1.000  C
  C95      1.0000 0.71810  0.17550  0.06180  Biso   1.000  C
  C96      1.0000 0.83840  0.17680  0.06360  Biso   1.000  C
  C97      1.0000 0.90000  0.20610  0.02030  Biso   1.000  C
  C98      1.0000 0.03000  0.20630  0.02070  Biso   1.000  C
  C99      1.0000 0.09460  0.22180  0.06710  Biso   1.000  C
  C100     1.0000 0.21640  0.21900  0.06560  Biso   1.000  C
  C101     1.0000 0.21160  0.18560  0.97580  Biso   1.000  C
  C102     1.0000 0.09240  0.18850  0.97350  Biso   1.000  C
  C103     1.0000 0.48120  0.35440  0.05280  Biso   1.000  C
  C104     1.0000 0.47730  0.42750  0.05090  Biso   1.000  C
  C105     1.0000 0.44910  0.46040  0.00240  Biso   1.000  C
  C106     1.0000 0.42780  0.41640  0.95810  Biso   1.000  C
  C107     1.0000 0.43330  0.34350  0.96460  Biso   1.000  C
  C108     1.0000 0.21000  0.01030  0.04630  Biso   1.000  C
  C109     1.0000 0.09100  0.01000  0.04750  Biso   1.000  C
  C110     1.0000 0.83280  0.96560  0.04080  Biso   1.000  C
  C111     1.0000 0.71200  0.96710  0.03890  Biso   1.000  C
  C112     1.0000 0.46220  0.88250  0.89850  Biso   1.000  C
  C113     1.0000 0.46660  0.92940  0.84730  Biso   1.000  C
  C114     1.0000 0.59350  0.94750  0.83200  Biso   1.000  C
  C115     1.0000 0.29420  0.88540  0.79830  Biso   1.000  C
  C116     1.0000 0.24790  0.83880  0.75300  Biso   1.000  C
  C117     1.0000 0.13760  0.84980  0.73140  Biso   1.000  C
  C118     1.0000 0.09300  0.80480  0.69240  Biso   1.000  C
  C119     1.0000 0.15950  0.74760  0.67280  Biso   1.000  C
  C120     1.0000 0.27440  0.73780  0.69210  Biso   1.000  C
  C121     1.0000 0.31710  0.78290  0.73410  Biso   1.000  C
  C122     1.0000 0.97360  0.81650  0.66910  Biso   1.000  C
  C123     1.0000 0.75710  0.94770  0.68730  Biso   1.000  C
  C124     1.0000 0.77460  0.86750  0.68470  Biso   1.000  C
  C125     1.0000 0.68510  0.82790  0.71930  Biso   1.000  C
  C126     1.0000 0.34780  0.67920  0.66890  Biso   1.000  C
  C127     1.0000 0.66690  0.64730  0.67110  Biso   1.000  C
  C128     1.0000 0.54100  0.63160  0.65250  Biso   1.000  C
  C129     1.0000 0.53670  0.62590  0.58980  Biso   1.000  C
  C130     1.0000 0.83460  0.76320  0.02180  Biso   1.000  C
  C131     1.0000 0.71410  0.76600  0.01980  Biso   1.000  C
  C132     1.0000 0.71810  0.82450  0.93820  Biso   1.000  C
  C133     1.0000 0.83840  0.82320  0.93640  Biso   1.000  C
  C134     1.0000 0.90000  0.79390  0.97970  Biso   1.000  C
  C135     1.0000 0.03000  0.79370  0.97930  Biso   1.000  C
  C136     1.0000 0.09460  0.77820  0.93290  Biso   1.000  C
  C137     1.0000 0.21640  0.78100  0.93440  Biso   1.000  C
  C138     1.0000 0.21160  0.81440  0.02420  Biso   1.000  C
  C139     1.0000 0.09240  0.81150  0.02650  Biso   1.000  C
  C140     1.0000 0.48120  0.64560  0.94720  Biso   1.000  C
  C141     1.0000 0.47730  0.57250  0.94910  Biso   1.000  C
  C142     1.0000 0.44910  0.53960  0.99760  Biso   1.000  C
  C143     1.0000 0.42780  0.58360  0.04190  Biso   1.000  C
  C144     1.0000 0.43330  0.65650  0.03540  Biso   1.000  C
  C145     1.0000 0.21000  0.98970  0.95370  Biso   1.000  C
  C146     1.0000 0.09100  0.99000  0.95250  Biso   1.000  C
  C147     1.0000 0.83280  0.03440  0.95920  Biso   1.000  C
  C148     1.0000 0.71200  0.03290  0.96110  Biso   1.000  C
  C149     1.0000 0.97480  0.50000  0.50000  Biso   1.000  C
  C150     1.0000 0.10360  0.50000  0.50000  Biso   1.000  C
  C151     1.0000 0.02520  0.00000  0.00000  Biso   1.000  C
  C152     1.0000 0.89640  0.00000  0.00000  Biso   1.000  C
  N1       1.0000 0.59100  0.39360  0.69830  Biso   1.000  N
  N2       1.0000 0.10450  0.34930  0.79930  Biso   1.000  N
  N3       1.0000 0.53460  0.18850  0.82809  Biso   1.000  N
  N4       1.0000 0.34730  0.29720  0.52110  Biso   1.000  N
  N5       1.0000 0.72500  0.30000  0.52030  Biso   1.000  N
  N6       1.0000 0.54090  0.18860  0.51096  Biso   1.000  N
  N7       1.0000 0.59100  0.60640  0.30170  Biso   1.000  N
  N8       1.0000 0.10450  0.65070  0.20070  Biso   1.000  N
  N9       1.0000 0.53460  0.81150  0.17191  Biso   1.000  N
  N10      1.0000 0.34730  0.70280  0.47890  Biso   1.000  N
  N11      1.0000 0.72500  0.70000  0.47970  Biso   1.000  N
  N12      1.0000 0.54090  0.81140  0.48904  Biso   1.000  N
  N13      1.0000 0.40900  0.10640  0.19830  Biso   1.000  N
  N14      1.0000 0.89550  0.15070  0.29930  Biso   1.000  N
  N15      1.0000 0.46540  0.31150  0.32809  Biso   1.000  N
  N16      1.0000 0.65270  0.20280  0.02110  Biso   1.000  N
  N17      1.0000 0.27500  0.20000  0.02030  Biso   1.000  N
  N18      1.0000 0.45910  0.31140  0.01096  Biso   1.000  N
  N19      1.0000 0.40900  0.89360  0.80170  Biso   1.000  N
  N20      1.0000 0.89550  0.84930  0.70070  Biso   1.000  N
  N21      1.0000 0.46540  0.68850  0.67191  Biso   1.000  N
  N22      1.0000 0.65270  0.79720  0.97890  Biso   1.000  N
  N23      1.0000 0.27500  0.80000  0.97970  Biso   1.000  N
  N24      1.0000 0.45910  0.68860  0.98904  Biso   1.000  N
  N25      1.0000 0.72810  0.50000  0.50000  Biso   1.000  N
  N26      1.0000 0.35110  0.50000  0.50000  Biso   1.000  N
  N27      1.0000 0.27190  0.00000  0.00000  Biso   1.000  N
  N28      1.0000 0.64890  0.00000  0.00000  Biso   1.000  N
  O1       1.0000 0.53560  0.40928  0.55372  Biso   1.000  O
  O2       1.0000 0.53830  0.31430  0.60640  Biso   1.000  O
  O3       1.0000 0.77360  0.41310  0.66760  Biso   1.000  O
  O4       1.0000 0.28010  0.29370  0.73980  Biso   1.000  O
  O5       1.0000 0.42130  0.33450  0.79460  Biso   1.000  O
  O6       1.0000 0.05090  0.29890  0.87890  Biso   1.000  O
  O7       1.0000 0.47130  0.18320  0.93724  Biso   1.000  O
  O8       1.0000 0.45290  0.06370  0.93018  Biso   1.000  O
  O9       1.0000 0.69580  0.12610  0.85170  Biso   1.000  O
  O10      1.0000 0.53560  0.59072  0.44628  Biso   1.000  O
  O11      1.0000 0.53830  0.68570  0.39360  Biso   1.000  O
  O12      1.0000 0.77360  0.58690  0.33240  Biso   1.000  O
  O13      1.0000 0.28010  0.70630  0.26020  Biso   1.000  O
  O14      1.0000 0.42130  0.66550  0.20540  Biso   1.000  O
  O15      1.0000 0.05090  0.70110  0.12110  Biso   1.000  O
  O16      1.0000 0.47130  0.81680  0.06276  Biso   1.000  O
  O17      1.0000 0.45290  0.93630  0.06982  Biso   1.000  O
  O18      1.0000 0.69580  0.87390  0.14830  Biso   1.000  O
  O19      1.0000 0.46440  0.09072  0.05372  Biso   1.000  O
  O20      1.0000 0.46170  0.18570  0.10640  Biso   1.000  O
  O21      1.0000 0.22640  0.08690  0.16760  Biso   1.000  O
  O22      1.0000 0.71990  0.20630  0.23980  Biso   1.000  O
  O23      1.0000 0.57870  0.16550  0.29460  Biso   1.000  O
  O24      1.0000 0.94910  0.20110  0.37890  Biso   1.000  O
  O25      1.0000 0.52870  0.31680  0.43724  Biso   1.000  O
  O26      1.0000 0.54710  0.43630  0.43018  Biso   1.000  O
  O27      1.0000 0.30420  0.37390  0.35170  Biso   1.000  O
  O28      1.0000 0.46440  0.90928  0.94628  Biso   1.000  O
  O29      1.0000 0.46170  0.81430  0.89360  Biso   1.000  O
  O30      1.0000 0.22640  0.91310  0.83240  Biso   1.000  O
  O31      1.0000 0.71990  0.79370  0.76020  Biso   1.000  O
  O32      1.0000 0.57870  0.83450  0.70540  Biso   1.000  O
  O33      1.0000 0.94910  0.79890  0.62110  Biso   1.000  O
  O34      1.0000 0.52870  0.68320  0.56276  Biso   1.000  O
  O35      1.0000 0.54710  0.56370  0.56982  Biso   1.000  O
  O36      1.0000 0.30420  0.62610  0.64830  Biso   1.000  O
