data_image0
_cell_length_a       11.395
_cell_length_b       18.663
_cell_length_c       24.329
_cell_angle_alpha    90
_cell_angle_beta     90
_cell_angle_gamma    90

_symmetry_space_group_name_H-M    P 1
_symmetry_int_tables_number       1

loop_
  _symmetry_equiv_pos_as_xyz
  'x, y, z'

loop_
  _atom_site_label
  _atom_site_occupancy
  _atom_site_fract_x
  _atom_site_fract_y
  _atom_site_fract_z
  _atom_site_thermal_displace_type
  _atom_site_B_iso_or_equiv
  _atom_site_type_symbol
  Co1      1.0000 0.46544  0.69993  0.48074  Biso   1.000  Co
  Co2      1.0000 0.46544  0.30007  0.51926  Biso   1.000  Co
  Co3      1.0000 0.53456  0.80007  0.98074  Biso   1.000  Co
  Co4      1.0000 0.53456  0.19993  0.01926  Biso   1.000  Co
  Co5      1.0000 0.46064  0.50000  0.50000  Biso   1.000  Co
  Co6      1.0000 0.53936  0.00000  0.00000  Biso   1.000  Co
  H1       1.0000 0.42370  0.52490  0.35550  Biso   1.000  H
  H2       1.0000 0.63350  0.59470  0.31920  Biso   1.000  H
  H3       1.0000 0.63480  0.53360  0.36440  Biso   1.000  H
  H4       1.0000 0.59510  0.51580  0.30350  Biso   1.000  H
  H5       1.0000 0.09320  0.60900  0.24300  Biso   1.000  H
  H6       1.0000 0.12980  0.78090  0.14510  Biso   1.000  H
  H7       1.0000 0.39210  0.72480  0.24800  Biso   1.000  H
  H8       1.0000 0.76420  0.53550  0.22490  Biso   1.000  H
  H9       1.0000 0.67920  0.53970  0.17340  Biso   1.000  H
  H10      1.0000 0.81550  0.52770  0.16470  Biso   1.000  H
  H11      1.0000 0.76410  0.64730  0.14570  Biso   1.000  H
  H12      1.0000 0.69240  0.80670  0.15660  Biso   1.000  H
  H13      1.0000 0.71800  0.89010  0.15590  Biso   1.000  H
  H14      1.0000 0.67030  0.85320  0.21010  Biso   1.000  H
  H15      1.0000 0.51480  0.91310  0.16780  Biso   1.000  H
  H16      1.0000 0.87480  0.75880  0.55040  Biso   1.000  H
  H17      1.0000 0.67350  0.75420  0.54850  Biso   1.000  H
  H18      1.0000 0.67890  0.65380  0.40820  Biso   1.000  H
  H19      1.0000 0.88040  0.65840  0.40410  Biso   1.000  H
  H20      1.0000 0.05600  0.73200  0.39910  Biso   1.000  H
  H21      1.0000 0.26010  0.73070  0.40240  Biso   1.000  H
  H22      1.0000 0.25130  0.67260  0.55560  Biso   1.000  H
  H23      1.0000 0.05250  0.68100  0.55910  Biso   1.000  H
  H24      1.0000 0.50220  0.83220  0.41300  Biso   1.000  H
  H25      1.0000 0.49360  0.95470  0.41750  Biso   1.000  H
  H26      1.0000 0.40720  0.93720  0.57530  Biso   1.000  H
  H27      1.0000 0.41870  0.81400  0.56680  Biso   1.000  H
  H28      1.0000 0.25330  0.51700  0.42030  Biso   1.000  H
  H29      1.0000 0.05240  0.51640  0.41870  Biso   1.000  H
  H30      1.0000 0.87150  0.44070  0.43020  Biso   1.000  H
  H31      1.0000 0.67050  0.44190  0.43310  Biso   1.000  H
  H32      1.0000 0.45330  0.62260  0.27420  Biso   1.000  H
  H33      1.0000 0.91770  0.64020  0.23390  Biso   1.000  H
  H34      1.0000 0.49390  0.77180  0.18540  Biso   1.000  H
  H35      1.0000 0.42370  0.47510  0.64450  Biso   1.000  H
  H36      1.0000 0.63350  0.40530  0.68080  Biso   1.000  H
  H37      1.0000 0.63480  0.46640  0.63560  Biso   1.000  H
  H38      1.0000 0.59510  0.48420  0.69650  Biso   1.000  H
  H39      1.0000 0.09320  0.39100  0.75700  Biso   1.000  H
  H40      1.0000 0.12980  0.21910  0.85490  Biso   1.000  H
  H41      1.0000 0.39210  0.27520  0.75200  Biso   1.000  H
  H42      1.0000 0.76420  0.46450  0.77510  Biso   1.000  H
  H43      1.0000 0.67920  0.46030  0.82660  Biso   1.000  H
  H44      1.0000 0.81550  0.47230  0.83530  Biso   1.000  H
  H45      1.0000 0.76410  0.35270  0.85430  Biso   1.000  H
  H46      1.0000 0.69240  0.19330  0.84340  Biso   1.000  H
  H47      1.0000 0.71800  0.10990  0.84410  Biso   1.000  H
  H48      1.0000 0.67030  0.14680  0.78990  Biso   1.000  H
  H49      1.0000 0.51480  0.08690  0.83220  Biso   1.000  H
  H50      1.0000 0.87480  0.24120  0.44960  Biso   1.000  H
  H51      1.0000 0.67350  0.24580  0.45150  Biso   1.000  H
  H52      1.0000 0.67890  0.34620  0.59180  Biso   1.000  H
  H53      1.0000 0.88040  0.34160  0.59590  Biso   1.000  H
  H54      1.0000 0.05600  0.26800  0.60090  Biso   1.000  H
  H55      1.0000 0.26010  0.26930  0.59760  Biso   1.000  H
  H56      1.0000 0.25130  0.32740  0.44440  Biso   1.000  H
  H57      1.0000 0.05250  0.31900  0.44090  Biso   1.000  H
  H58      1.0000 0.50220  0.16780  0.58700  Biso   1.000  H
  H59      1.0000 0.49360  0.04530  0.58250  Biso   1.000  H
  H60      1.0000 0.40720  0.06280  0.42470  Biso   1.000  H
  H61      1.0000 0.41870  0.18600  0.43320  Biso   1.000  H
  H62      1.0000 0.25330  0.48300  0.57970  Biso   1.000  H
  H63      1.0000 0.05240  0.48360  0.58130  Biso   1.000  H
  H64      1.0000 0.87150  0.55930  0.56980  Biso   1.000  H
  H65      1.0000 0.67050  0.55810  0.56690  Biso   1.000  H
  H66      1.0000 0.45330  0.37740  0.72580  Biso   1.000  H
  H67      1.0000 0.91770  0.35980  0.76610  Biso   1.000  H
  H68      1.0000 0.49390  0.22820  0.81460  Biso   1.000  H
  H69      1.0000 0.57630  0.97510  0.85550  Biso   1.000  H
  H70      1.0000 0.36650  0.90530  0.81920  Biso   1.000  H
  H71      1.0000 0.36520  0.96640  0.86440  Biso   1.000  H
  H72      1.0000 0.40490  0.98420  0.80350  Biso   1.000  H
  H73      1.0000 0.90680  0.89100  0.74300  Biso   1.000  H
  H74      1.0000 0.87020  0.71910  0.64510  Biso   1.000  H
  H75      1.0000 0.60790  0.77520  0.74800  Biso   1.000  H
  H76      1.0000 0.23580  0.96450  0.72490  Biso   1.000  H
  H77      1.0000 0.32080  0.96030  0.67340  Biso   1.000  H
  H78      1.0000 0.18450  0.97230  0.66470  Biso   1.000  H
  H79      1.0000 0.23590  0.85270  0.64570  Biso   1.000  H
  H80      1.0000 0.30760  0.69330  0.65660  Biso   1.000  H
  H81      1.0000 0.28200  0.60990  0.65590  Biso   1.000  H
  H82      1.0000 0.32970  0.64680  0.71010  Biso   1.000  H
  H83      1.0000 0.48520  0.58690  0.66780  Biso   1.000  H
  H84      1.0000 0.12520  0.74120  0.05040  Biso   1.000  H
  H85      1.0000 0.32650  0.74580  0.04850  Biso   1.000  H
  H86      1.0000 0.32110  0.84620  0.90820  Biso   1.000  H
  H87      1.0000 0.11960  0.84160  0.90410  Biso   1.000  H
  H88      1.0000 0.94400  0.76800  0.89910  Biso   1.000  H
  H89      1.0000 0.73990  0.76930  0.90240  Biso   1.000  H
  H90      1.0000 0.74870  0.82740  0.05560  Biso   1.000  H
  H91      1.0000 0.94750  0.81900  0.05910  Biso   1.000  H
  H92      1.0000 0.49780  0.66780  0.91300  Biso   1.000  H
  H93      1.0000 0.50640  0.54530  0.91750  Biso   1.000  H
  H94      1.0000 0.59280  0.56280  0.07530  Biso   1.000  H
  H95      1.0000 0.58130  0.68600  0.06680  Biso   1.000  H
  H96      1.0000 0.74670  0.98300  0.92030  Biso   1.000  H
  H97      1.0000 0.94760  0.98360  0.91870  Biso   1.000  H
  H98      1.0000 0.12850  0.05930  0.93020  Biso   1.000  H
  H99      1.0000 0.32950  0.05810  0.93310  Biso   1.000  H
  H100     1.0000 0.54670  0.87740  0.77420  Biso   1.000  H
  H101     1.0000 0.08230  0.85980  0.73390  Biso   1.000  H
  H102     1.0000 0.50610  0.72820  0.68540  Biso   1.000  H
  H103     1.0000 0.57630  0.02490  0.14450  Biso   1.000  H
  H104     1.0000 0.36650  0.09470  0.18080  Biso   1.000  H
  H105     1.0000 0.36520  0.03360  0.13560  Biso   1.000  H
  H106     1.0000 0.40490  0.01580  0.19650  Biso   1.000  H
  H107     1.0000 0.90680  0.10900  0.25700  Biso   1.000  H
  H108     1.0000 0.87020  0.28090  0.35490  Biso   1.000  H
  H109     1.0000 0.60790  0.22480  0.25200  Biso   1.000  H
  H110     1.0000 0.23580  0.03550  0.27510  Biso   1.000  H
  H111     1.0000 0.32080  0.03970  0.32660  Biso   1.000  H
  H112     1.0000 0.18450  0.02770  0.33530  Biso   1.000  H
  H113     1.0000 0.23590  0.14730  0.35430  Biso   1.000  H
  H114     1.0000 0.30760  0.30670  0.34340  Biso   1.000  H
  H115     1.0000 0.28200  0.39010  0.34410  Biso   1.000  H
  H116     1.0000 0.32970  0.35320  0.28990  Biso   1.000  H
  H117     1.0000 0.48520  0.41310  0.33220  Biso   1.000  H
  H118     1.0000 0.12520  0.25880  0.94960  Biso   1.000  H
  H119     1.0000 0.32650  0.25420  0.95150  Biso   1.000  H
  H120     1.0000 0.32110  0.15380  0.09180  Biso   1.000  H
  H121     1.0000 0.11960  0.15840  0.09590  Biso   1.000  H
  H122     1.0000 0.94400  0.23200  0.10090  Biso   1.000  H
  H123     1.0000 0.73990  0.23070  0.09760  Biso   1.000  H
  H124     1.0000 0.74870  0.17260  0.94440  Biso   1.000  H
  H125     1.0000 0.94750  0.18100  0.94090  Biso   1.000  H
  H126     1.0000 0.49780  0.33220  0.08700  Biso   1.000  H
  H127     1.0000 0.50640  0.45470  0.08250  Biso   1.000  H
  H128     1.0000 0.59280  0.43720  0.92470  Biso   1.000  H
  H129     1.0000 0.58130  0.31400  0.93320  Biso   1.000  H
  H130     1.0000 0.74670  0.01700  0.07970  Biso   1.000  H
  H131     1.0000 0.94760  0.01640  0.08130  Biso   1.000  H
  H132     1.0000 0.12850  0.94070  0.06980  Biso   1.000  H
  H133     1.0000 0.32950  0.94190  0.06690  Biso   1.000  H
  H134     1.0000 0.54670  0.12260  0.22580  Biso   1.000  H
  H135     1.0000 0.08230  0.14020  0.26610  Biso   1.000  H
  H136     1.0000 0.50610  0.27180  0.31460  Biso   1.000  H
  C1       1.0000 0.46360  0.61750  0.39770  Biso   1.000  C
  C2       1.0000 0.46630  0.56990  0.34740  Biso   1.000  C
  C3       1.0000 0.59430  0.55180  0.33220  Biso   1.000  C
  C4       1.0000 0.29260  0.61280  0.29780  Biso   1.000  C
  C5       1.0000 0.24850  0.66000  0.25240  Biso   1.000  C
  C6       1.0000 0.13790  0.64840  0.23090  Biso   1.000  C
  C7       1.0000 0.09320  0.69380  0.19210  Biso   1.000  C
  C8       1.0000 0.16040  0.75030  0.17220  Biso   1.000  C
  C9       1.0000 0.27450  0.76170  0.19280  Biso   1.000  C
  C10      1.0000 0.31690  0.71700  0.23330  Biso   1.000  C
  C11      1.0000 0.97240  0.68250  0.16700  Biso   1.000  C
  C12      1.0000 0.75680  0.55140  0.18710  Biso   1.000  C
  C13      1.0000 0.77510  0.63210  0.18440  Biso   1.000  C
  C14      1.0000 0.68440  0.67200  0.21960  Biso   1.000  C
  C15      1.0000 0.34610  0.82060  0.16910  Biso   1.000  C
  C16      1.0000 0.66690  0.85300  0.17030  Biso   1.000  C
  C17      1.0000 0.54090  0.86710  0.15160  Biso   1.000  C
  C18      1.0000 0.53630  0.87390  0.09010  Biso   1.000  C
  C19      1.0000 0.83640  0.73670  0.52080  Biso   1.000  C
  C20      1.0000 0.71540  0.73370  0.51920  Biso   1.000  C
  C21      1.0000 0.71930  0.67580  0.43730  Biso   1.000  C
  C22      1.0000 0.84020  0.67710  0.43460  Biso   1.000  C
  C23      1.0000 0.90030  0.70710  0.47850  Biso   1.000  C
  C24      1.0000 0.02990  0.70700  0.47840  Biso   1.000  C
  C25      1.0000 0.09420  0.72090  0.43230  Biso   1.000  C
  C26      1.0000 0.21760  0.71870  0.43420  Biso   1.000  C
  C27      1.0000 0.21150  0.68620  0.52340  Biso   1.000  C
  C28      1.0000 0.09210  0.68990  0.52590  Biso   1.000  C
  C29      1.0000 0.48220  0.85360  0.44670  Biso   1.000  C
  C30      1.0000 0.47820  0.92730  0.44910  Biso   1.000  C
  C31      1.0000 0.45150  0.96040  0.49760  Biso   1.000  C
  C32      1.0000 0.42780  0.91690  0.54130  Biso   1.000  C
  C33      1.0000 0.43380  0.84270  0.53580  Biso   1.000  C
  C34      1.0000 0.21180  0.50980  0.45320  Biso   1.000  C
  C35      1.0000 0.09170  0.50980  0.45230  Biso   1.000  C
  C36      1.0000 0.83260  0.46480  0.45880  Biso   1.000  C
  C37      1.0000 0.71220  0.46610  0.46070  Biso   1.000  C
  C38      1.0000 0.46360  0.38250  0.60230  Biso   1.000  C
  C39      1.0000 0.46630  0.43010  0.65260  Biso   1.000  C
  C40      1.0000 0.59430  0.44820  0.66780  Biso   1.000  C
  C41      1.0000 0.29260  0.38720  0.70220  Biso   1.000  C
  C42      1.0000 0.24850  0.34000  0.74760  Biso   1.000  C
  C43      1.0000 0.13790  0.35160  0.76910  Biso   1.000  C
  C44      1.0000 0.09320  0.30620  0.80790  Biso   1.000  C
  C45      1.0000 0.16040  0.24970  0.82780  Biso   1.000  C
  C46      1.0000 0.27450  0.23830  0.80720  Biso   1.000  C
  C47      1.0000 0.31690  0.28300  0.76670  Biso   1.000  C
  C48      1.0000 0.97240  0.31750  0.83300  Biso   1.000  C
  C49      1.0000 0.75680  0.44860  0.81290  Biso   1.000  C
  C50      1.0000 0.77510  0.36790  0.81560  Biso   1.000  C
  C51      1.0000 0.68440  0.32800  0.78040  Biso   1.000  C
  C52      1.0000 0.34610  0.17940  0.83090  Biso   1.000  C
  C53      1.0000 0.66690  0.14700  0.82970  Biso   1.000  C
  C54      1.0000 0.54090  0.13290  0.84840  Biso   1.000  C
  C55      1.0000 0.53630  0.12610  0.90990  Biso   1.000  C
  C56      1.0000 0.83640  0.26330  0.47920  Biso   1.000  C
  C57      1.0000 0.71540  0.26630  0.48080  Biso   1.000  C
  C58      1.0000 0.71930  0.32420  0.56270  Biso   1.000  C
  C59      1.0000 0.84020  0.32290  0.56540  Biso   1.000  C
  C60      1.0000 0.90030  0.29290  0.52150  Biso   1.000  C
  C61      1.0000 0.02990  0.29300  0.52160  Biso   1.000  C
  C62      1.0000 0.09420  0.27910  0.56770  Biso   1.000  C
  C63      1.0000 0.21760  0.28130  0.56580  Biso   1.000  C
  C64      1.0000 0.21150  0.31380  0.47660  Biso   1.000  C
  C65      1.0000 0.09210  0.31010  0.47410  Biso   1.000  C
  C66      1.0000 0.48220  0.14640  0.55330  Biso   1.000  C
  C67      1.0000 0.47820  0.07270  0.55090  Biso   1.000  C
  C68      1.0000 0.45150  0.03960  0.50240  Biso   1.000  C
  C69      1.0000 0.42780  0.08310  0.45870  Biso   1.000  C
  C70      1.0000 0.43380  0.15730  0.46420  Biso   1.000  C
  C71      1.0000 0.21180  0.49020  0.54680  Biso   1.000  C
  C72      1.0000 0.09170  0.49020  0.54770  Biso   1.000  C
  C73      1.0000 0.83260  0.53520  0.54120  Biso   1.000  C
  C74      1.0000 0.71220  0.53390  0.53930  Biso   1.000  C
  C75      1.0000 0.53640  0.88250  0.89770  Biso   1.000  C
  C76      1.0000 0.53370  0.93010  0.84740  Biso   1.000  C
  C77      1.0000 0.40570  0.94820  0.83220  Biso   1.000  C
  C78      1.0000 0.70740  0.88720  0.79780  Biso   1.000  C
  C79      1.0000 0.75150  0.84000  0.75240  Biso   1.000  C
  C80      1.0000 0.86210  0.85160  0.73090  Biso   1.000  C
  C81      1.0000 0.90680  0.80620  0.69210  Biso   1.000  C
  C82      1.0000 0.83960  0.74970  0.67220  Biso   1.000  C
  C83      1.0000 0.72550  0.73830  0.69280  Biso   1.000  C
  C84      1.0000 0.68310  0.78300  0.73330  Biso   1.000  C
  C85      1.0000 0.02760  0.81750  0.66700  Biso   1.000  C
  C86      1.0000 0.24320  0.94860  0.68710  Biso   1.000  C
  C87      1.0000 0.22490  0.86790  0.68440  Biso   1.000  C
  C88      1.0000 0.31560  0.82800  0.71960  Biso   1.000  C
  C89      1.0000 0.65390  0.67940  0.66910  Biso   1.000  C
  C90      1.0000 0.33310  0.64700  0.67030  Biso   1.000  C
  C91      1.0000 0.45910  0.63290  0.65160  Biso   1.000  C
  C92      1.0000 0.46370  0.62610  0.59010  Biso   1.000  C
  C93      1.0000 0.16360  0.76330  0.02080  Biso   1.000  C
  C94      1.0000 0.28460  0.76630  0.01920  Biso   1.000  C
  C95      1.0000 0.28070  0.82420  0.93730  Biso   1.000  C
  C96      1.0000 0.15980  0.82290  0.93460  Biso   1.000  C
  C97      1.0000 0.09970  0.79290  0.97850  Biso   1.000  C
  C98      1.0000 0.97010  0.79300  0.97840  Biso   1.000  C
  C99      1.0000 0.90580  0.77910  0.93230  Biso   1.000  C
  C100     1.0000 0.78240  0.78130  0.93420  Biso   1.000  C
  C101     1.0000 0.78850  0.81380  0.02340  Biso   1.000  C
  C102     1.0000 0.90790  0.81010  0.02590  Biso   1.000  C
  C103     1.0000 0.51780  0.64640  0.94670  Biso   1.000  C
  C104     1.0000 0.52180  0.57270  0.94910  Biso   1.000  C
  C105     1.0000 0.54850  0.53960  0.99760  Biso   1.000  C
  C106     1.0000 0.57220  0.58310  0.04130  Biso   1.000  C
  C107     1.0000 0.56620  0.65730  0.03580  Biso   1.000  C
  C108     1.0000 0.78820  0.99020  0.95320  Biso   1.000  C
  C109     1.0000 0.90830  0.99020  0.95230  Biso   1.000  C
  C110     1.0000 0.16740  0.03520  0.95880  Biso   1.000  C
  C111     1.0000 0.28780  0.03390  0.96070  Biso   1.000  C
  C112     1.0000 0.53640  0.11750  0.10230  Biso   1.000  C
  C113     1.0000 0.53370  0.06990  0.15260  Biso   1.000  C
  C114     1.0000 0.40570  0.05180  0.16780  Biso   1.000  C
  C115     1.0000 0.70740  0.11280  0.20220  Biso   1.000  C
  C116     1.0000 0.75150  0.16000  0.24760  Biso   1.000  C
  C117     1.0000 0.86210  0.14840  0.26910  Biso   1.000  C
  C118     1.0000 0.90680  0.19380  0.30790  Biso   1.000  C
  C119     1.0000 0.83960  0.25030  0.32780  Biso   1.000  C
  C120     1.0000 0.72550  0.26170  0.30720  Biso   1.000  C
  C121     1.0000 0.68310  0.21700  0.26670  Biso   1.000  C
  C122     1.0000 0.02760  0.18250  0.33300  Biso   1.000  C
  C123     1.0000 0.24320  0.05140  0.31290  Biso   1.000  C
  C124     1.0000 0.22490  0.13210  0.31560  Biso   1.000  C
  C125     1.0000 0.31560  0.17200  0.28040  Biso   1.000  C
  C126     1.0000 0.65390  0.32060  0.33090  Biso   1.000  C
  C127     1.0000 0.33310  0.35300  0.32970  Biso   1.000  C
  C128     1.0000 0.45910  0.36710  0.34840  Biso   1.000  C
  C129     1.0000 0.46370  0.37390  0.40990  Biso   1.000  C
  C130     1.0000 0.16360  0.23670  0.97920  Biso   1.000  C
  C131     1.0000 0.28460  0.23370  0.98080  Biso   1.000  C
  C132     1.0000 0.28070  0.17580  0.06270  Biso   1.000  C
  C133     1.0000 0.15980  0.17710  0.06540  Biso   1.000  C
  C134     1.0000 0.09970  0.20710  0.02150  Biso   1.000  C
  C135     1.0000 0.97010  0.20700  0.02160  Biso   1.000  C
  C136     1.0000 0.90580  0.22090  0.06770  Biso   1.000  C
  C137     1.0000 0.78240  0.21870  0.06580  Biso   1.000  C
  C138     1.0000 0.78850  0.18620  0.97660  Biso   1.000  C
  C139     1.0000 0.90790  0.18990  0.97410  Biso   1.000  C
  C140     1.0000 0.51780  0.35360  0.05330  Biso   1.000  C
  C141     1.0000 0.52180  0.42730  0.05090  Biso   1.000  C
  C142     1.0000 0.54850  0.46040  0.00240  Biso   1.000  C
  C143     1.0000 0.57220  0.41690  0.95870  Biso   1.000  C
  C144     1.0000 0.56620  0.34270  0.96420  Biso   1.000  C
  C145     1.0000 0.78820  0.00980  0.04680  Biso   1.000  C
  C146     1.0000 0.90830  0.00980  0.04770  Biso   1.000  C
  C147     1.0000 0.16740  0.96480  0.04120  Biso   1.000  C
  C148     1.0000 0.28780  0.96610  0.03930  Biso   1.000  C
  C149     1.0000 0.02710  0.50000  0.50000  Biso   1.000  C
  C150     1.0000 0.89700  0.50000  0.50000  Biso   1.000  C
  C151     1.0000 0.97290  0.00000  0.00000  Biso   1.000  C
  C152     1.0000 0.10300  0.00000  0.00000  Biso   1.000  C
  N1       1.0000 0.41000  0.60560  0.30070  Biso   1.000  N
  N2       1.0000 0.89530  0.65060  0.20060  Biso   1.000  N
  N3       1.0000 0.46470  0.81100  0.17180  Biso   1.000  N
  N4       1.0000 0.65440  0.70360  0.47850  Biso   1.000  N
  N5       1.0000 0.27640  0.70030  0.47920  Biso   1.000  N
  N6       1.0000 0.45970  0.81110  0.48900  Biso   1.000  N
  N7       1.0000 0.41000  0.39440  0.69930  Biso   1.000  N
  N8       1.0000 0.89530  0.34940  0.79940  Biso   1.000  N
  N9       1.0000 0.46470  0.18900  0.82820  Biso   1.000  N
  N10      1.0000 0.65440  0.29640  0.52150  Biso   1.000  N
  N11      1.0000 0.27640  0.29970  0.52080  Biso   1.000  N
  N12      1.0000 0.45970  0.18890  0.51100  Biso   1.000  N
  N13      1.0000 0.59000  0.89440  0.80070  Biso   1.000  N
  N14      1.0000 0.10470  0.84940  0.70060  Biso   1.000  N
  N15      1.0000 0.53530  0.68900  0.67180  Biso   1.000  N
  N16      1.0000 0.34560  0.79640  0.97850  Biso   1.000  N
  N17      1.0000 0.72360  0.79970  0.97920  Biso   1.000  N
  N18      1.0000 0.54030  0.68890  0.98900  Biso   1.000  N
  N19      1.0000 0.59000  0.10560  0.19930  Biso   1.000  N
  N20      1.0000 0.10470  0.15060  0.29940  Biso   1.000  N
  N21      1.0000 0.53530  0.31100  0.32820  Biso   1.000  N
  N22      1.0000 0.34560  0.20360  0.02150  Biso   1.000  N
  N23      1.0000 0.72360  0.20030  0.02080  Biso   1.000  N
  N24      1.0000 0.54030  0.31110  0.01100  Biso   1.000  N
  N25      1.0000 0.27170  0.50000  0.50000  Biso   1.000  N
  N26      1.0000 0.65080  0.50000  0.50000  Biso   1.000  N
  N27      1.0000 0.72830  0.00000  0.00000  Biso   1.000  N
  N28      1.0000 0.34920  0.00000  0.00000  Biso   1.000  N
  O1       1.0000 0.46510  0.59075  0.44555  Biso   1.000  O
  O2       1.0000 0.46280  0.68525  0.39270  Biso   1.000  O
  O3       1.0000 0.22600  0.58540  0.33250  Biso   1.000  O
  O4       1.0000 0.71910  0.70690  0.26050  Biso   1.000  O
  O5       1.0000 0.57810  0.66470  0.20480  Biso   1.000  O
  O6       1.0000 0.94860  0.70170  0.12150  Biso   1.000  O
  O7       1.0000 0.52680  0.81713  0.06262  Biso   1.000  O
  O8       1.0000 0.54640  0.93568  0.06976  Biso   1.000  O
  O9       1.0000 0.30330  0.87370  0.14800  Biso   1.000  O
  O10      1.0000 0.46510  0.40925  0.55445  Biso   1.000  O
  O11      1.0000 0.46280  0.31475  0.60730  Biso   1.000  O
  O12      1.0000 0.22600  0.41460  0.66750  Biso   1.000  O
  O13      1.0000 0.71910  0.29310  0.73950  Biso   1.000  O
  O14      1.0000 0.57810  0.33530  0.79520  Biso   1.000  O
  O15      1.0000 0.94860  0.29830  0.87850  Biso   1.000  O
  O16      1.0000 0.52680  0.18287  0.93738  Biso   1.000  O
  O17      1.0000 0.54640  0.06432  0.93024  Biso   1.000  O
  O18      1.0000 0.30330  0.12630  0.85200  Biso   1.000  O
  O19      1.0000 0.53490  0.90925  0.94555  Biso   1.000  O
  O20      1.0000 0.53720  0.81475  0.89270  Biso   1.000  O
  O21      1.0000 0.77400  0.91460  0.83250  Biso   1.000  O
  O22      1.0000 0.28090  0.79310  0.76050  Biso   1.000  O
  O23      1.0000 0.42190  0.83530  0.70480  Biso   1.000  O
  O24      1.0000 0.05140  0.79830  0.62150  Biso   1.000  O
  O25      1.0000 0.47320  0.68287  0.56262  Biso   1.000  O
  O26      1.0000 0.45360  0.56432  0.56976  Biso   1.000  O
  O27      1.0000 0.69670  0.62630  0.64800  Biso   1.000  O
  O28      1.0000 0.53490  0.09075  0.05445  Biso   1.000  O
  O29      1.0000 0.53720  0.18525  0.10730  Biso   1.000  O
  O30      1.0000 0.77400  0.08540  0.16750  Biso   1.000  O
  O31      1.0000 0.28090  0.20690  0.23950  Biso   1.000  O
  O32      1.0000 0.42190  0.16470  0.29520  Biso   1.000  O
  O33      1.0000 0.05140  0.20170  0.37850  Biso   1.000  O
  O34      1.0000 0.47320  0.31713  0.43738  Biso   1.000  O
  O35      1.0000 0.45360  0.43568  0.43024  Biso   1.000  O
  O36      1.0000 0.69670  0.37370  0.35200  Biso   1.000  O
