data_image0
_cell_length_a       7.77189
_cell_length_b       12.6613
_cell_length_c       12.6613
_cell_angle_alpha    64.0745
_cell_angle_beta     78.1933
_cell_angle_gamma    101.807

_symmetry_space_group_name_H-M    P 1
_symmetry_int_tables_number       1

loop_
  _symmetry_equiv_pos_as_xyz
  'x, y, z'

loop_
  _atom_site_label
  _atom_site_occupancy
  _atom_site_fract_x
  _atom_site_fract_y
  _atom_site_fract_z
  _atom_site_thermal_displace_type
  _atom_site_B_iso_or_equiv
  _atom_site_type_symbol
  Cu1      1.0000 0.50000  0.50000  0.00000  Biso   1.000  Cu
  Cu2      1.0000 0.50000  0.00000  0.50000  Biso   1.000  Cu
  Cu3      1.0000 0.00000  0.50000  0.50000  Biso   1.000  Cu
  H1       1.0000 0.08300  0.61500  0.99200  Biso   1.000  H
  H2       1.0000 0.56100  0.84300  0.74000  Biso   1.000  H
  H3       1.0000 0.12000  0.84200  0.64000  Biso   1.000  H
  H4       1.0000 0.07500  0.99200  0.39300  Biso   1.000  H
  H5       1.0000 0.30100  0.74000  0.41700  Biso   1.000  H
  H6       1.0000 0.76000  0.64000  0.51800  Biso   1.000  H
  H7       1.0000 0.46800  0.39300  0.61500  Biso   1.000  H
  H8       1.0000 0.71800  0.41700  0.84300  Biso   1.000  H
  H9       1.0000 0.27800  0.51800  0.84200  Biso   1.000  H
  H10      1.0000 0.91700  0.38500  0.00800  Biso   1.000  H
  H11      1.0000 0.43900  0.15700  0.26000  Biso   1.000  H
  H12      1.0000 0.88000  0.15800  0.36000  Biso   1.000  H
  H13      1.0000 0.92500  0.00800  0.60700  Biso   1.000  H
  H14      1.0000 0.69900  0.26000  0.58300  Biso   1.000  H
  H15      1.0000 0.24000  0.36000  0.48200  Biso   1.000  H
  H16      1.0000 0.53200  0.60700  0.38500  Biso   1.000  H
  H17      1.0000 0.28200  0.58300  0.15700  Biso   1.000  H
  H18      1.0000 0.72200  0.48200  0.15800  Biso   1.000  H
  C1       1.0000 0.85370  0.66944  0.84814  Biso   1.000  C
  C2       1.0000 0.06034  0.71776  0.82254  Biso   1.000  C
  C3       1.0000 0.14854  0.67626  0.91034  Biso   1.000  C
  C4       1.0000 0.43017  0.81107  0.76426  Biso   1.000  C
  C5       1.0000 0.17144  0.81174  0.70472  Biso   1.000  C
  C6       1.0000 0.70184  0.84814  0.48242  Biso   1.000  C
  C7       1.0000 0.88288  0.82254  0.45970  Biso   1.000  C
  C8       1.0000 0.05888  0.91034  0.41340  Biso   1.000  C
  C9       1.0000 0.19443  0.76426  0.42467  Biso   1.000  C
  C10      1.0000 0.87616  0.70472  0.48354  Biso   1.000  C
  C11      1.0000 0.18426  0.48242  0.66944  Biso   1.000  C
  C12      1.0000 0.34258  0.45970  0.71776  Biso   1.000  C
  C13      1.0000 0.47228  0.41340  0.67626  Biso   1.000  C
  C14      1.0000 0.61910  0.42467  0.81107  Biso   1.000  C
  C15      1.0000 0.35970  0.48354  0.81174  Biso   1.000  C
  C16      1.0000 0.14630  0.33056  0.15186  Biso   1.000  C
  C17      1.0000 0.93966  0.28224  0.17746  Biso   1.000  C
  C18      1.0000 0.85146  0.32374  0.08966  Biso   1.000  C
  C19      1.0000 0.56983  0.18893  0.23574  Biso   1.000  C
  C20      1.0000 0.82856  0.18826  0.29528  Biso   1.000  C
  C21      1.0000 0.29816  0.15186  0.51758  Biso   1.000  C
  C22      1.0000 0.11712  0.17746  0.54030  Biso   1.000  C
  C23      1.0000 0.94112  0.08966  0.58660  Biso   1.000  C
  C24      1.0000 0.80557  0.23574  0.57533  Biso   1.000  C
  C25      1.0000 0.12384  0.29528  0.51646  Biso   1.000  C
  C26      1.0000 0.81574  0.51758  0.33056  Biso   1.000  C
  C27      1.0000 0.65742  0.54030  0.28224  Biso   1.000  C
  C28      1.0000 0.52772  0.58660  0.32374  Biso   1.000  C
  C29      1.0000 0.38090  0.57533  0.18893  Biso   1.000  C
  C30      1.0000 0.64030  0.51646  0.18826  Biso   1.000  C
  N1       1.0000 0.35664  0.85966  0.67404  Biso   1.000  N
  N2       1.0000 0.33453  0.72267  0.88118  Biso   1.000  N
  N3       1.0000 0.03068  0.67404  0.46630  Biso   1.000  N
  N4       1.0000 0.21571  0.88118  0.39615  Biso   1.000  N
  N5       1.0000 0.49698  0.46630  0.85966  Biso   1.000  N
  N6       1.0000 0.61186  0.39615  0.72267  Biso   1.000  N
  N7       1.0000 0.64336  0.14034  0.32596  Biso   1.000  N
  N8       1.0000 0.66547  0.27733  0.11882  Biso   1.000  N
  N9       1.0000 0.96932  0.32596  0.53370  Biso   1.000  N
  N10      1.0000 0.78429  0.11882  0.60385  Biso   1.000  N
  N11      1.0000 0.50302  0.53370  0.14034  Biso   1.000  N
  N12      1.0000 0.38814  0.60385  0.27733  Biso   1.000  N
  O1       1.0000 0.76882  0.56100  0.94454  Biso   1.000  O
  O2       1.0000 0.78281  0.73342  0.77859  Biso   1.000  O
  O3       1.0000 0.71336  0.94454  0.49446  Biso   1.000  O
  O4       1.0000 0.56140  0.77859  0.48799  Biso   1.000  O
  O5       1.0000 0.20782  0.49446  0.56100  Biso   1.000  O
  O6       1.0000 0.04939  0.48799  0.73342  Biso   1.000  O
  O7       1.0000 0.23118  0.43900  0.05546  Biso   1.000  O
  O8       1.0000 0.21719  0.26658  0.22141  Biso   1.000  O
  O9       1.0000 0.28664  0.05546  0.50554  Biso   1.000  O
  O10      1.0000 0.43860  0.22141  0.51201  Biso   1.000  O
  O11      1.0000 0.79218  0.50554  0.43900  Biso   1.000  O
  O12      1.0000 0.95061  0.51201  0.26658  Biso   1.000  O
