data_image0
_cell_length_a       7.71799
_cell_length_b       25.2869
_cell_length_c       25.2869
_cell_angle_alpha    61.022
_cell_angle_beta     84.1607
_cell_angle_gamma    95.8393

_symmetry_space_group_name_H-M    P 1
_symmetry_int_tables_number       1

loop_
  _symmetry_equiv_pos_as_xyz
  'x, y, z'

loop_
  _atom_site_label
  _atom_site_occupancy
  _atom_site_fract_x
  _atom_site_fract_y
  _atom_site_fract_z
  _atom_site_thermal_displace_type
  _atom_site_B_iso_or_equiv
  _atom_site_type_symbol
  Cu1      1.0000 0.74673  0.74746  0.00582  Biso   1.000  Cu
  Cu2      1.0000 0.25107  0.50083  0.25653  Biso   1.000  Cu
  Cu3      1.0000 0.75255  0.00582  0.24672  Biso   1.000  Cu
  Cu4      1.0000 0.50760  0.25653  0.24264  Biso   1.000  Cu
  Cu5      1.0000 0.99927  0.24672  0.74746  Biso   1.000  Cu
  Cu6      1.0000 0.75024  0.24264  0.50083  Biso   1.000  Cu
  Cu7      1.0000 0.25327  0.25254  0.99418  Biso   1.000  Cu
  Cu8      1.0000 0.74893  0.49917  0.74347  Biso   1.000  Cu
  Cu9      1.0000 0.24745  0.99418  0.75328  Biso   1.000  Cu
  Cu10     1.0000 0.49240  0.74347  0.75736  Biso   1.000  Cu
  Cu11     1.0000 0.00073  0.75328  0.25254  Biso   1.000  Cu
  Cu12     1.0000 0.24976  0.75736  0.49917  Biso   1.000  Cu
  H1       1.0000 0.98520  0.67760  0.08290  Biso   1.000  H
  H2       1.0000 0.47860  0.63010  0.09030  Biso   1.000  H
  H3       1.0000 0.72910  0.50870  0.20440  Biso   1.000  H
  H4       1.0000 0.51290  0.31450  0.42510  Biso   1.000  H
  H5       1.0000 0.01010  0.36230  0.42670  Biso   1.000  H
  H6       1.0000 0.76580  0.48730  0.31350  Biso   1.000  H
  H7       1.0000 0.22000  0.79420  0.01380  Biso   1.000  H
  H8       1.0000 0.85200  0.78850  0.13530  Biso   1.000  H
  H9       1.0000 0.30930  0.74680  0.18330  Biso   1.000  H
  H10      1.0000 0.17760  0.74430  0.83010  Biso   1.000  H
  H11      1.0000 0.64150  0.70760  0.87500  Biso   1.000  H
  H12      1.0000 0.27360  0.70000  0.99760  Biso   1.000  H
  H13      1.0000 0.06810  0.08290  0.23950  Biso   1.000  H
  H14      1.0000 0.56890  0.09030  0.27960  Biso   1.000  H
  H15      1.0000 0.93350  0.20440  0.28690  Biso   1.000  H
  H16      1.0000 0.93800  0.42510  0.26040  Biso   1.000  H
  H17      1.0000 0.43680  0.42670  0.21100  Biso   1.000  H
  H18      1.0000 0.07930  0.31350  0.19920  Biso   1.000  H
  H19      1.0000 0.23380  0.01380  0.19200  Biso   1.000  H
  H20      1.0000 0.98730  0.13530  0.07620  Biso   1.000  H
  H21      1.0000 0.49260  0.18330  0.06990  Biso   1.000  H
  H22      1.0000 0.00770  0.83010  0.42560  Biso   1.000  H
  H23      1.0000 0.51650  0.87500  0.41740  Biso   1.000  H
  H24      1.0000 0.27120  0.99760  0.30240  Biso   1.000  H
  H25      1.0000 0.30760  0.23950  0.67760  Biso   1.000  H
  H26      1.0000 0.84850  0.27960  0.63010  Biso   1.000  H
  H27      1.0000 0.22040  0.28690  0.50870  Biso   1.000  H
  H28      1.0000 0.19840  0.26040  0.31450  Biso   1.000  H
  H29      1.0000 0.64780  0.21100  0.36230  Biso   1.000  H
  H30      1.0000 0.27850  0.19920  0.48730  Biso   1.000  H
  H31      1.0000 0.42580  0.19200  0.79420  Biso   1.000  H
  H32      1.0000 0.06350  0.07620  0.78850  Biso   1.000  H
  H33      1.0000 0.56250  0.06990  0.74680  Biso   1.000  H
  H34      1.0000 0.43330  0.42560  0.74430  Biso   1.000  H
  H35      1.0000 0.93390  0.41740  0.70760  Biso   1.000  H
  H36      1.0000 0.57360  0.30240  0.70000  Biso   1.000  H
  H37      1.0000 0.01480  0.32240  0.91710  Biso   1.000  H
  H38      1.0000 0.52140  0.36990  0.90970  Biso   1.000  H
  H39      1.0000 0.27090  0.49130  0.79560  Biso   1.000  H
  H40      1.0000 0.48710  0.68550  0.57490  Biso   1.000  H
  H41      1.0000 0.98990  0.63770  0.57330  Biso   1.000  H
  H42      1.0000 0.23420  0.51270  0.68650  Biso   1.000  H
  H43      1.0000 0.78000  0.20580  0.98620  Biso   1.000  H
  H44      1.0000 0.14800  0.21150  0.86470  Biso   1.000  H
  H45      1.0000 0.69070  0.25320  0.81670  Biso   1.000  H
  H46      1.0000 0.82240  0.25570  0.16990  Biso   1.000  H
  H47      1.0000 0.35850  0.29240  0.12500  Biso   1.000  H
  H48      1.0000 0.72640  0.30000  0.00240  Biso   1.000  H
  H49      1.0000 0.93190  0.91710  0.76050  Biso   1.000  H
  H50      1.0000 0.43110  0.90970  0.72040  Biso   1.000  H
  H51      1.0000 0.06650  0.79560  0.71310  Biso   1.000  H
  H52      1.0000 0.06200  0.57490  0.73960  Biso   1.000  H
  H53      1.0000 0.56320  0.57330  0.78900  Biso   1.000  H
  H54      1.0000 0.92070  0.68650  0.80080  Biso   1.000  H
  H55      1.0000 0.76620  0.98620  0.80800  Biso   1.000  H
  H56      1.0000 0.01270  0.86470  0.92380  Biso   1.000  H
  H57      1.0000 0.50740  0.81670  0.93010  Biso   1.000  H
  H58      1.0000 0.99230  0.16990  0.57440  Biso   1.000  H
  H59      1.0000 0.48350  0.12500  0.58260  Biso   1.000  H
  H60      1.0000 0.72880  0.00240  0.69760  Biso   1.000  H
  H61      1.0000 0.69240  0.76050  0.32240  Biso   1.000  H
  H62      1.0000 0.15150  0.72040  0.36990  Biso   1.000  H
  H63      1.0000 0.77960  0.71310  0.49130  Biso   1.000  H
  H64      1.0000 0.80160  0.73960  0.68550  Biso   1.000  H
  H65      1.0000 0.35220  0.78900  0.63770  Biso   1.000  H
  H66      1.0000 0.72150  0.80080  0.51270  Biso   1.000  H
  H67      1.0000 0.57420  0.80800  0.20580  Biso   1.000  H
  H68      1.0000 0.93650  0.92380  0.21150  Biso   1.000  H
  H69      1.0000 0.43750  0.93010  0.25320  Biso   1.000  H
  H70      1.0000 0.56670  0.57440  0.25570  Biso   1.000  H
  H71      1.0000 0.06610  0.58260  0.29240  Biso   1.000  H
  H72      1.0000 0.42640  0.69760  0.30000  Biso   1.000  H
  C1       1.0000 0.05625  0.57939  0.17354  Biso   1.000  C
  C2       1.0000 0.88366  0.59198  0.14920  Biso   1.000  C
  C3       1.0000 0.87964  0.64804  0.10092  Biso   1.000  C
  C4       1.0000 0.58490  0.61940  0.10540  Biso   1.000  C
  C5       1.0000 0.72812  0.54922  0.17256  Biso   1.000  C
  C6       1.0000 0.44000  0.41640  0.33950  Biso   1.000  C
  C7       1.0000 0.61080  0.40350  0.36350  Biso   1.000  C
  C8       1.0000 0.61640  0.34500  0.40940  Biso   1.000  C
  C9       1.0000 0.90600  0.37360  0.41010  Biso   1.000  C
  C10      1.0000 0.76590  0.44610  0.34400  Biso   1.000  C
  C11      1.0000 0.47690  0.75480  0.08360  Biso   1.000  C
  C12      1.0000 0.29330  0.76670  0.09580  Biso   1.000  C
  C13      1.0000 0.17950  0.78570  0.05450  Biso   1.000  C
  C14      1.0000 0.96800  0.78330  0.12440  Biso   1.000  C
  C15      1.0000 0.23370  0.75840  0.15350  Biso   1.000  C
  C16      1.0000 0.01450  0.73780  0.92860  Biso   1.000  C
  C17      1.0000 0.19740  0.72570  0.91590  Biso   1.000  C
  C18      1.0000 0.25570  0.73360  0.85900  Biso   1.000  C
  C19      1.0000 0.52410  0.71140  0.88630  Biso   1.000  C
  C20      1.0000 0.31280  0.70790  0.95720  Biso   1.000  C
  C21      1.0000 0.22979  0.17354  0.24707  Biso   1.000  C
  C22      1.0000 0.03286  0.14920  0.25882  Biso   1.000  C
  C23      1.0000 0.98056  0.10092  0.25104  Biso   1.000  C
  C24      1.0000 0.69030  0.10540  0.27520  Biso   1.000  C
  C25      1.0000 0.90068  0.17256  0.27822  Biso   1.000  C
  C26      1.0000 0.77950  0.33950  0.24410  Biso   1.000  C
  C27      1.0000 0.97430  0.36350  0.23300  Biso   1.000  C
  C28      1.0000 0.02580  0.40940  0.24560  Biso   1.000  C
  C29      1.0000 0.31610  0.41010  0.21630  Biso   1.000  C
  C30      1.0000 0.10990  0.34400  0.20990  Biso   1.000  C
  C31      1.0000 0.56050  0.08360  0.16160  Biso   1.000  C
  C32      1.0000 0.38910  0.09580  0.13750  Biso   1.000  C
  C33      1.0000 0.23400  0.05450  0.15980  Biso   1.000  C
  C34      1.0000 0.09240  0.12440  0.09230  Biso   1.000  C
  C35      1.0000 0.38720  0.15350  0.08810  Biso   1.000  C
  C36      1.0000 0.94310  0.92860  0.33360  Biso   1.000  C
  C37      1.0000 0.11330  0.91590  0.35840  Biso   1.000  C
  C38      1.0000 0.11470  0.85900  0.40740  Biso   1.000  C
  C39      1.0000 0.41040  0.88630  0.40230  Biso   1.000  C
  C40      1.0000 0.27000  0.95720  0.33490  Biso   1.000  C
  C41      1.0000 0.47686  0.24707  0.57939  Biso   1.000  C
  C42      1.0000 0.29168  0.25882  0.59198  Biso   1.000  C
  C43      1.0000 0.23160  0.25104  0.64804  Biso   1.000  C
  C44      1.0000 0.96550  0.27520  0.61940  Biso   1.000  C
  C45      1.0000 0.17890  0.27822  0.54922  Biso   1.000  C
  C46      1.0000 0.02360  0.24410  0.41640  Biso   1.000  C
  C47      1.0000 0.20730  0.23300  0.40350  Biso   1.000  C
  C48      1.0000 0.27140  0.24560  0.34500  Biso   1.000  C
  C49      1.0000 0.53240  0.21630  0.37360  Biso   1.000  C
  C50      1.0000 0.31980  0.20990  0.44610  Biso   1.000  C
  C51      1.0000 0.72210  0.16160  0.75480  Biso   1.000  C
  C52      1.0000 0.52660  0.13750  0.76670  Biso   1.000  C
  C53      1.0000 0.39380  0.15980  0.78570  Biso   1.000  C
  C54      1.0000 0.18470  0.09230  0.78330  Biso   1.000  C
  C55      1.0000 0.47530  0.08810  0.75840  Biso   1.000  C
  C56      1.0000 0.27670  0.33360  0.73780  Biso   1.000  C
  C57      1.0000 0.47170  0.35840  0.72570  Biso   1.000  C
  C58      1.0000 0.52210  0.40740  0.73360  Biso   1.000  C
  C59      1.0000 0.81270  0.40230  0.71140  Biso   1.000  C
  C60      1.0000 0.60490  0.33490  0.70790  Biso   1.000  C
  C61      1.0000 0.94375  0.42061  0.82646  Biso   1.000  C
  C62      1.0000 0.11634  0.40802  0.85080  Biso   1.000  C
  C63      1.0000 0.12036  0.35196  0.89908  Biso   1.000  C
  C64      1.0000 0.41510  0.38060  0.89460  Biso   1.000  C
  C65      1.0000 0.27188  0.45078  0.82744  Biso   1.000  C
  C66      1.0000 0.56000  0.58360  0.66050  Biso   1.000  C
  C67      1.0000 0.38920  0.59650  0.63650  Biso   1.000  C
  C68      1.0000 0.38360  0.65500  0.59060  Biso   1.000  C
  C69      1.0000 0.09400  0.62640  0.58990  Biso   1.000  C
  C70      1.0000 0.23410  0.55390  0.65600  Biso   1.000  C
  C71      1.0000 0.52310  0.24520  0.91640  Biso   1.000  C
  C72      1.0000 0.70670  0.23330  0.90420  Biso   1.000  C
  C73      1.0000 0.82050  0.21430  0.94550  Biso   1.000  C
  C74      1.0000 0.03200  0.21670  0.87560  Biso   1.000  C
  C75      1.0000 0.76630  0.24160  0.84650  Biso   1.000  C
  C76      1.0000 0.98550  0.26220  0.07140  Biso   1.000  C
  C77      1.0000 0.80260  0.27430  0.08410  Biso   1.000  C
  C78      1.0000 0.74430  0.26640  0.14100  Biso   1.000  C
  C79      1.0000 0.47590  0.28860  0.11370  Biso   1.000  C
  C80      1.0000 0.68720  0.29210  0.04280  Biso   1.000  C
  C81      1.0000 0.77021  0.82646  0.75293  Biso   1.000  C
  C82      1.0000 0.96714  0.85080  0.74118  Biso   1.000  C
  C83      1.0000 0.01944  0.89908  0.74896  Biso   1.000  C
  C84      1.0000 0.30970  0.89460  0.72480  Biso   1.000  C
  C85      1.0000 0.09932  0.82744  0.72178  Biso   1.000  C
  C86      1.0000 0.22050  0.66050  0.75590  Biso   1.000  C
  C87      1.0000 0.02570  0.63650  0.76700  Biso   1.000  C
  C88      1.0000 0.97420  0.59060  0.75440  Biso   1.000  C
  C89      1.0000 0.68390  0.58990  0.78370  Biso   1.000  C
  C90      1.0000 0.89010  0.65600  0.79010  Biso   1.000  C
  C91      1.0000 0.43950  0.91640  0.83840  Biso   1.000  C
  C92      1.0000 0.61090  0.90420  0.86250  Biso   1.000  C
  C93      1.0000 0.76600  0.94550  0.84020  Biso   1.000  C
  C94      1.0000 0.90760  0.87560  0.90770  Biso   1.000  C
  C95      1.0000 0.61280  0.84650  0.91190  Biso   1.000  C
  C96      1.0000 0.05690  0.07140  0.66640  Biso   1.000  C
  C97      1.0000 0.88670  0.08410  0.64160  Biso   1.000  C
  C98      1.0000 0.88530  0.14100  0.59260  Biso   1.000  C
  C99      1.0000 0.58960  0.11370  0.59770  Biso   1.000  C
  C100     1.0000 0.73000  0.04280  0.66510  Biso   1.000  C
  C101     1.0000 0.52314  0.75293  0.42061  Biso   1.000  C
  C102     1.0000 0.70832  0.74118  0.40802  Biso   1.000  C
  C103     1.0000 0.76840  0.74896  0.35196  Biso   1.000  C
  C104     1.0000 0.03450  0.72480  0.38060  Biso   1.000  C
  C105     1.0000 0.82110  0.72178  0.45078  Biso   1.000  C
  C106     1.0000 0.97640  0.75590  0.58360  Biso   1.000  C
  C107     1.0000 0.79270  0.76700  0.59650  Biso   1.000  C
  C108     1.0000 0.72860  0.75440  0.65500  Biso   1.000  C
  C109     1.0000 0.46760  0.78370  0.62640  Biso   1.000  C
  C110     1.0000 0.68020  0.79010  0.55390  Biso   1.000  C
  C111     1.0000 0.27790  0.83840  0.24520  Biso   1.000  C
  C112     1.0000 0.47340  0.86250  0.23330  Biso   1.000  C
  C113     1.0000 0.60620  0.84020  0.21430  Biso   1.000  C
  C114     1.0000 0.81530  0.90770  0.21670  Biso   1.000  C
  C115     1.0000 0.52470  0.91190  0.24160  Biso   1.000  C
  C116     1.0000 0.72330  0.66640  0.26220  Biso   1.000  C
  C117     1.0000 0.52830  0.64160  0.27430  Biso   1.000  C
  C118     1.0000 0.47790  0.59260  0.26640  Biso   1.000  C
  C119     1.0000 0.18730  0.59770  0.28860  Biso   1.000  C
  C120     1.0000 0.39510  0.66510  0.29210  Biso   1.000  C
  N1       1.0000 0.73108  0.66301  0.07767  Biso   1.000  N
  N2       1.0000 0.57471  0.56335  0.15132  Biso   1.000  N
  N3       1.0000 0.76483  0.32978  0.43279  Biso   1.000  N
  N4       1.0000 0.91727  0.43134  0.36653  Biso   1.000  N
  N5       1.0000 0.06903  0.76673  0.16744  Biso   1.000  N
  N6       1.0000 0.01210  0.79350  0.06800  Biso   1.000  N
  N7       1.0000 0.41991  0.72655  0.84292  Biso   1.000  N
  N8       1.0000 0.47970  0.70130  0.94250  Biso   1.000  N
  N9       1.0000 0.80875  0.07767  0.25932  Biso   1.000  N
  N10      1.0000 0.72603  0.15132  0.28533  Biso   1.000  N
  N11      1.0000 0.19762  0.43279  0.23743  Biso   1.000  N
  N12      1.0000 0.28380  0.36653  0.20213  Biso   1.000  N
  N13      1.0000 0.23647  0.16744  0.06583  Biso   1.000  N
  N14      1.0000 0.08010  0.06800  0.13850  Biso   1.000  N
  N15      1.0000 0.26283  0.84292  0.43053  Biso   1.000  N
  N16      1.0000 0.42220  0.94250  0.35620  Biso   1.000  N
  N17      1.0000 0.06807  0.25932  0.66301  Biso   1.000  N
  N18      1.0000 0.01136  0.28533  0.56335  Biso   1.000  N
  N19      1.0000 0.43505  0.23743  0.32978  Biso   1.000  N
  N20      1.0000 0.48593  0.20213  0.43134  Biso   1.000  N
  N21      1.0000 0.30230  0.06583  0.76673  Biso   1.000  N
  N22      1.0000 0.21860  0.13850  0.79350  Biso   1.000  N
  N23      1.0000 0.69336  0.43053  0.72655  Biso   1.000  N
  N24      1.0000 0.77840  0.35620  0.70130  Biso   1.000  N
  N25      1.0000 0.26892  0.33699  0.92233  Biso   1.000  N
  N26      1.0000 0.42529  0.43665  0.84868  Biso   1.000  N
  N27      1.0000 0.23517  0.67022  0.56721  Biso   1.000  N
  N28      1.0000 0.08273  0.56866  0.63347  Biso   1.000  N
  N29      1.0000 0.93097  0.23327  0.83256  Biso   1.000  N
  N30      1.0000 0.98790  0.20650  0.93200  Biso   1.000  N
  N31      1.0000 0.58009  0.27345  0.15708  Biso   1.000  N
  N32      1.0000 0.52030  0.29870  0.05750  Biso   1.000  N
  N33      1.0000 0.19125  0.92233  0.74068  Biso   1.000  N
  N34      1.0000 0.27397  0.84868  0.71467  Biso   1.000  N
  N35      1.0000 0.80238  0.56721  0.76257  Biso   1.000  N
  N36      1.0000 0.71620  0.63347  0.79787  Biso   1.000  N
  N37      1.0000 0.76353  0.83256  0.93417  Biso   1.000  N
  N38      1.0000 0.91990  0.93200  0.86150  Biso   1.000  N
  N39      1.0000 0.73717  0.15708  0.56947  Biso   1.000  N
  N40      1.0000 0.57780  0.05750  0.64380  Biso   1.000  N
  N41      1.0000 0.93193  0.74068  0.33699  Biso   1.000  N
  N42      1.0000 0.98864  0.71467  0.43665  Biso   1.000  N
  N43      1.0000 0.56495  0.76257  0.67022  Biso   1.000  N
  N44      1.0000 0.51407  0.79787  0.56866  Biso   1.000  N
  N45      1.0000 0.69770  0.93417  0.23327  Biso   1.000  N
  N46      1.0000 0.78140  0.86150  0.20650  Biso   1.000  N
  N47      1.0000 0.30664  0.56947  0.27345  Biso   1.000  N
  N48      1.0000 0.22160  0.64380  0.29870  Biso   1.000  N
  O1       1.0000 0.03932  0.52891  0.22545  Biso   1.000  O
  O2       1.0000 0.19044  0.61605  0.14393  Biso   1.000  O
  O3       1.0000 0.45597  0.47028  0.29177  Biso   1.000  O
  O4       1.0000 0.30680  0.37800  0.36590  Biso   1.000  O
  O5       1.0000 0.50923  0.75357  0.03398  Biso   1.000  O
  O6       1.0000 0.57534  0.74707  0.12075  Biso   1.000  O
  O7       1.0000 0.98384  0.74110  0.97738  Biso   1.000  O
  O8       1.0000 0.91158  0.74261  0.89297  Biso   1.000  O
  O9       1.0000 0.26477  0.22545  0.24564  Biso   1.000  O
  O10      1.0000 0.33437  0.14393  0.24002  Biso   1.000  O
  O11      1.0000 0.74774  0.29177  0.23795  Biso   1.000  O
  O12      1.0000 0.67270  0.36590  0.25610  Biso   1.000  O
  O13      1.0000 0.54321  0.03398  0.21245  Biso   1.000  O
  O14      1.0000 0.69609  0.12075  0.13218  Biso   1.000  O
  O15      1.0000 0.96122  0.97738  0.28152  Biso   1.000  O
  O16      1.0000 0.80455  0.89297  0.36442  Biso   1.000  O
  O17      1.0000 0.51041  0.24564  0.52891  Biso   1.000  O
  O18      1.0000 0.57439  0.24002  0.61605  Biso   1.000  O
  O19      1.0000 0.98569  0.23795  0.47028  Biso   1.000  O
  O20      1.0000 0.92880  0.25610  0.37800  Biso   1.000  O
  O21      1.0000 0.75566  0.21245  0.75357  Biso   1.000  O
  O22      1.0000 0.82827  0.13218  0.74707  Biso   1.000  O
  O23      1.0000 0.24274  0.28152  0.74110  Biso   1.000  O
  O24      1.0000 0.16897  0.36442  0.74261  Biso   1.000  O
  O25      1.0000 0.96068  0.47109  0.77455  Biso   1.000  O
  O26      1.0000 0.80956  0.38395  0.85607  Biso   1.000  O
  O27      1.0000 0.54403  0.52972  0.70823  Biso   1.000  O
  O28      1.0000 0.69320  0.62200  0.63410  Biso   1.000  O
  O29      1.0000 0.49077  0.24643  0.96602  Biso   1.000  O
  O30      1.0000 0.42466  0.25293  0.87925  Biso   1.000  O
  O31      1.0000 0.01616  0.25890  0.02262  Biso   1.000  O
  O32      1.0000 0.08842  0.25739  0.10703  Biso   1.000  O
  O33      1.0000 0.73523  0.77455  0.75436  Biso   1.000  O
  O34      1.0000 0.66563  0.85607  0.75998  Biso   1.000  O
  O35      1.0000 0.25226  0.70823  0.76205  Biso   1.000  O
  O36      1.0000 0.32730  0.63410  0.74390  Biso   1.000  O
  O37      1.0000 0.45679  0.96602  0.78755  Biso   1.000  O
  O38      1.0000 0.30391  0.87925  0.86782  Biso   1.000  O
  O39      1.0000 0.03878  0.02262  0.71848  Biso   1.000  O
  O40      1.0000 0.19545  0.10703  0.63558  Biso   1.000  O
  O41      1.0000 0.48959  0.75436  0.47109  Biso   1.000  O
  O42      1.0000 0.42561  0.75998  0.38395  Biso   1.000  O
  O43      1.0000 0.01431  0.76205  0.52972  Biso   1.000  O
  O44      1.0000 0.07120  0.74390  0.62200  Biso   1.000  O
  O45      1.0000 0.24434  0.78755  0.24643  Biso   1.000  O
  O46      1.0000 0.17173  0.86782  0.25293  Biso   1.000  O
  O47      1.0000 0.75726  0.71848  0.25890  Biso   1.000  O
  O48      1.0000 0.83103  0.63558  0.25739  Biso   1.000  O
