data_image0
_cell_length_a       12.34
_cell_length_b       19.9029
_cell_length_c       19.9029
_cell_angle_alpha    102.773
_cell_angle_beta     94.5593
_cell_angle_gamma    94.5593

_symmetry_space_group_name_H-M    P 1
_symmetry_int_tables_number       1

loop_
  _symmetry_equiv_pos_as_xyz
  'x, y, z'

loop_
  _atom_site_label
  _atom_site_occupancy
  _atom_site_fract_x
  _atom_site_fract_y
  _atom_site_fract_z
  _atom_site_thermal_displace_type
  _atom_site_B_iso_or_equiv
  _atom_site_type_symbol
  Zn1      1.0000 0.61190  0.07639  0.56510  Biso   1.000  Zn
  Zn2      1.0000 0.80880  0.01687  0.52632  Biso   1.000  Zn
  Zn3      1.0000 0.41050  0.33978  0.60817  Biso   1.000  Zn
  Zn4      1.0000 0.50006  0.48728  0.74876  Biso   1.000  Zn
  Zn5      1.0000 0.11190  0.56510  0.07639  Biso   1.000  Zn
  Zn6      1.0000 0.30880  0.52632  0.01687  Biso   1.000  Zn
  Zn7      1.0000 0.91050  0.60817  0.33978  Biso   1.000  Zn
  Zn8      1.0000 0.00006  0.74876  0.48728  Biso   1.000  Zn
  H1       1.0000 0.49380  0.20020  0.54180  Biso   1.000  H
  H2       1.0000 0.55330  0.22080  0.61900  Biso   1.000  H
  H3       1.0000 0.52690  0.14330  0.69750  Biso   1.000  H
  H4       1.0000 0.45160  0.07140  0.67100  Biso   1.000  H
  H5       1.0000 0.36220  0.04020  0.55200  Biso   1.000  H
  H6       1.0000 0.37820  0.09250  0.50190  Biso   1.000  H
  H7       1.0000 0.31990  0.25180  0.70580  Biso   1.000  H
  H8       1.0000 0.44960  0.25010  0.71730  Biso   1.000  H
  H9       1.0000 0.20380  0.14220  0.66280  Biso   1.000  H
  H10      1.0000 0.25860  0.07090  0.64830  Biso   1.000  H
  H11      1.0000 0.29650  0.19920  0.52240  Biso   1.000  H
  H12      1.0000 0.22700  0.22050  0.58710  Biso   1.000  H
  H13      1.0000 0.86490  0.87270  0.47210  Biso   1.000  H
  H14      1.0000 0.91700  0.89080  0.55100  Biso   1.000  H
  H15      1.0000 0.98480  0.02290  0.42910  Biso   1.000  H
  H16      1.0000 0.90690  0.95290  0.39790  Biso   1.000  H
  H17      1.0000 0.03500  0.99840  0.59800  Biso   1.000  H
  H18      1.0000 0.06210  0.05030  0.54910  Biso   1.000  H
  H19      1.0000 0.98280  0.84400  0.37860  Biso   1.000  H
  H20      1.0000 0.11100  0.84200  0.39700  Biso   1.000  H
  H21      1.0000 0.17670  0.01970  0.45930  Biso   1.000  H
  H22      1.0000 0.22690  0.94670  0.44730  Biso   1.000  H
  H23      1.0000 0.18810  0.86920  0.51980  Biso   1.000  H
  H24      1.0000 0.10860  0.88890  0.57950  Biso   1.000  H
  H25      1.0000 0.65870  0.85990  0.34390  Biso   1.000  H
  H26      1.0000 0.27880  0.86260  0.32300  Biso   1.000  H
  H27      1.0000 0.38950  0.94680  0.40460  Biso   1.000  H
  H28      1.0000 0.64040  0.75510  0.24630  Biso   1.000  H
  H29      1.0000 0.53360  0.67370  0.16230  Biso   1.000  H
  H30      1.0000 0.26090  0.75500  0.22900  Biso   1.000  H
  H31      1.0000 0.92560  0.15980  0.40600  Biso   1.000  H
  H32      1.0000 0.97140  0.25060  0.35440  Biso   1.000  H
  H33      1.0000 0.65080  0.24450  0.46410  Biso   1.000  H
  H34      1.0000 0.93270  0.36060  0.32480  Biso   1.000  H
  H35      1.0000 0.67220  0.45390  0.39610  Biso   1.000  H
  H36      1.0000 0.61850  0.36080  0.44160  Biso   1.000  H
  H37      1.0000 0.11890  0.34100  0.63260  Biso   1.000  H
  H38      1.0000 0.97760  0.50900  0.79980  Biso   1.000  H
  H39      1.0000 0.16420  0.50390  0.79870  Biso   1.000  H
  H40      1.0000 0.92800  0.29400  0.58220  Biso   1.000  H
  H41      1.0000 0.74170  0.29760  0.58260  Biso   1.000  H
  H42      1.0000 0.78850  0.45840  0.75120  Biso   1.000  H
  H43      1.0000 0.77680  0.85060  0.62920  Biso   1.000  H
  H44      1.0000 0.44140  0.82920  0.72140  Biso   1.000  H
  H45      1.0000 0.48730  0.92350  0.67570  Biso   1.000  H
  H46      1.0000 0.81830  0.73750  0.65130  Biso   1.000  H
  H47      1.0000 0.77020  0.64180  0.69460  Biso   1.000  H
  H48      1.0000 0.48430  0.71400  0.74340  Biso   1.000  H
  H49      1.0000 0.99380  0.54180  0.20020  Biso   1.000  H
  H50      1.0000 0.05330  0.61900  0.22080  Biso   1.000  H
  H51      1.0000 0.02690  0.69750  0.14330  Biso   1.000  H
  H52      1.0000 0.95160  0.67100  0.07140  Biso   1.000  H
  H53      1.0000 0.86220  0.55200  0.04020  Biso   1.000  H
  H54      1.0000 0.87820  0.50190  0.09250  Biso   1.000  H
  H55      1.0000 0.81990  0.70580  0.25180  Biso   1.000  H
  H56      1.0000 0.94960  0.71730  0.25010  Biso   1.000  H
  H57      1.0000 0.70380  0.66280  0.14220  Biso   1.000  H
  H58      1.0000 0.75860  0.64830  0.07090  Biso   1.000  H
  H59      1.0000 0.79650  0.52240  0.19920  Biso   1.000  H
  H60      1.0000 0.72700  0.58710  0.22050  Biso   1.000  H
  H61      1.0000 0.36490  0.47210  0.87270  Biso   1.000  H
  H62      1.0000 0.41700  0.55100  0.89080  Biso   1.000  H
  H63      1.0000 0.48480  0.42910  0.02290  Biso   1.000  H
  H64      1.0000 0.40690  0.39790  0.95290  Biso   1.000  H
  H65      1.0000 0.53500  0.59800  0.99840  Biso   1.000  H
  H66      1.0000 0.56210  0.54910  0.05030  Biso   1.000  H
  H67      1.0000 0.48280  0.37860  0.84400  Biso   1.000  H
  H68      1.0000 0.61100  0.39700  0.84200  Biso   1.000  H
  H69      1.0000 0.67670  0.45930  0.01970  Biso   1.000  H
  H70      1.0000 0.72690  0.44730  0.94670  Biso   1.000  H
  H71      1.0000 0.68810  0.51980  0.86920  Biso   1.000  H
  H72      1.0000 0.60860  0.57950  0.88890  Biso   1.000  H
  H73      1.0000 0.15870  0.34390  0.85990  Biso   1.000  H
  H74      1.0000 0.77880  0.32300  0.86260  Biso   1.000  H
  H75      1.0000 0.88950  0.40460  0.94680  Biso   1.000  H
  H76      1.0000 0.14040  0.24630  0.75510  Biso   1.000  H
  H77      1.0000 0.03360  0.16230  0.67370  Biso   1.000  H
  H78      1.0000 0.76090  0.22900  0.75500  Biso   1.000  H
  H79      1.0000 0.42560  0.40600  0.15980  Biso   1.000  H
  H80      1.0000 0.47140  0.35440  0.25060  Biso   1.000  H
  H81      1.0000 0.15080  0.46410  0.24450  Biso   1.000  H
  H82      1.0000 0.43270  0.32480  0.36060  Biso   1.000  H
  H83      1.0000 0.17220  0.39610  0.45390  Biso   1.000  H
  H84      1.0000 0.11850  0.44160  0.36080  Biso   1.000  H
  H85      1.0000 0.61890  0.63260  0.34100  Biso   1.000  H
  H86      1.0000 0.47760  0.79980  0.50900  Biso   1.000  H
  H87      1.0000 0.66420  0.79870  0.50390  Biso   1.000  H
  H88      1.0000 0.42800  0.58220  0.29400  Biso   1.000  H
  H89      1.0000 0.24170  0.58260  0.29760  Biso   1.000  H
  H90      1.0000 0.28850  0.75120  0.45840  Biso   1.000  H
  H91      1.0000 0.27680  0.62920  0.85060  Biso   1.000  H
  H92      1.0000 0.94140  0.72140  0.82920  Biso   1.000  H
  H93      1.0000 0.98730  0.67570  0.92350  Biso   1.000  H
  H94      1.0000 0.31830  0.65130  0.73750  Biso   1.000  H
  H95      1.0000 0.27020  0.69460  0.64180  Biso   1.000  H
  H96      1.0000 0.98430  0.74340  0.71400  Biso   1.000  H
  C1       1.0000 0.48600  0.19737  0.59019  Biso   1.000  C
  C2       1.0000 0.46030  0.12038  0.66754  Biso   1.000  C
  C3       1.0000 0.37200  0.08975  0.55053  Biso   1.000  C
  C4       1.0000 0.38230  0.22752  0.68796  Biso   1.000  C
  C5       1.0000 0.26870  0.12012  0.64608  Biso   1.000  C
  C6       1.0000 0.29110  0.19692  0.57118  Biso   1.000  C
  C7       1.0000 0.93050  0.89468  0.50362  Biso   1.000  C
  C8       1.0000 0.97150  0.97362  0.43076  Biso   1.000  C
  C9       1.0000 0.04820  0.00085  0.55009  Biso   1.000  C
  C10      1.0000 0.04660  0.86596  0.41166  Biso   1.000  C
  C11      1.0000 0.16160  0.97050  0.46070  Biso   1.000  C
  C12      1.0000 0.12230  0.89281  0.53213  Biso   1.000  C
  C13      1.0000 0.60370  0.96015  0.44009  Biso   1.000  C
  C14      1.0000 0.53540  0.90796  0.38270  Biso   1.000  C
  C15      1.0000 0.58150  0.85984  0.33966  Biso   1.000  C
  C16      1.0000 0.51710  0.80801  0.28723  Biso   1.000  C
  C17      1.0000 0.40300  0.80842  0.28142  Biso   1.000  C
  C18      1.0000 0.35580  0.86131  0.32661  Biso   1.000  C
  C19      1.0000 0.42120  0.91070  0.37550  Biso   1.000  C
  C20      1.0000 0.56340  0.75632  0.24232  Biso   1.000  C
  C21      1.0000 0.49990  0.70768  0.19288  Biso   1.000  C
  C22      1.0000 0.38500  0.70661  0.18603  Biso   1.000  C
  C23      1.0000 0.33820  0.75612  0.23140  Biso   1.000  C
  C24      1.0000 0.31790  0.65012  0.13370  Biso   1.000  C
  C25      1.0000 0.75380  0.13629  0.47481  Biso   1.000  C
  C26      1.0000 0.78230  0.19480  0.43986  Biso   1.000  C
  C27      1.0000 0.87940  0.19602  0.40718  Biso   1.000  C
  C28      1.0000 0.90660  0.25006  0.37714  Biso   1.000  C
  C29      1.0000 0.84040  0.30488  0.37952  Biso   1.000  C
  C30      1.0000 0.74410  0.30322  0.41230  Biso   1.000  C
  C31      1.0000 0.71630  0.24632  0.44226  Biso   1.000  C
  C32      1.0000 0.87060  0.36117  0.35003  Biso   1.000  C
  C33      1.0000 0.81020  0.41649  0.35811  Biso   1.000  C
  C34      1.0000 0.71490  0.41577  0.39181  Biso   1.000  C
  C35      1.0000 0.68300  0.36051  0.41849  Biso   1.000  C
  C36      1.0000 0.85210  0.47991  0.33309  Biso   1.000  C
  C37      1.0000 0.27930  0.41856  0.71516  Biso   1.000  C
  C38      1.0000 0.15770  0.42086  0.71462  Biso   1.000  C
  C39      1.0000 0.08950  0.37458  0.66604  Biso   1.000  C
  C40      1.0000 0.97400  0.37611  0.66495  Biso   1.000  C
  C41      1.0000 0.93130  0.42586  0.71688  Biso   1.000  C
  C42      1.0000 0.00500  0.47455  0.76627  Biso   1.000  C
  C43      1.0000 0.11540  0.47166  0.76530  Biso   1.000  C
  C44      1.0000 0.90020  0.32796  0.61618  Biso   1.000  C
  C45      1.0000 0.78990  0.32911  0.61691  Biso   1.000  C
  C46      1.0000 0.74760  0.37777  0.66921  Biso   1.000  C
  C47      1.0000 0.81770  0.42528  0.71720  Biso   1.000  C
  C48      1.0000 0.62760  0.37797  0.67051  Biso   1.000  C
  C49      1.0000 0.66480  0.95569  0.61543  Biso   1.000  C
  C50      1.0000 0.63700  0.89583  0.64647  Biso   1.000  C
  C51      1.0000 0.70800  0.84562  0.64686  Biso   1.000  C
  C52      1.0000 0.67980  0.78711  0.67309  Biso   1.000  C
  C53      1.0000 0.57920  0.78015  0.70025  Biso   1.000  C
  C54      1.0000 0.50870  0.83272  0.70168  Biso   1.000  C
  C55      1.0000 0.53630  0.88884  0.67496  Biso   1.000  C
  C56      1.0000 0.75070  0.73371  0.67063  Biso   1.000  C
  C57      1.0000 0.72200  0.67691  0.69609  Biso   1.000  C
  C58      1.0000 0.62240  0.67000  0.72448  Biso   1.000  C
  C59      1.0000 0.55260  0.71961  0.72539  Biso   1.000  C
  C60      1.0000 0.58690  0.60510  0.74530  Biso   1.000  C
  C61      1.0000 0.98600  0.59019  0.19737  Biso   1.000  C
  C62      1.0000 0.96030  0.66754  0.12038  Biso   1.000  C
  C63      1.0000 0.87200  0.55053  0.08975  Biso   1.000  C
  C64      1.0000 0.88230  0.68796  0.22752  Biso   1.000  C
  C65      1.0000 0.76870  0.64608  0.12012  Biso   1.000  C
  C66      1.0000 0.79110  0.57118  0.19692  Biso   1.000  C
  C67      1.0000 0.43050  0.50362  0.89468  Biso   1.000  C
  C68      1.0000 0.47150  0.43076  0.97362  Biso   1.000  C
  C69      1.0000 0.54820  0.55009  0.00085  Biso   1.000  C
  C70      1.0000 0.54660  0.41166  0.86596  Biso   1.000  C
  C71      1.0000 0.66160  0.46070  0.97050  Biso   1.000  C
  C72      1.0000 0.62230  0.53213  0.89281  Biso   1.000  C
  C73      1.0000 0.10370  0.44009  0.96015  Biso   1.000  C
  C74      1.0000 0.03540  0.38270  0.90796  Biso   1.000  C
  C75      1.0000 0.08150  0.33966  0.85984  Biso   1.000  C
  C76      1.0000 0.01710  0.28723  0.80801  Biso   1.000  C
  C77      1.0000 0.90300  0.28142  0.80842  Biso   1.000  C
  C78      1.0000 0.85580  0.32661  0.86131  Biso   1.000  C
  C79      1.0000 0.92120  0.37550  0.91070  Biso   1.000  C
  C80      1.0000 0.06340  0.24232  0.75632  Biso   1.000  C
  C81      1.0000 0.99990  0.19288  0.70768  Biso   1.000  C
  C82      1.0000 0.88500  0.18603  0.70661  Biso   1.000  C
  C83      1.0000 0.83820  0.23140  0.75612  Biso   1.000  C
  C84      1.0000 0.81790  0.13370  0.65012  Biso   1.000  C
  C85      1.0000 0.25380  0.47481  0.13629  Biso   1.000  C
  C86      1.0000 0.28230  0.43986  0.19480  Biso   1.000  C
  C87      1.0000 0.37940  0.40718  0.19602  Biso   1.000  C
  C88      1.0000 0.40660  0.37714  0.25006  Biso   1.000  C
  C89      1.0000 0.34040  0.37952  0.30488  Biso   1.000  C
  C90      1.0000 0.24410  0.41230  0.30322  Biso   1.000  C
  C91      1.0000 0.21630  0.44226  0.24632  Biso   1.000  C
  C92      1.0000 0.37060  0.35003  0.36117  Biso   1.000  C
  C93      1.0000 0.31020  0.35811  0.41649  Biso   1.000  C
  C94      1.0000 0.21490  0.39181  0.41577  Biso   1.000  C
  C95      1.0000 0.18300  0.41849  0.36051  Biso   1.000  C
  C96      1.0000 0.35210  0.33309  0.47991  Biso   1.000  C
  C97      1.0000 0.77930  0.71516  0.41856  Biso   1.000  C
  C98      1.0000 0.65770  0.71462  0.42086  Biso   1.000  C
  C99      1.0000 0.58950  0.66604  0.37458  Biso   1.000  C
  C100     1.0000 0.47400  0.66495  0.37611  Biso   1.000  C
  C101     1.0000 0.43130  0.71688  0.42586  Biso   1.000  C
  C102     1.0000 0.50500  0.76627  0.47455  Biso   1.000  C
  C103     1.0000 0.61540  0.76530  0.47166  Biso   1.000  C
  C104     1.0000 0.40020  0.61618  0.32796  Biso   1.000  C
  C105     1.0000 0.28990  0.61691  0.32911  Biso   1.000  C
  C106     1.0000 0.24760  0.66921  0.37777  Biso   1.000  C
  C107     1.0000 0.31770  0.71720  0.42528  Biso   1.000  C
  C108     1.0000 0.12760  0.67051  0.37797  Biso   1.000  C
  C109     1.0000 0.16480  0.61543  0.95569  Biso   1.000  C
  C110     1.0000 0.13700  0.64647  0.89583  Biso   1.000  C
  C111     1.0000 0.20800  0.64686  0.84562  Biso   1.000  C
  C112     1.0000 0.17980  0.67309  0.78711  Biso   1.000  C
  C113     1.0000 0.07920  0.70025  0.78015  Biso   1.000  C
  C114     1.0000 0.00870  0.70168  0.83272  Biso   1.000  C
  C115     1.0000 0.03630  0.67496  0.88884  Biso   1.000  C
  C116     1.0000 0.25070  0.67063  0.73371  Biso   1.000  C
  C117     1.0000 0.22200  0.69609  0.67691  Biso   1.000  C
  C118     1.0000 0.12240  0.72448  0.67000  Biso   1.000  C
  C119     1.0000 0.05260  0.72539  0.71961  Biso   1.000  C
  C120     1.0000 0.08690  0.74530  0.60510  Biso   1.000  C
  N1       1.0000 0.47360  0.12347  0.59413  Biso   1.000  N
  N2       1.0000 0.39150  0.23304  0.61426  Biso   1.000  N
  N3       1.0000 0.36620  0.15405  0.69175  Biso   1.000  N
  N4       1.0000 0.27600  0.12416  0.57566  Biso   1.000  N
  N5       1.0000 0.94800  0.96929  0.50191  Biso   1.000  N
  N6       1.0000 0.02620  0.85735  0.48247  Biso   1.000  N
  N7       1.0000 0.06560  0.93826  0.40942  Biso   1.000  N
  N8       1.0000 0.14300  0.96617  0.53135  Biso   1.000  N
  N9       1.0000 0.97360  0.59413  0.12347  Biso   1.000  N
  N10      1.0000 0.89150  0.61426  0.23304  Biso   1.000  N
  N11      1.0000 0.86620  0.69175  0.15405  Biso   1.000  N
  N12      1.0000 0.77600  0.57566  0.12416  Biso   1.000  N
  N13      1.0000 0.44800  0.50191  0.96929  Biso   1.000  N
  N14      1.0000 0.52620  0.48247  0.85735  Biso   1.000  N
  N15      1.0000 0.56560  0.40942  0.93826  Biso   1.000  N
  N16      1.0000 0.64300  0.53135  0.96617  Biso   1.000  N
  O1       1.0000 0.55280  0.00529  0.47719  Biso   1.000  O
  O2       1.0000 0.70470  0.95490  0.44846  Biso   1.000  O
  O3       1.0000 0.36810  0.61052  0.09332  Biso   1.000  O
  O4       1.0000 0.21560  0.64657  0.13501  Biso   1.000  O
  O5       1.0000 0.67040  0.13926  0.50652  Biso   1.000  O
  O6       1.0000 0.81770  0.08894  0.46976  Biso   1.000  O
  O7       1.0000 0.92490  0.47447  0.29193  Biso   1.000  O
  O8       1.0000 0.81310  0.53393  0.35655  Biso   1.000  O
  O9       1.0000 0.59590  0.99825  0.61525  Biso   1.000  O
  O10      1.0000 0.33853  0.47098  0.74830  Biso   1.000  O
  O11      1.0000 0.31433  0.36396  0.68326  Biso   1.000  O
  O12      1.0000 0.56959  0.34547  0.61581  Biso   1.000  O
  O13      1.0000 0.58990  0.40743  0.72551  Biso   1.000  O
  O14      1.0000 0.75410  0.95729  0.58959  Biso   1.000  O
  O15      1.0000 0.64910  0.55680  0.73910  Biso   1.000  O
  O16      1.0000 0.49440  0.59563  0.76369  Biso   1.000  O
  O17      1.0000 0.05280  0.47719  0.00529  Biso   1.000  O
  O18      1.0000 0.20470  0.44846  0.95490  Biso   1.000  O
  O19      1.0000 0.86810  0.09332  0.61052  Biso   1.000  O
  O20      1.0000 0.71560  0.13501  0.64657  Biso   1.000  O
  O21      1.0000 0.17040  0.50652  0.13926  Biso   1.000  O
  O22      1.0000 0.31770  0.46976  0.08894  Biso   1.000  O
  O23      1.0000 0.42490  0.29193  0.47447  Biso   1.000  O
  O24      1.0000 0.31310  0.35655  0.53393  Biso   1.000  O
  O25      1.0000 0.09590  0.61525  0.99825  Biso   1.000  O
  O26      1.0000 0.83853  0.74830  0.47098  Biso   1.000  O
  O27      1.0000 0.81433  0.68326  0.36396  Biso   1.000  O
  O28      1.0000 0.06959  0.61581  0.34547  Biso   1.000  O
  O29      1.0000 0.08990  0.72551  0.40743  Biso   1.000  O
  O30      1.0000 0.25410  0.58959  0.95729  Biso   1.000  O
  O31      1.0000 0.14910  0.73910  0.55680  Biso   1.000  O
  O32      1.0000 0.99440  0.76369  0.59563  Biso   1.000  O
