data_image0
_cell_length_a       12.3274
_cell_length_b       24.7472
_cell_length_c       30.5413
_cell_angle_alpha    90
_cell_angle_beta     90
_cell_angle_gamma    98.232

_symmetry_space_group_name_H-M    P 1
_symmetry_int_tables_number       1

loop_
  _symmetry_equiv_pos_as_xyz
  'x, y, z'

loop_
  _atom_site_label
  _atom_site_occupancy
  _atom_site_fract_x
  _atom_site_fract_y
  _atom_site_fract_z
  _atom_site_thermal_displace_type
  _atom_site_B_iso_or_equiv
  _atom_site_type_symbol
  Zn1      1.0000 0.42413  0.79867  0.73426  Biso   1.000  Zn
  Zn2      1.0000 0.62760  0.75161  0.72561  Biso   1.000  Zn
  Zn3      1.0000 0.21708  0.93788  0.85266  Biso   1.000  Zn
  Zn4      1.0000 0.69285  0.91863  0.13037  Biso   1.000  Zn
  Zn5      1.0000 0.07587  0.70133  0.23426  Biso   1.000  Zn
  Zn6      1.0000 0.87240  0.74839  0.22561  Biso   1.000  Zn
  Zn7      1.0000 0.28292  0.56212  0.35266  Biso   1.000  Zn
  Zn8      1.0000 0.80715  0.58137  0.63037  Biso   1.000  Zn
  Zn9      1.0000 0.57587  0.20133  0.26574  Biso   1.000  Zn
  Zn10     1.0000 0.37240  0.24839  0.27439  Biso   1.000  Zn
  Zn11     1.0000 0.78292  0.06212  0.14734  Biso   1.000  Zn
  Zn12     1.0000 0.30715  0.08137  0.86963  Biso   1.000  Zn
  Zn13     1.0000 0.92413  0.29867  0.76574  Biso   1.000  Zn
  Zn14     1.0000 0.12760  0.25161  0.77439  Biso   1.000  Zn
  Zn15     1.0000 0.71708  0.43788  0.64734  Biso   1.000  Zn
  Zn16     1.0000 0.19285  0.41863  0.36963  Biso   1.000  Zn
  H1       1.0000 0.29010  0.83830  0.80770  Biso   1.000  H
  H2       1.0000 0.36770  0.89020  0.78820  Biso   1.000  H
  H3       1.0000 0.17630  0.78750  0.70680  Biso   1.000  H
  H4       1.0000 0.17350  0.77640  0.75850  Biso   1.000  H
  H5       1.0000 0.37040  0.90860  0.70940  Biso   1.000  H
  H6       1.0000 0.29540  0.86840  0.67700  Biso   1.000  H
  H7       1.0000 0.09270  0.83570  0.80680  Biso   1.000  H
  H8       1.0000 0.03990  0.88650  0.78800  Biso   1.000  H
  H9       1.0000 0.15790  0.96530  0.75770  Biso   1.000  H
  H10      1.0000 0.28810  0.96660  0.75780  Biso   1.000  H
  H11      1.0000 0.10440  0.86570  0.67770  Biso   1.000  H
  H12      1.0000 0.04830  0.90510  0.70940  Biso   1.000  H
  H13      1.0000 0.67270  0.64660  0.69020  Biso   1.000  H
  H14      1.0000 0.74180  0.69050  0.65870  Biso   1.000  H
  H15      1.0000 0.77950  0.70570  0.78930  Biso   1.000  H
  H16      1.0000 0.69510  0.65630  0.77000  Biso   1.000  H
  H17      1.0000 0.86890  0.76490  0.68920  Biso   1.000  H
  H18      1.0000 0.88340  0.77100  0.74120  Biso   1.000  H
  H19      1.0000 0.76050  0.58210  0.73210  Biso   1.000  H
  H20      1.0000 0.89010  0.58120  0.72750  Biso   1.000  H
  H21      1.0000 0.99900  0.64970  0.67830  Biso   1.000  H
  H22      1.0000 0.93870  0.69270  0.65180  Biso   1.000  H
  H23      1.0000 0.01590  0.65670  0.75690  Biso   1.000  H
  H24      1.0000 0.97050  0.70570  0.78180  Biso   1.000  H
  H25      1.0000 0.47400  0.58350  0.75200  Biso   1.000  H
  H26      1.0000 0.46310  0.48440  0.76640  Biso   1.000  H
  H27      1.0000 0.36070  0.40000  0.77400  Biso   1.000  H
  H28      1.0000 0.07840  0.46440  0.76050  Biso   1.000  H
  H29      1.0000 0.09160  0.56540  0.74700  Biso   1.000  H
  H30      1.0000 0.19430  0.64930  0.73430  Biso   1.000  H
  H31      1.0000 0.72050  0.76000  0.86070  Biso   1.000  H
  H32      1.0000 0.76400  0.77510  0.93270  Biso   1.000  H
  H33      1.0000 0.71820  0.81100  0.00550  Biso   1.000  H
  H34      1.0000 0.44110  0.87310  0.02190  Biso   1.000  H
  H35      1.0000 0.38410  0.85140  0.95030  Biso   1.000  H
  H36      1.0000 0.43110  0.81560  0.87700  Biso   1.000  H
  H37      1.0000 0.57230  0.69840  0.59180  Biso   1.000  H
  H38      1.0000 0.57960  0.63830  0.52560  Biso   1.000  H
  H39      1.0000 0.51660  0.61220  0.45700  Biso   1.000  H
  H40      1.0000 0.28560  0.71130  0.46240  Biso   1.000  H
  H41      1.0000 0.27350  0.76750  0.52960  Biso   1.000  H
  H42      1.0000 0.33490  0.79580  0.59840  Biso   1.000  H
  H43      1.0000 0.92560  0.94990  0.84650  Biso   1.000  H
  H44      1.0000 0.73640  0.90300  0.84350  Biso   1.000  H
  H45      1.0000 0.54850  0.90510  0.84600  Biso   1.000  H
  H46      1.0000 0.59620  0.06820  0.86430  Biso   1.000  H
  H47      1.0000 0.78900  0.11620  0.87100  Biso   1.000  H
  H48      1.0000 0.97490  0.11350  0.87070  Biso   1.000  H
  H49      1.0000 0.20990  0.66170  0.30770  Biso   1.000  H
  H50      1.0000 0.13230  0.60980  0.28820  Biso   1.000  H
  H51      1.0000 0.32370  0.71250  0.20680  Biso   1.000  H
  H52      1.0000 0.32650  0.72360  0.25850  Biso   1.000  H
  H53      1.0000 0.12960  0.59140  0.20940  Biso   1.000  H
  H54      1.0000 0.20460  0.63160  0.17700  Biso   1.000  H
  H55      1.0000 0.40730  0.66430  0.30680  Biso   1.000  H
  H56      1.0000 0.46010  0.61350  0.28800  Biso   1.000  H
  H57      1.0000 0.34210  0.53470  0.25770  Biso   1.000  H
  H58      1.0000 0.21190  0.53340  0.25780  Biso   1.000  H
  H59      1.0000 0.39560  0.63430  0.17770  Biso   1.000  H
  H60      1.0000 0.45170  0.59490  0.20940  Biso   1.000  H
  H61      1.0000 0.82730  0.85340  0.19020  Biso   1.000  H
  H62      1.0000 0.75820  0.80950  0.15870  Biso   1.000  H
  H63      1.0000 0.72050  0.79430  0.28930  Biso   1.000  H
  H64      1.0000 0.80490  0.84370  0.27000  Biso   1.000  H
  H65      1.0000 0.63110  0.73510  0.18920  Biso   1.000  H
  H66      1.0000 0.61660  0.72900  0.24120  Biso   1.000  H
  H67      1.0000 0.73950  0.91790  0.23210  Biso   1.000  H
  H68      1.0000 0.60990  0.91880  0.22750  Biso   1.000  H
  H69      1.0000 0.50100  0.85030  0.17830  Biso   1.000  H
  H70      1.0000 0.56130  0.80730  0.15180  Biso   1.000  H
  H71      1.0000 0.48410  0.84330  0.25690  Biso   1.000  H
  H72      1.0000 0.52950  0.79430  0.28180  Biso   1.000  H
  H73      1.0000 0.02600  0.91650  0.25200  Biso   1.000  H
  H74      1.0000 0.03690  0.01560  0.26640  Biso   1.000  H
  H75      1.0000 0.13930  0.10000  0.27400  Biso   1.000  H
  H76      1.0000 0.42160  0.03560  0.26050  Biso   1.000  H
  H77      1.0000 0.40840  0.93460  0.24700  Biso   1.000  H
  H78      1.0000 0.30570  0.85070  0.23430  Biso   1.000  H
  H79      1.0000 0.77950  0.74000  0.36070  Biso   1.000  H
  H80      1.0000 0.73600  0.72490  0.43270  Biso   1.000  H
  H81      1.0000 0.78180  0.68900  0.50550  Biso   1.000  H
  H82      1.0000 0.05890  0.62690  0.52190  Biso   1.000  H
  H83      1.0000 0.11590  0.64860  0.45030  Biso   1.000  H
  H84      1.0000 0.06890  0.68440  0.37700  Biso   1.000  H
  H85      1.0000 0.92770  0.80160  0.09180  Biso   1.000  H
  H86      1.0000 0.92040  0.86170  0.02560  Biso   1.000  H
  H87      1.0000 0.98340  0.88780  0.95700  Biso   1.000  H
  H88      1.0000 0.21440  0.78870  0.96240  Biso   1.000  H
  H89      1.0000 0.22650  0.73250  0.02960  Biso   1.000  H
  H90      1.0000 0.16510  0.70420  0.09840  Biso   1.000  H
  H91      1.0000 0.57440  0.55010  0.34650  Biso   1.000  H
  H92      1.0000 0.76360  0.59700  0.34350  Biso   1.000  H
  H93      1.0000 0.95150  0.59490  0.34600  Biso   1.000  H
  H94      1.0000 0.90380  0.43180  0.36430  Biso   1.000  H
  H95      1.0000 0.71100  0.38380  0.37100  Biso   1.000  H
  H96      1.0000 0.52510  0.38650  0.37070  Biso   1.000  H
  H97      1.0000 0.70990  0.16170  0.19230  Biso   1.000  H
  H98      1.0000 0.63230  0.10980  0.21180  Biso   1.000  H
  H99      1.0000 0.82370  0.21250  0.29320  Biso   1.000  H
  H100     1.0000 0.82650  0.22360  0.24150  Biso   1.000  H
  H101     1.0000 0.62960  0.09140  0.29060  Biso   1.000  H
  H102     1.0000 0.70460  0.13160  0.32300  Biso   1.000  H
  H103     1.0000 0.90730  0.16430  0.19320  Biso   1.000  H
  H104     1.0000 0.96010  0.11350  0.21200  Biso   1.000  H
  H105     1.0000 0.84210  0.03470  0.24230  Biso   1.000  H
  H106     1.0000 0.71190  0.03340  0.24220  Biso   1.000  H
  H107     1.0000 0.89560  0.13430  0.32230  Biso   1.000  H
  H108     1.0000 0.95170  0.09490  0.29060  Biso   1.000  H
  H109     1.0000 0.32730  0.35340  0.30980  Biso   1.000  H
  H110     1.0000 0.25820  0.30950  0.34130  Biso   1.000  H
  H111     1.0000 0.22050  0.29430  0.21070  Biso   1.000  H
  H112     1.0000 0.30490  0.34370  0.23000  Biso   1.000  H
  H113     1.0000 0.13110  0.23510  0.31080  Biso   1.000  H
  H114     1.0000 0.11660  0.22900  0.25880  Biso   1.000  H
  H115     1.0000 0.23950  0.41790  0.26790  Biso   1.000  H
  H116     1.0000 0.10990  0.41880  0.27250  Biso   1.000  H
  H117     1.0000 0.00100  0.35030  0.32170  Biso   1.000  H
  H118     1.0000 0.06130  0.30730  0.34820  Biso   1.000  H
  H119     1.0000 0.98410  0.34330  0.24310  Biso   1.000  H
  H120     1.0000 0.02950  0.29430  0.21820  Biso   1.000  H
  H121     1.0000 0.52600  0.41650  0.24800  Biso   1.000  H
  H122     1.0000 0.53690  0.51560  0.23360  Biso   1.000  H
  H123     1.0000 0.63930  0.60000  0.22600  Biso   1.000  H
  H124     1.0000 0.92160  0.53560  0.23950  Biso   1.000  H
  H125     1.0000 0.90840  0.43460  0.25300  Biso   1.000  H
  H126     1.0000 0.80570  0.35070  0.26570  Biso   1.000  H
  H127     1.0000 0.27950  0.24000  0.13930  Biso   1.000  H
  H128     1.0000 0.23600  0.22490  0.06730  Biso   1.000  H
  H129     1.0000 0.28180  0.18900  0.99450  Biso   1.000  H
  H130     1.0000 0.55890  0.12690  0.97810  Biso   1.000  H
  H131     1.0000 0.61590  0.14860  0.04970  Biso   1.000  H
  H132     1.0000 0.56890  0.18440  0.12300  Biso   1.000  H
  H133     1.0000 0.42770  0.30160  0.40820  Biso   1.000  H
  H134     1.0000 0.42040  0.36170  0.47440  Biso   1.000  H
  H135     1.0000 0.48340  0.38780  0.54300  Biso   1.000  H
  H136     1.0000 0.71440  0.28870  0.53760  Biso   1.000  H
  H137     1.0000 0.72650  0.23250  0.47040  Biso   1.000  H
  H138     1.0000 0.66510  0.20420  0.40160  Biso   1.000  H
  H139     1.0000 0.07440  0.05010  0.15350  Biso   1.000  H
  H140     1.0000 0.26360  0.09700  0.15650  Biso   1.000  H
  H141     1.0000 0.45150  0.09490  0.15400  Biso   1.000  H
  H142     1.0000 0.40380  0.93180  0.13570  Biso   1.000  H
  H143     1.0000 0.21100  0.88380  0.12900  Biso   1.000  H
  H144     1.0000 0.02510  0.88650  0.12930  Biso   1.000  H
  H145     1.0000 0.79010  0.33830  0.69230  Biso   1.000  H
  H146     1.0000 0.86770  0.39020  0.71180  Biso   1.000  H
  H147     1.0000 0.67630  0.28750  0.79320  Biso   1.000  H
  H148     1.0000 0.67350  0.27640  0.74150  Biso   1.000  H
  H149     1.0000 0.87040  0.40860  0.79060  Biso   1.000  H
  H150     1.0000 0.79540  0.36840  0.82300  Biso   1.000  H
  H151     1.0000 0.59270  0.33570  0.69320  Biso   1.000  H
  H152     1.0000 0.53990  0.38650  0.71200  Biso   1.000  H
  H153     1.0000 0.65790  0.46530  0.74230  Biso   1.000  H
  H154     1.0000 0.78810  0.46660  0.74220  Biso   1.000  H
  H155     1.0000 0.60440  0.36570  0.82230  Biso   1.000  H
  H156     1.0000 0.54830  0.40510  0.79060  Biso   1.000  H
  H157     1.0000 0.17270  0.14660  0.80980  Biso   1.000  H
  H158     1.0000 0.24180  0.19050  0.84130  Biso   1.000  H
  H159     1.0000 0.27950  0.20570  0.71070  Biso   1.000  H
  H160     1.0000 0.19510  0.15630  0.73000  Biso   1.000  H
  H161     1.0000 0.36890  0.26490  0.81080  Biso   1.000  H
  H162     1.0000 0.38340  0.27100  0.75880  Biso   1.000  H
  H163     1.0000 0.26050  0.08210  0.76790  Biso   1.000  H
  H164     1.0000 0.39010  0.08120  0.77250  Biso   1.000  H
  H165     1.0000 0.49900  0.14970  0.82170  Biso   1.000  H
  H166     1.0000 0.43870  0.19270  0.84820  Biso   1.000  H
  H167     1.0000 0.51590  0.15670  0.74310  Biso   1.000  H
  H168     1.0000 0.47050  0.20570  0.71820  Biso   1.000  H
  H169     1.0000 0.97400  0.08350  0.74800  Biso   1.000  H
  H170     1.0000 0.96310  0.98440  0.73360  Biso   1.000  H
  H171     1.0000 0.86070  0.90000  0.72600  Biso   1.000  H
  H172     1.0000 0.57840  0.96440  0.73950  Biso   1.000  H
  H173     1.0000 0.59160  0.06540  0.75300  Biso   1.000  H
  H174     1.0000 0.69430  0.14930  0.76570  Biso   1.000  H
  H175     1.0000 0.22050  0.26000  0.63930  Biso   1.000  H
  H176     1.0000 0.26400  0.27510  0.56730  Biso   1.000  H
  H177     1.0000 0.21820  0.31100  0.49450  Biso   1.000  H
  H178     1.0000 0.94110  0.37310  0.47810  Biso   1.000  H
  H179     1.0000 0.88410  0.35140  0.54970  Biso   1.000  H
  H180     1.0000 0.93110  0.31560  0.62300  Biso   1.000  H
  H181     1.0000 0.07230  0.19840  0.90820  Biso   1.000  H
  H182     1.0000 0.07960  0.13830  0.97440  Biso   1.000  H
  H183     1.0000 0.01660  0.11220  0.04300  Biso   1.000  H
  H184     1.0000 0.78560  0.21130  0.03760  Biso   1.000  H
  H185     1.0000 0.77350  0.26750  0.97040  Biso   1.000  H
  H186     1.0000 0.83490  0.29580  0.90160  Biso   1.000  H
  H187     1.0000 0.42560  0.44990  0.65350  Biso   1.000  H
  H188     1.0000 0.23640  0.40300  0.65650  Biso   1.000  H
  H189     1.0000 0.04850  0.40510  0.65400  Biso   1.000  H
  H190     1.0000 0.09620  0.56820  0.63570  Biso   1.000  H
  H191     1.0000 0.28900  0.61620  0.62900  Biso   1.000  H
  H192     1.0000 0.47490  0.61350  0.62930  Biso   1.000  H
  C1       1.0000 0.29600  0.86680  0.78470  Biso   1.000  C
  C2       1.0000 0.18140  0.80530  0.73590  Biso   1.000  C
  C3       1.0000 0.29890  0.88490  0.70650  Biso   1.000  C
  C4       1.0000 0.10060  0.86460  0.78420  Biso   1.000  C
  C5       1.0000 0.21720  0.94250  0.75470  Biso   1.000  C
  C6       1.0000 0.10860  0.88270  0.70710  Biso   1.000  C
  C7       1.0000 0.74390  0.67030  0.68660  Biso   1.000  C
  C8       1.0000 0.76630  0.67950  0.76480  Biso   1.000  C
  C9       1.0000 0.86980  0.74430  0.71700  Biso   1.000  C
  C10      1.0000 0.83220  0.60520  0.72790  Biso   1.000  C
  C11      1.0000 0.93890  0.67230  0.67960  Biso   1.000  C
  C12      1.0000 0.95650  0.67970  0.75720  Biso   1.000  C
  C13      1.0000 0.41050  0.68020  0.73780  Biso   1.000  C
  C14      1.0000 0.34440  0.62480  0.74420  Biso   1.000  C
  C15      1.0000 0.39620  0.57940  0.75140  Biso   1.000  C
  C16      1.0000 0.33670  0.52840  0.75760  Biso   1.000  C
  C17      1.0000 0.38550  0.48120  0.76480  Biso   1.000  C
  C18      1.0000 0.32510  0.43120  0.76970  Biso   1.000  C
  C19      1.0000 0.21000  0.42550  0.76830  Biso   1.000  C
  C20      1.0000 0.15620  0.46900  0.76170  Biso   1.000  C
  C21      1.0000 0.22000  0.52290  0.75620  Biso   1.000  C
  C22      1.0000 0.16930  0.56890  0.74790  Biso   1.000  C
  C23      1.0000 0.22970  0.61870  0.74110  Biso   1.000  C
  C24      1.0000 0.14340  0.36930  0.77280  Biso   1.000  C
  C25      1.0000 0.55130  0.78110  0.81360  Biso   1.000  C
  C26      1.0000 0.57110  0.78720  0.86170  Biso   1.000  C
  C27      1.0000 0.67060  0.77490  0.87930  Biso   1.000  C
  C28      1.0000 0.69660  0.78400  0.92180  Biso   1.000  C
  C29      1.0000 0.62450  0.80670  0.95030  Biso   1.000  C
  C30      1.0000 0.65110  0.81950  0.99390  Biso   1.000  C
  C31      1.0000 0.58250  0.84390  0.02030  Biso   1.000  C
  C32      1.0000 0.48760  0.85570  0.00340  Biso   1.000  C
  C33      1.0000 0.45340  0.84390  0.96030  Biso   1.000  C
  C34      1.0000 0.52500  0.82040  0.93200  Biso   1.000  C
  C35      1.0000 0.49950  0.80860  0.88830  Biso   1.000  C
  C36      1.0000 0.62120  0.86110  0.06590  Biso   1.000  C
  C37      1.0000 0.49270  0.76500  0.64820  Biso   1.000  C
  C38      1.0000 0.45870  0.74850  0.60170  Biso   1.000  C
  C39      1.0000 0.51160  0.71220  0.57890  Biso   1.000  C
  C40      1.0000 0.47690  0.69530  0.53700  Biso   1.000  C
  C41      1.0000 0.52170  0.65470  0.51310  Biso   1.000  C
  C42      1.0000 0.48330  0.63870  0.47260  Biso   1.000  C
  C43      1.0000 0.39700  0.66020  0.45390  Biso   1.000  C
  C44      1.0000 0.34630  0.69760  0.47520  Biso   1.000  C
  C45      1.0000 0.38610  0.71600  0.51770  Biso   1.000  C
  C46      1.0000 0.33440  0.75340  0.54190  Biso   1.000  C
  C47      1.0000 0.37000  0.77000  0.58280  Biso   1.000  C
  C48      1.0000 0.34270  0.63940  0.40940  Biso   1.000  C
  C49      1.0000 0.08820  0.03170  0.85270  Biso   1.000  C
  C50      1.0000 0.96680  0.03020  0.85670  Biso   1.000  C
  C51      1.0000 0.89740  0.98300  0.85180  Biso   1.000  C
  C52      1.0000 0.77730  0.98310  0.85460  Biso   1.000  C
  C53      1.0000 0.70870  0.93640  0.84840  Biso   1.000  C
  C54      1.0000 0.59800  0.93800  0.84920  Biso   1.000  C
  C55      1.0000 0.55570  0.98930  0.85490  Biso   1.000  C
  C56      1.0000 0.62430  0.03470  0.86070  Biso   1.000  C
  C57      1.0000 0.74620  0.03450  0.86160  Biso   1.000  C
  C58      1.0000 0.81660  0.08260  0.86670  Biso   1.000  C
  C59      1.0000 0.92510  0.08110  0.86560  Biso   1.000  C
  C60      1.0000 0.43640  0.98890  0.85170  Biso   1.000  C
  C61      1.0000 0.20400  0.63320  0.28470  Biso   1.000  C
  C62      1.0000 0.31860  0.69470  0.23590  Biso   1.000  C
  C63      1.0000 0.20110  0.61510  0.20650  Biso   1.000  C
  C64      1.0000 0.39940  0.63540  0.28420  Biso   1.000  C
  C65      1.0000 0.28280  0.55750  0.25470  Biso   1.000  C
  C66      1.0000 0.39140  0.61730  0.20710  Biso   1.000  C
  C67      1.0000 0.75610  0.82970  0.18660  Biso   1.000  C
  C68      1.0000 0.73370  0.82050  0.26480  Biso   1.000  C
  C69      1.0000 0.63020  0.75570  0.21700  Biso   1.000  C
  C70      1.0000 0.66780  0.89480  0.22790  Biso   1.000  C
  C71      1.0000 0.56110  0.82770  0.17960  Biso   1.000  C
  C72      1.0000 0.54350  0.82030  0.25720  Biso   1.000  C
  C73      1.0000 0.08950  0.81980  0.23780  Biso   1.000  C
  C74      1.0000 0.15560  0.87520  0.24420  Biso   1.000  C
  C75      1.0000 0.10380  0.92060  0.25140  Biso   1.000  C
  C76      1.0000 0.16330  0.97160  0.25760  Biso   1.000  C
  C77      1.0000 0.11450  0.01880  0.26480  Biso   1.000  C
  C78      1.0000 0.17490  0.06880  0.26970  Biso   1.000  C
  C79      1.0000 0.29000  0.07450  0.26830  Biso   1.000  C
  C80      1.0000 0.34380  0.03100  0.26170  Biso   1.000  C
  C81      1.0000 0.28000  0.97710  0.25620  Biso   1.000  C
  C82      1.0000 0.33070  0.93110  0.24790  Biso   1.000  C
  C83      1.0000 0.27030  0.88130  0.24110  Biso   1.000  C
  C84      1.0000 0.35660  0.13070  0.27280  Biso   1.000  C
  C85      1.0000 0.94870  0.71890  0.31360  Biso   1.000  C
  C86      1.0000 0.92890  0.71280  0.36170  Biso   1.000  C
  C87      1.0000 0.82940  0.72510  0.37930  Biso   1.000  C
  C88      1.0000 0.80340  0.71600  0.42180  Biso   1.000  C
  C89      1.0000 0.87550  0.69330  0.45030  Biso   1.000  C
  C90      1.0000 0.84890  0.68050  0.49390  Biso   1.000  C
  C91      1.0000 0.91750  0.65610  0.52030  Biso   1.000  C
  C92      1.0000 0.01240  0.64430  0.50340  Biso   1.000  C
  C93      1.0000 0.04660  0.65610  0.46030  Biso   1.000  C
  C94      1.0000 0.97500  0.67960  0.43200  Biso   1.000  C
  C95      1.0000 0.00050  0.69140  0.38830  Biso   1.000  C
  C96      1.0000 0.87880  0.63890  0.56590  Biso   1.000  C
  C97      1.0000 0.00730  0.73500  0.14820  Biso   1.000  C
  C98      1.0000 0.04130  0.75150  0.10170  Biso   1.000  C
  C99      1.0000 0.98840  0.78780  0.07890  Biso   1.000  C
  C100     1.0000 0.02310  0.80470  0.03700  Biso   1.000  C
  C101     1.0000 0.97830  0.84530  0.01310  Biso   1.000  C
  C102     1.0000 0.01670  0.86130  0.97260  Biso   1.000  C
  C103     1.0000 0.10300  0.83980  0.95390  Biso   1.000  C
  C104     1.0000 0.15370  0.80240  0.97520  Biso   1.000  C
  C105     1.0000 0.11390  0.78400  0.01770  Biso   1.000  C
  C106     1.0000 0.16560  0.74660  0.04190  Biso   1.000  C
  C107     1.0000 0.13000  0.73000  0.08280  Biso   1.000  C
  C108     1.0000 0.15730  0.86060  0.90940  Biso   1.000  C
  C109     1.0000 0.41180  0.46830  0.35270  Biso   1.000  C
  C110     1.0000 0.53320  0.46980  0.35670  Biso   1.000  C
  C111     1.0000 0.60260  0.51700  0.35180  Biso   1.000  C
  C112     1.0000 0.72270  0.51690  0.35460  Biso   1.000  C
  C113     1.0000 0.79130  0.56360  0.34840  Biso   1.000  C
  C114     1.0000 0.90200  0.56200  0.34920  Biso   1.000  C
  C115     1.0000 0.94430  0.51070  0.35490  Biso   1.000  C
  C116     1.0000 0.87570  0.46530  0.36070  Biso   1.000  C
  C117     1.0000 0.75380  0.46550  0.36160  Biso   1.000  C
  C118     1.0000 0.68340  0.41740  0.36670  Biso   1.000  C
  C119     1.0000 0.57490  0.41890  0.36560  Biso   1.000  C
  C120     1.0000 0.06360  0.51110  0.35170  Biso   1.000  C
  C121     1.0000 0.70400  0.13320  0.21530  Biso   1.000  C
  C122     1.0000 0.81860  0.19470  0.26410  Biso   1.000  C
  C123     1.0000 0.70110  0.11510  0.29350  Biso   1.000  C
  C124     1.0000 0.89940  0.13540  0.21580  Biso   1.000  C
  C125     1.0000 0.78280  0.05750  0.24530  Biso   1.000  C
  C126     1.0000 0.89140  0.11730  0.29290  Biso   1.000  C
  C127     1.0000 0.25610  0.32970  0.31340  Biso   1.000  C
  C128     1.0000 0.23370  0.32050  0.23520  Biso   1.000  C
  C129     1.0000 0.13020  0.25570  0.28300  Biso   1.000  C
  C130     1.0000 0.16780  0.39480  0.27210  Biso   1.000  C
  C131     1.0000 0.06110  0.32770  0.32040  Biso   1.000  C
  C132     1.0000 0.04350  0.32030  0.24280  Biso   1.000  C
  C133     1.0000 0.58950  0.31980  0.26220  Biso   1.000  C
  C134     1.0000 0.65560  0.37520  0.25580  Biso   1.000  C
  C135     1.0000 0.60380  0.42060  0.24860  Biso   1.000  C
  C136     1.0000 0.66330  0.47160  0.24240  Biso   1.000  C
  C137     1.0000 0.61450  0.51880  0.23520  Biso   1.000  C
  C138     1.0000 0.67490  0.56880  0.23030  Biso   1.000  C
  C139     1.0000 0.79000  0.57450  0.23170  Biso   1.000  C
  C140     1.0000 0.84380  0.53100  0.23830  Biso   1.000  C
  C141     1.0000 0.78000  0.47710  0.24380  Biso   1.000  C
  C142     1.0000 0.83070  0.43110  0.25210  Biso   1.000  C
  C143     1.0000 0.77030  0.38130  0.25890  Biso   1.000  C
  C144     1.0000 0.85660  0.63070  0.22720  Biso   1.000  C
  C145     1.0000 0.44870  0.21890  0.18640  Biso   1.000  C
  C146     1.0000 0.42890  0.21280  0.13830  Biso   1.000  C
  C147     1.0000 0.32940  0.22510  0.12070  Biso   1.000  C
  C148     1.0000 0.30340  0.21600  0.07820  Biso   1.000  C
  C149     1.0000 0.37550  0.19330  0.04970  Biso   1.000  C
  C150     1.0000 0.34890  0.18050  0.00610  Biso   1.000  C
  C151     1.0000 0.41750  0.15610  0.97970  Biso   1.000  C
  C152     1.0000 0.51240  0.14430  0.99660  Biso   1.000  C
  C153     1.0000 0.54660  0.15610  0.03970  Biso   1.000  C
  C154     1.0000 0.47500  0.17960  0.06800  Biso   1.000  C
  C155     1.0000 0.50050  0.19140  0.11170  Biso   1.000  C
  C156     1.0000 0.37880  0.13890  0.93410  Biso   1.000  C
  C157     1.0000 0.50730  0.23500  0.35180  Biso   1.000  C
  C158     1.0000 0.54130  0.25150  0.39830  Biso   1.000  C
  C159     1.0000 0.48840  0.28780  0.42110  Biso   1.000  C
  C160     1.0000 0.52310  0.30470  0.46300  Biso   1.000  C
  C161     1.0000 0.47830  0.34530  0.48690  Biso   1.000  C
  C162     1.0000 0.51670  0.36130  0.52740  Biso   1.000  C
  C163     1.0000 0.60300  0.33980  0.54610  Biso   1.000  C
  C164     1.0000 0.65370  0.30240  0.52480  Biso   1.000  C
  C165     1.0000 0.61390  0.28400  0.48230  Biso   1.000  C
  C166     1.0000 0.66560  0.24660  0.45810  Biso   1.000  C
  C167     1.0000 0.63000  0.23000  0.41720  Biso   1.000  C
  C168     1.0000 0.65730  0.36060  0.59060  Biso   1.000  C
  C169     1.0000 0.91180  0.96830  0.14730  Biso   1.000  C
  C170     1.0000 0.03320  0.96980  0.14330  Biso   1.000  C
  C171     1.0000 0.10260  0.01700  0.14820  Biso   1.000  C
  C172     1.0000 0.22270  0.01690  0.14540  Biso   1.000  C
  C173     1.0000 0.29130  0.06360  0.15160  Biso   1.000  C
  C174     1.0000 0.40200  0.06200  0.15080  Biso   1.000  C
  C175     1.0000 0.44430  0.01070  0.14510  Biso   1.000  C
  C176     1.0000 0.37570  0.96530  0.13930  Biso   1.000  C
  C177     1.0000 0.25380  0.96550  0.13840  Biso   1.000  C
  C178     1.0000 0.18340  0.91740  0.13330  Biso   1.000  C
  C179     1.0000 0.07490  0.91890  0.13440  Biso   1.000  C
  C180     1.0000 0.56360  0.01110  0.14830  Biso   1.000  C
  C181     1.0000 0.79600  0.36680  0.71530  Biso   1.000  C
  C182     1.0000 0.68140  0.30530  0.76410  Biso   1.000  C
  C183     1.0000 0.79890  0.38490  0.79350  Biso   1.000  C
  C184     1.0000 0.60060  0.36460  0.71580  Biso   1.000  C
  C185     1.0000 0.71720  0.44250  0.74530  Biso   1.000  C
  C186     1.0000 0.60860  0.38270  0.79290  Biso   1.000  C
  C187     1.0000 0.24390  0.17030  0.81340  Biso   1.000  C
  C188     1.0000 0.26630  0.17950  0.73520  Biso   1.000  C
  C189     1.0000 0.36980  0.24430  0.78300  Biso   1.000  C
  C190     1.0000 0.33220  0.10520  0.77210  Biso   1.000  C
  C191     1.0000 0.43890  0.17230  0.82040  Biso   1.000  C
  C192     1.0000 0.45650  0.17970  0.74280  Biso   1.000  C
  C193     1.0000 0.91050  0.18020  0.76220  Biso   1.000  C
  C194     1.0000 0.84440  0.12480  0.75580  Biso   1.000  C
  C195     1.0000 0.89620  0.07940  0.74860  Biso   1.000  C
  C196     1.0000 0.83670  0.02840  0.74240  Biso   1.000  C
  C197     1.0000 0.88550  0.98120  0.73520  Biso   1.000  C
  C198     1.0000 0.82510  0.93120  0.73030  Biso   1.000  C
  C199     1.0000 0.71000  0.92550  0.73170  Biso   1.000  C
  C200     1.0000 0.65620  0.96900  0.73830  Biso   1.000  C
  C201     1.0000 0.72000  0.02290  0.74380  Biso   1.000  C
  C202     1.0000 0.66930  0.06890  0.75210  Biso   1.000  C
  C203     1.0000 0.72970  0.11870  0.75890  Biso   1.000  C
  C204     1.0000 0.64340  0.86930  0.72720  Biso   1.000  C
  C205     1.0000 0.05130  0.28110  0.68640  Biso   1.000  C
  C206     1.0000 0.07110  0.28720  0.63830  Biso   1.000  C
  C207     1.0000 0.17060  0.27490  0.62070  Biso   1.000  C
  C208     1.0000 0.19660  0.28400  0.57820  Biso   1.000  C
  C209     1.0000 0.12450  0.30670  0.54970  Biso   1.000  C
  C210     1.0000 0.15110  0.31950  0.50610  Biso   1.000  C
  C211     1.0000 0.08250  0.34390  0.47970  Biso   1.000  C
  C212     1.0000 0.98760  0.35570  0.49660  Biso   1.000  C
  C213     1.0000 0.95340  0.34390  0.53970  Biso   1.000  C
  C214     1.0000 0.02500  0.32040  0.56800  Biso   1.000  C
  C215     1.0000 0.99950  0.30860  0.61170  Biso   1.000  C
  C216     1.0000 0.12120  0.36110  0.43410  Biso   1.000  C
  C217     1.0000 0.99270  0.26500  0.85180  Biso   1.000  C
  C218     1.0000 0.95870  0.24850  0.89830  Biso   1.000  C
  C219     1.0000 0.01160  0.21220  0.92110  Biso   1.000  C
  C220     1.0000 0.97690  0.19530  0.96300  Biso   1.000  C
  C221     1.0000 0.02170  0.15470  0.98690  Biso   1.000  C
  C222     1.0000 0.98330  0.13870  0.02740  Biso   1.000  C
  C223     1.0000 0.89700  0.16020  0.04610  Biso   1.000  C
  C224     1.0000 0.84630  0.19760  0.02480  Biso   1.000  C
  C225     1.0000 0.88610  0.21600  0.98230  Biso   1.000  C
  C226     1.0000 0.83440  0.25340  0.95810  Biso   1.000  C
  C227     1.0000 0.87000  0.27000  0.91720  Biso   1.000  C
  C228     1.0000 0.84270  0.13940  0.09060  Biso   1.000  C
  C229     1.0000 0.58820  0.53170  0.64730  Biso   1.000  C
  C230     1.0000 0.46680  0.53020  0.64330  Biso   1.000  C
  C231     1.0000 0.39740  0.48300  0.64820  Biso   1.000  C
  C232     1.0000 0.27730  0.48310  0.64540  Biso   1.000  C
  C233     1.0000 0.20870  0.43640  0.65160  Biso   1.000  C
  C234     1.0000 0.09800  0.43800  0.65080  Biso   1.000  C
  C235     1.0000 0.05570  0.48930  0.64510  Biso   1.000  C
  C236     1.0000 0.12430  0.53470  0.63930  Biso   1.000  C
  C237     1.0000 0.24620  0.53450  0.63840  Biso   1.000  C
  C238     1.0000 0.31660  0.58260  0.63330  Biso   1.000  C
  C239     1.0000 0.42510  0.58110  0.63440  Biso   1.000  C
  C240     1.0000 0.93640  0.48890  0.64830  Biso   1.000  C
  N1       1.0000 0.29110  0.84030  0.74060  Biso   1.000  N
  N2       1.0000 0.20660  0.90050  0.79040  Biso   1.000  N
  N3       1.0000 0.09220  0.83920  0.74070  Biso   1.000  N
  N4       1.0000 0.21130  0.91780  0.71120  Biso   1.000  N
  N5       1.0000 0.76070  0.70960  0.72350  Biso   1.000  N
  N6       1.0000 0.83270  0.63630  0.68490  Biso   1.000  N
  N7       1.0000 0.85260  0.64550  0.76390  Biso   1.000  N
  N8       1.0000 0.95850  0.71050  0.71560  Biso   1.000  N
  N9       1.0000 0.20890  0.65970  0.24060  Biso   1.000  N
  N10      1.0000 0.29340  0.59950  0.29040  Biso   1.000  N
  N11      1.0000 0.40780  0.66080  0.24070  Biso   1.000  N
  N12      1.0000 0.28870  0.58220  0.21120  Biso   1.000  N
  N13      1.0000 0.73930  0.79040  0.22350  Biso   1.000  N
  N14      1.0000 0.66730  0.86370  0.18490  Biso   1.000  N
  N15      1.0000 0.64740  0.85450  0.26390  Biso   1.000  N
  N16      1.0000 0.54150  0.78950  0.21560  Biso   1.000  N
  N17      1.0000 0.70890  0.15970  0.25940  Biso   1.000  N
  N18      1.0000 0.79340  0.09950  0.20960  Biso   1.000  N
  N19      1.0000 0.90780  0.16080  0.25930  Biso   1.000  N
  N20      1.0000 0.78870  0.08220  0.28880  Biso   1.000  N
  N21      1.0000 0.23930  0.29040  0.27650  Biso   1.000  N
  N22      1.0000 0.16730  0.36370  0.31510  Biso   1.000  N
  N23      1.0000 0.14740  0.35450  0.23610  Biso   1.000  N
  N24      1.0000 0.04150  0.28950  0.28440  Biso   1.000  N
  N25      1.0000 0.79110  0.34030  0.75940  Biso   1.000  N
  N26      1.0000 0.70660  0.40050  0.70960  Biso   1.000  N
  N27      1.0000 0.59220  0.33920  0.75930  Biso   1.000  N
  N28      1.0000 0.71130  0.41780  0.78880  Biso   1.000  N
  N29      1.0000 0.26070  0.20960  0.77650  Biso   1.000  N
  N30      1.0000 0.33270  0.13630  0.81510  Biso   1.000  N
  N31      1.0000 0.35260  0.14550  0.73610  Biso   1.000  N
  N32      1.0000 0.45850  0.21050  0.78440  Biso   1.000  N
  O1       1.0000 0.51350  0.68370  0.73840  Biso   1.000  O
  O2       1.0000 0.35700  0.71990  0.73240  Biso   1.000  O
  O3       1.0000 0.04140  0.36490  0.76500  Biso   1.000  O
  O4       1.0000 0.19300  0.33110  0.78400  Biso   1.000  O
  O5       1.0000 0.62860  0.76800  0.79020  Biso   1.000  O
  O6       1.0000 0.45920  0.78890  0.79925  Biso   1.000  O
  O7       1.0000 0.55940  0.88710  0.08740  Biso   1.000  O
  O8       1.0000 0.70510  0.84640  0.08060  Biso   1.000  O
  O9       1.0000 0.57430  0.74580  0.66300  Biso   1.000  O
  O10      1.0000 0.43710  0.79550  0.66770  Biso   1.000  O
  O11      1.0000 0.27890  0.66320  0.39120  Biso   1.000  O
  O12      1.0000 0.37750  0.59600  0.39690  Biso   1.000  O
  O13      1.0000 0.14500  0.07350  0.86700  Biso   1.000  O
  O14      1.0000 0.12470  0.99260  0.83400  Biso   1.000  O
  O15      1.0000 0.37680  0.94370  0.85880  Biso   1.000  O
  O16      1.0000 0.39840  0.03120  0.84080  Biso   1.000  O
  O17      1.0000 0.98650  0.81630  0.23840  Biso   1.000  O
  O18      1.0000 0.14300  0.78010  0.23240  Biso   1.000  O
  O19      1.0000 0.45860  0.13510  0.26500  Biso   1.000  O
  O20      1.0000 0.30700  0.16890  0.28400  Biso   1.000  O
  O21      1.0000 0.87140  0.73200  0.29020  Biso   1.000  O
  O22      1.0000 0.04080  0.71110  0.29925  Biso   1.000  O
  O23      1.0000 0.94060  0.61290  0.58740  Biso   1.000  O
  O24      1.0000 0.79490  0.65360  0.58060  Biso   1.000  O
  O25      1.0000 0.92570  0.75420  0.16300  Biso   1.000  O
  O26      1.0000 0.06290  0.70450  0.16770  Biso   1.000  O
  O27      1.0000 0.22110  0.83680  0.89120  Biso   1.000  O
  O28      1.0000 0.12250  0.90400  0.89690  Biso   1.000  O
  O29      1.0000 0.35500  0.42650  0.36700  Biso   1.000  O
  O30      1.0000 0.37530  0.50740  0.33400  Biso   1.000  O
  O31      1.0000 0.12320  0.55630  0.35880  Biso   1.000  O
  O32      1.0000 0.10160  0.46880  0.34080  Biso   1.000  O
  O33      1.0000 0.48650  0.31630  0.26160  Biso   1.000  O
  O34      1.0000 0.64300  0.28010  0.26760  Biso   1.000  O
  O35      1.0000 0.95860  0.63510  0.23500  Biso   1.000  O
  O36      1.0000 0.80700  0.66890  0.21600  Biso   1.000  O
  O37      1.0000 0.37140  0.23200  0.20980  Biso   1.000  O
  O38      1.0000 0.54080  0.21110  0.20075  Biso   1.000  O
  O39      1.0000 0.44060  0.11290  0.91260  Biso   1.000  O
  O40      1.0000 0.29490  0.15360  0.91940  Biso   1.000  O
  O41      1.0000 0.42570  0.25420  0.33700  Biso   1.000  O
  O42      1.0000 0.56290  0.20450  0.33230  Biso   1.000  O
  O43      1.0000 0.72110  0.33680  0.60880  Biso   1.000  O
  O44      1.0000 0.62250  0.40400  0.60310  Biso   1.000  O
  O45      1.0000 0.85500  0.92650  0.13300  Biso   1.000  O
  O46      1.0000 0.87530  0.00740  0.16600  Biso   1.000  O
  O47      1.0000 0.62320  0.05630  0.14120  Biso   1.000  O
  O48      1.0000 0.60160  0.96880  0.15920  Biso   1.000  O
  O49      1.0000 0.01350  0.18370  0.76160  Biso   1.000  O
  O50      1.0000 0.85700  0.21990  0.76760  Biso   1.000  O
  O51      1.0000 0.54140  0.86490  0.73500  Biso   1.000  O
  O52      1.0000 0.69300  0.83110  0.71600  Biso   1.000  O
  O53      1.0000 0.12860  0.26800  0.70980  Biso   1.000  O
  O54      1.0000 0.95920  0.28890  0.70075  Biso   1.000  O
  O55      1.0000 0.05940  0.38710  0.41260  Biso   1.000  O
  O56      1.0000 0.20510  0.34640  0.41940  Biso   1.000  O
  O57      1.0000 0.07430  0.24580  0.83700  Biso   1.000  O
  O58      1.0000 0.93710  0.29550  0.83230  Biso   1.000  O
  O59      1.0000 0.77890  0.16320  0.10880  Biso   1.000  O
  O60      1.0000 0.87750  0.09600  0.10310  Biso   1.000  O
  O61      1.0000 0.64500  0.57350  0.63300  Biso   1.000  O
  O62      1.0000 0.62470  0.49260  0.66600  Biso   1.000  O
  O63      1.0000 0.87680  0.44370  0.64120  Biso   1.000  O
  O64      1.0000 0.89840  0.53120  0.65920  Biso   1.000  O
