data_image0
_cell_length_a       12.2751
_cell_length_b       19.9288
_cell_length_c       19.9288
_cell_angle_alpha    103.536
_cell_angle_beta     93.8976
_cell_angle_gamma    93.8976

_symmetry_space_group_name_H-M    P 1
_symmetry_int_tables_number       1

loop_
  _symmetry_equiv_pos_as_xyz
  'x, y, z'

loop_
  _atom_site_label
  _atom_site_occupancy
  _atom_site_fract_x
  _atom_site_fract_y
  _atom_site_fract_z
  _atom_site_thermal_displace_type
  _atom_site_B_iso_or_equiv
  _atom_site_type_symbol
  Zn1      1.0000 0.81324  0.60609  0.11638  Biso   1.000  Zn
  Zn2      1.0000 0.61380  0.66722  0.15566  Biso   1.000  Zn
  Zn3      1.0000 0.92931  0.19862  0.93606  Biso   1.000  Zn
  Zn4      1.0000 0.01809  0.34034  0.08545  Biso   1.000  Zn
  Zn5      1.0000 0.31324  0.11638  0.60609  Biso   1.000  Zn
  Zn6      1.0000 0.11380  0.15566  0.66722  Biso   1.000  Zn
  Zn7      1.0000 0.42931  0.93606  0.19862  Biso   1.000  Zn
  Zn8      1.0000 0.51809  0.08545  0.34034  Biso   1.000  Zn
  H1       1.0000 0.50530  0.73130  0.28290  Biso   1.000  H
  H2       1.0000 0.42860  0.66190  0.24810  Biso   1.000  H
  H3       1.0000 0.30170  0.84500  0.28040  Biso   1.000  H
  H4       1.0000 0.42850  0.84170  0.30310  Biso   1.000  H
  H5       1.0000 0.32270  0.80100  0.09980  Biso   1.000  H
  H6       1.0000 0.23790  0.82160  0.15720  Biso   1.000  H
  H7       1.0000 0.18830  0.74170  0.22690  Biso   1.000  H
  H8       1.0000 0.23830  0.66810  0.21390  Biso   1.000  H
  H9       1.0000 0.36110  0.63780  0.12580  Biso   1.000  H
  H10      1.0000 0.39430  0.69100  0.08020  Biso   1.000  H
  H11      1.0000 0.51250  0.79660  0.13260  Biso   1.000  H
  H12      1.0000 0.55750  0.81260  0.21260  Biso   1.000  H
  H13      1.0000 0.05700  0.59440  0.17360  Biso   1.000  H
  H14      1.0000 0.06630  0.64010  0.11770  Biso   1.000  H
  H15      1.0000 0.87100  0.46080  0.07140  Biso   1.000  H
  H16      1.0000 0.93890  0.48640  0.14560  Biso   1.000  H
  H17      1.0000 0.96310  0.60080  0.00360  Biso   1.000  H
  H18      1.0000 0.88650  0.52960  0.98520  Biso   1.000  H
  H19      1.0000 0.20000  0.45850  0.08750  Biso   1.000  H
  H20      1.0000 0.13790  0.48530  0.15550  Biso   1.000  H
  H21      1.0000 0.15860  0.59900  0.01540  Biso   1.000  H
  H22      1.0000 0.21130  0.52620  0.00340  Biso   1.000  H
  H23      1.0000 0.96440  0.42190  0.96750  Biso   1.000  H
  H24      1.0000 0.09480  0.41970  0.97330  Biso   1.000  H
  H25      1.0000 0.65830  0.83600  0.05560  Biso   1.000  H
  H26      1.0000 0.63380  0.95480  0.03860  Biso   1.000  H
  H27      1.0000 0.70060  0.05030  0.00330  Biso   1.000  H
  H28      1.0000 0.95560  0.95040  0.92440  Biso   1.000  H
  H29      1.0000 0.97990  0.83020  0.94100  Biso   1.000  H
  H30      1.0000 0.92350  0.73970  0.98770  Biso   1.000  H
  H31      1.0000 0.79240  0.45140  0.22740  Biso   1.000  H
  H32      1.0000 0.45330  0.42050  0.31490  Biso   1.000  H
  H33      1.0000 0.49320  0.51520  0.27140  Biso   1.000  H
  H34      1.0000 0.84730  0.34290  0.25310  Biso   1.000  H
  H35      1.0000 0.80760  0.24650  0.29530  Biso   1.000  H
  H36      1.0000 0.50860  0.30760  0.34080  Biso   1.000  H
  H37      1.0000 0.76460  0.83320  0.33180  Biso   1.000  H
  H38      1.0000 0.78190  0.93940  0.42960  Biso   1.000  H
  H39      1.0000 0.16300  0.92770  0.45250  Biso   1.000  H
  H40      1.0000 0.14370  0.81670  0.36030  Biso   1.000  H
  H41      1.0000 0.03440  0.73570  0.27590  Biso   1.000  H
  H42      1.0000 0.89040  0.01830  0.51470  Biso   1.000  H
  H43      1.0000 0.67820  0.38630  0.10650  Biso   1.000  H
  H44      1.0000 0.49070  0.38800  0.10760  Biso   1.000  H
  H45      1.0000 0.30330  0.33950  0.05590  Biso   1.000  H
  H46      1.0000 0.64200  0.22540  0.93720  Biso   1.000  H
  H47      1.0000 0.45330  0.17280  0.88840  Biso   1.000  H
  H48      1.0000 0.26650  0.17420  0.89020  Biso   1.000  H
  H49      1.0000 0.00530  0.28290  0.73130  Biso   1.000  H
  H50      1.0000 0.92860  0.24810  0.66190  Biso   1.000  H
  H51      1.0000 0.80170  0.28040  0.84500  Biso   1.000  H
  H52      1.0000 0.92850  0.30310  0.84170  Biso   1.000  H
  H53      1.0000 0.82270  0.09980  0.80100  Biso   1.000  H
  H54      1.0000 0.73790  0.15720  0.82160  Biso   1.000  H
  H55      1.0000 0.68830  0.22690  0.74170  Biso   1.000  H
  H56      1.0000 0.73830  0.21390  0.66810  Biso   1.000  H
  H57      1.0000 0.86110  0.12580  0.63780  Biso   1.000  H
  H58      1.0000 0.89430  0.08020  0.69100  Biso   1.000  H
  H59      1.0000 0.01250  0.13260  0.79660  Biso   1.000  H
  H60      1.0000 0.05750  0.21260  0.81260  Biso   1.000  H
  H61      1.0000 0.55700  0.17360  0.59440  Biso   1.000  H
  H62      1.0000 0.56630  0.11770  0.64010  Biso   1.000  H
  H63      1.0000 0.37100  0.07140  0.46080  Biso   1.000  H
  H64      1.0000 0.43890  0.14560  0.48640  Biso   1.000  H
  H65      1.0000 0.46310  0.00360  0.60080  Biso   1.000  H
  H66      1.0000 0.38650  0.98520  0.52960  Biso   1.000  H
  H67      1.0000 0.70000  0.08750  0.45850  Biso   1.000  H
  H68      1.0000 0.63790  0.15550  0.48530  Biso   1.000  H
  H69      1.0000 0.65860  0.01540  0.59900  Biso   1.000  H
  H70      1.0000 0.71130  0.00340  0.52620  Biso   1.000  H
  H71      1.0000 0.46440  0.96750  0.42190  Biso   1.000  H
  H72      1.0000 0.59480  0.97330  0.41970  Biso   1.000  H
  H73      1.0000 0.15830  0.05560  0.83600  Biso   1.000  H
  H74      1.0000 0.13380  0.03860  0.95480  Biso   1.000  H
  H75      1.0000 0.20060  0.00330  0.05030  Biso   1.000  H
  H76      1.0000 0.45560  0.92440  0.95040  Biso   1.000  H
  H77      1.0000 0.47990  0.94100  0.83020  Biso   1.000  H
  H78      1.0000 0.42350  0.98770  0.73970  Biso   1.000  H
  H79      1.0000 0.29240  0.22740  0.45140  Biso   1.000  H
  H80      1.0000 0.95330  0.31490  0.42050  Biso   1.000  H
  H81      1.0000 0.99320  0.27140  0.51520  Biso   1.000  H
  H82      1.0000 0.34730  0.25310  0.34290  Biso   1.000  H
  H83      1.0000 0.30760  0.29530  0.24650  Biso   1.000  H
  H84      1.0000 0.00860  0.34080  0.30760  Biso   1.000  H
  H85      1.0000 0.26460  0.33180  0.83320  Biso   1.000  H
  H86      1.0000 0.28190  0.42960  0.93940  Biso   1.000  H
  H87      1.0000 0.66300  0.45250  0.92770  Biso   1.000  H
  H88      1.0000 0.64370  0.36030  0.81670  Biso   1.000  H
  H89      1.0000 0.53440  0.27590  0.73570  Biso   1.000  H
  H90      1.0000 0.39040  0.51470  0.01830  Biso   1.000  H
  H91      1.0000 0.17820  0.10650  0.38630  Biso   1.000  H
  H92      1.0000 0.99070  0.10760  0.38800  Biso   1.000  H
  H93      1.0000 0.80330  0.05590  0.33950  Biso   1.000  H
  H94      1.0000 0.14200  0.93720  0.22540  Biso   1.000  H
  H95      1.0000 0.95330  0.88840  0.17280  Biso   1.000  H
  H96      1.0000 0.76650  0.89020  0.17420  Biso   1.000  H
  C1       1.0000 0.44310  0.71135  0.24807  Biso   1.000  C
  C2       1.0000 0.36760  0.82055  0.26767  Biso   1.000  C
  C3       1.0000 0.30400  0.79673  0.14621  Biso   1.000  C
  C4       1.0000 0.25460  0.71755  0.21441  Biso   1.000  C
  C5       1.0000 0.37650  0.68743  0.12699  Biso   1.000  C
  C6       1.0000 0.49410  0.79187  0.17897  Biso   1.000  C
  C7       1.0000 0.05750  0.59211  0.12345  Biso   1.000  C
  C8       1.0000 0.94090  0.48493  0.09569  Biso   1.000  C
  C9       1.0000 0.95590  0.55326  0.01074  Biso   1.000  C
  C10      1.0000 0.13730  0.48371  0.10547  Biso   1.000  C
  C11      1.0000 0.14880  0.55125  0.02207  Biso   1.000  C
  C12      1.0000 0.03370  0.44569  0.99287  Biso   1.000  C
  C13      1.0000 0.75380  0.72253  0.06023  Biso   1.000  C
  C14      1.0000 0.78560  0.77988  0.02654  Biso   1.000  C
  C15      1.0000 0.72430  0.83586  0.03330  Biso   1.000  C
  C16      1.0000 0.75880  0.89370  0.00716  Biso   1.000  C
  C17      1.0000 0.70030  0.95374  0.01672  Biso   1.000  C
  C18      1.0000 0.73900  0.00976  0.99484  Biso   1.000  C
  C19      1.0000 0.89150  0.95107  0.94859  Biso   1.000  C
  C20      1.0000 0.91560  0.83257  0.96505  Biso   1.000  C
  C21      1.0000 0.88160  0.77861  0.99221  Biso   1.000  C
  C22      1.0000 0.83520  0.00865  0.95985  Biso   1.000  C
  C23      1.0000 0.87850  0.07163  0.93749  Biso   1.000  C
  C24      1.0000 0.85610  0.89190  0.97232  Biso   1.000  C
  C25      1.0000 0.67020  0.55196  0.21180  Biso   1.000  C
  C26      1.0000 0.64760  0.49282  0.24484  Biso   1.000  C
  C27      1.0000 0.72380  0.44476  0.24542  Biso   1.000  C
  C28      1.0000 0.70170  0.38631  0.27207  Biso   1.000  C
  C29      1.0000 0.59970  0.37638  0.29898  Biso   1.000  C
  C30      1.0000 0.52250  0.42637  0.29743  Biso   1.000  C
  C31      1.0000 0.54600  0.48247  0.27159  Biso   1.000  C
  C32      1.0000 0.77860  0.33650  0.27102  Biso   1.000  C
  C33      1.0000 0.75490  0.27926  0.29558  Biso   1.000  C
  C34      1.0000 0.57710  0.31557  0.32319  Biso   1.000  C
  C35      1.0000 0.65340  0.26853  0.32127  Biso   1.000  C
  C36      1.0000 0.62540  0.20178  0.34304  Biso   1.000  C
  C37      1.0000 0.82060  0.72609  0.23745  Biso   1.000  C
  C38      1.0000 0.88860  0.77765  0.29533  Biso   1.000  C
  C39      1.0000 0.84150  0.83039  0.33759  Biso   1.000  C
  C40      1.0000 0.90610  0.88052  0.38964  Biso   1.000  C
  C41      1.0000 0.85860  0.93579  0.43447  Biso   1.000  C
  C42      1.0000 0.08570  0.92905  0.44799  Biso   1.000  C
  C43      1.0000 0.02070  0.87690  0.39710  Biso   1.000  C
  C44      1.0000 0.06720  0.82102  0.35446  Biso   1.000  C
  C45      1.0000 0.00220  0.77279  0.30453  Biso   1.000  C
  C46      1.0000 0.03830  0.98100  0.49056  Biso   1.000  C
  C47      1.0000 0.10650  0.03479  0.54395  Biso   1.000  C
  C48      1.0000 0.92320  0.98307  0.48395  Biso   1.000  C
  C49      1.0000 0.67710  0.30581  0.02007  Biso   1.000  C
  C50      1.0000 0.79840  0.30605  0.02015  Biso   1.000  C
  C51      1.0000 0.63140  0.35415  0.07209  Biso   1.000  C
  C52      1.0000 0.52080  0.35468  0.07306  Biso   1.000  C
  C53      1.0000 0.33480  0.30606  0.02230  Biso   1.000  C
  C54      1.0000 0.14650  0.26049  0.97309  Biso   1.000  C
  C55      1.0000 0.45070  0.30635  0.02351  Biso   1.000  C
  C56      1.0000 0.49570  0.25635  0.97171  Biso   1.000  C
  C57      1.0000 0.61040  0.25796  0.97154  Biso   1.000  C
  C58      1.0000 0.42380  0.20682  0.92234  Biso   1.000  C
  C59      1.0000 0.26710  0.25827  0.97329  Biso   1.000  C
  C60      1.0000 0.31330  0.20780  0.92334  Biso   1.000  C
  C61      1.0000 0.94310  0.24807  0.71135  Biso   1.000  C
  C62      1.0000 0.86760  0.26767  0.82055  Biso   1.000  C
  C63      1.0000 0.80400  0.14621  0.79673  Biso   1.000  C
  C64      1.0000 0.75460  0.21441  0.71755  Biso   1.000  C
  C65      1.0000 0.87650  0.12699  0.68743  Biso   1.000  C
  C66      1.0000 0.99410  0.17897  0.79187  Biso   1.000  C
  C67      1.0000 0.55750  0.12345  0.59211  Biso   1.000  C
  C68      1.0000 0.44090  0.09569  0.48493  Biso   1.000  C
  C69      1.0000 0.45590  0.01074  0.55326  Biso   1.000  C
  C70      1.0000 0.63730  0.10547  0.48371  Biso   1.000  C
  C71      1.0000 0.64880  0.02207  0.55125  Biso   1.000  C
  C72      1.0000 0.53370  0.99287  0.44569  Biso   1.000  C
  C73      1.0000 0.25380  0.06023  0.72253  Biso   1.000  C
  C74      1.0000 0.28560  0.02654  0.77988  Biso   1.000  C
  C75      1.0000 0.22430  0.03330  0.83586  Biso   1.000  C
  C76      1.0000 0.25880  0.00716  0.89370  Biso   1.000  C
  C77      1.0000 0.20030  0.01672  0.95374  Biso   1.000  C
  C78      1.0000 0.23900  0.99484  0.00976  Biso   1.000  C
  C79      1.0000 0.39150  0.94859  0.95107  Biso   1.000  C
  C80      1.0000 0.41560  0.96505  0.83257  Biso   1.000  C
  C81      1.0000 0.38160  0.99221  0.77861  Biso   1.000  C
  C82      1.0000 0.33520  0.95985  0.00865  Biso   1.000  C
  C83      1.0000 0.37850  0.93749  0.07163  Biso   1.000  C
  C84      1.0000 0.35610  0.97232  0.89190  Biso   1.000  C
  C85      1.0000 0.17020  0.21180  0.55196  Biso   1.000  C
  C86      1.0000 0.14760  0.24484  0.49282  Biso   1.000  C
  C87      1.0000 0.22380  0.24542  0.44476  Biso   1.000  C
  C88      1.0000 0.20170  0.27207  0.38631  Biso   1.000  C
  C89      1.0000 0.09970  0.29898  0.37638  Biso   1.000  C
  C90      1.0000 0.02250  0.29743  0.42637  Biso   1.000  C
  C91      1.0000 0.04600  0.27159  0.48247  Biso   1.000  C
  C92      1.0000 0.27860  0.27102  0.33650  Biso   1.000  C
  C93      1.0000 0.25490  0.29558  0.27926  Biso   1.000  C
  C94      1.0000 0.07710  0.32319  0.31557  Biso   1.000  C
  C95      1.0000 0.15340  0.32127  0.26853  Biso   1.000  C
  C96      1.0000 0.12540  0.34304  0.20178  Biso   1.000  C
  C97      1.0000 0.32060  0.23745  0.72609  Biso   1.000  C
  C98      1.0000 0.38860  0.29533  0.77765  Biso   1.000  C
  C99      1.0000 0.34150  0.33759  0.83039  Biso   1.000  C
  C100     1.0000 0.40610  0.38964  0.88052  Biso   1.000  C
  C101     1.0000 0.35860  0.43447  0.93579  Biso   1.000  C
  C102     1.0000 0.58570  0.44799  0.92905  Biso   1.000  C
  C103     1.0000 0.52070  0.39710  0.87690  Biso   1.000  C
  C104     1.0000 0.56720  0.35446  0.82102  Biso   1.000  C
  C105     1.0000 0.50220  0.30453  0.77279  Biso   1.000  C
  C106     1.0000 0.53830  0.49056  0.98100  Biso   1.000  C
  C107     1.0000 0.60650  0.54395  0.03479  Biso   1.000  C
  C108     1.0000 0.42320  0.48395  0.98307  Biso   1.000  C
  C109     1.0000 0.17710  0.02007  0.30581  Biso   1.000  C
  C110     1.0000 0.29840  0.02015  0.30605  Biso   1.000  C
  C111     1.0000 0.13140  0.07209  0.35415  Biso   1.000  C
  C112     1.0000 0.02080  0.07306  0.35468  Biso   1.000  C
  C113     1.0000 0.83480  0.02230  0.30606  Biso   1.000  C
  C114     1.0000 0.64650  0.97309  0.26049  Biso   1.000  C
  C115     1.0000 0.95070  0.02351  0.30635  Biso   1.000  C
  C116     1.0000 0.99570  0.97171  0.25635  Biso   1.000  C
  C117     1.0000 0.11040  0.97154  0.25796  Biso   1.000  C
  C118     1.0000 0.92380  0.92234  0.20682  Biso   1.000  C
  C119     1.0000 0.76710  0.97329  0.25827  Biso   1.000  C
  C120     1.0000 0.81330  0.92334  0.20780  Biso   1.000  C
  N1       1.0000 0.47340  0.71688  0.17796  Biso   1.000  N
  N2       1.0000 0.34610  0.74755  0.26747  Biso   1.000  N
  N3       1.0000 0.27950  0.72331  0.14471  Biso   1.000  N
  N4       1.0000 0.39680  0.82972  0.19842  Biso   1.000  N
  N5       1.0000 0.95110  0.55694  0.08650  Biso   1.000  N
  N6       1.0000 0.03240  0.44543  0.06861  Biso   1.000  N
  N7       1.0000 0.15010  0.55455  0.09615  Biso   1.000  N
  N8       1.0000 0.04690  0.51648  0.98312  Biso   1.000  N
  N9       1.0000 0.97340  0.17796  0.71688  Biso   1.000  N
  N10      1.0000 0.84610  0.26747  0.74755  Biso   1.000  N
  N11      1.0000 0.77950  0.14471  0.72331  Biso   1.000  N
  N12      1.0000 0.89680  0.19842  0.82972  Biso   1.000  N
  N13      1.0000 0.45110  0.08650  0.55694  Biso   1.000  N
  N14      1.0000 0.53240  0.06861  0.44543  Biso   1.000  N
  N15      1.0000 0.65010  0.09615  0.55455  Biso   1.000  N
  N16      1.0000 0.54690  0.98312  0.51648  Biso   1.000  N
  O1       1.0000 0.81620  0.67478  0.05604  Biso   1.000  O
  O2       1.0000 0.66930  0.72696  0.09282  Biso   1.000  O
  O3       1.0000 0.83540  0.12740  0.96234  Biso   1.000  O
  O4       1.0000 0.95290  0.06860  0.89832  Biso   1.000  O
  O5       1.0000 0.76010  0.55436  0.18536  Biso   1.000  O
  O6       1.0000 0.59920  0.59422  0.21226  Biso   1.000  O
  O7       1.0000 0.69490  0.15960  0.34220  Biso   1.000  O
  O8       1.0000 0.52850  0.19016  0.35800  Biso   1.000  O
  O9       1.0000 0.87360  0.68509  0.19761  Biso   1.000  O
  O10      1.0000 0.71880  0.72817  0.23399  Biso   1.000  O
  O11      1.0000 0.05650  0.07198  0.59142  Biso   1.000  O
  O12      1.0000 0.20750  0.04258  0.53938  Biso   1.000  O
  O13      1.0000 0.10970  0.31523  0.00627  Biso   1.000  O
  O14      1.0000 0.08850  0.20740  0.93918  Biso   1.000  O
  O15      1.0000 0.85490  0.33801  0.07493  Biso   1.000  O
  O16      1.0000 0.83820  0.27698  0.96480  Biso   1.000  O
  O17      1.0000 0.31620  0.05604  0.67478  Biso   1.000  O
  O18      1.0000 0.16930  0.09282  0.72696  Biso   1.000  O
  O19      1.0000 0.33540  0.96234  0.12740  Biso   1.000  O
  O20      1.0000 0.45290  0.89832  0.06860  Biso   1.000  O
  O21      1.0000 0.26010  0.18536  0.55436  Biso   1.000  O
  O22      1.0000 0.09920  0.21226  0.59422  Biso   1.000  O
  O23      1.0000 0.19490  0.34220  0.15960  Biso   1.000  O
  O24      1.0000 0.02850  0.35800  0.19016  Biso   1.000  O
  O25      1.0000 0.37360  0.19761  0.68509  Biso   1.000  O
  O26      1.0000 0.21880  0.23399  0.72817  Biso   1.000  O
  O27      1.0000 0.55650  0.59142  0.07198  Biso   1.000  O
  O28      1.0000 0.70750  0.53938  0.04258  Biso   1.000  O
  O29      1.0000 0.60970  0.00627  0.31523  Biso   1.000  O
  O30      1.0000 0.58850  0.93918  0.20740  Biso   1.000  O
  O31      1.0000 0.35490  0.07493  0.33801  Biso   1.000  O
  O32      1.0000 0.33820  0.96480  0.27698  Biso   1.000  O
