data_image0
_cell_length_a       16.2295
_cell_length_b       16.2295
_cell_length_c       28.0346
_cell_angle_alpha    80.1219
_cell_angle_beta     80.1219
_cell_angle_gamma    62.9324

_symmetry_space_group_name_H-M    P 1
_symmetry_int_tables_number       1

loop_
  _symmetry_equiv_pos_as_xyz
  'x, y, z'

loop_
  _atom_site_label
  _atom_site_occupancy
  _atom_site_fract_x
  _atom_site_fract_y
  _atom_site_fract_z
  _atom_site_thermal_displace_type
  _atom_site_B_iso_or_equiv
  _atom_site_type_symbol
  Tb1      1.0000 0.43125  0.97098  0.95556  Biso   1.000  Tb
  Tb2      1.0000 0.02902  0.56875  0.54444  Biso   1.000  Tb
  Tb3      1.0000 0.56874  0.02902  0.04444  Biso   1.000  Tb
  Tb4      1.0000 0.97098  0.43125  0.45556  Biso   1.000  Tb
  H1       1.0000 0.45920  0.87600  0.79430  Biso   1.000  H
  H2       1.0000 0.42680  0.81400  0.73630  Biso   1.000  H
  H3       1.0000 0.32940  0.66840  0.84320  Biso   1.000  H
  H4       1.0000 0.35760  0.73940  0.90020  Biso   1.000  H
  H5       1.0000 0.36620  0.71700  0.71350  Biso   1.000  H
  H6       1.0000 0.75790  0.82490  0.02650  Biso   1.000  H
  H7       1.0000 0.91040  0.70520  0.02870  Biso   1.000  H
  H8       1.0000 0.84930  0.55330  0.95570  Biso   1.000  H
  H9       1.0000 0.70410  0.67130  0.94780  Biso   1.000  H
  H10      1.0000 0.02800  0.55820  0.01270  Biso   1.000  H
  H11      1.0000 0.66460  0.17660  0.91450  Biso   1.000  H
  H12      1.0000 0.71750  0.24830  0.84440  Biso   1.000  H
  H13      1.0000 0.63020  0.12980  0.76030  Biso   1.000  H
  H14      1.0000 0.57630  0.06030  0.83000  Biso   1.000  H
  H15      1.0000 0.70580  0.22460  0.71990  Biso   1.000  H
  H16      1.0000 0.18330  0.93270  0.92950  Biso   1.000  H
  H17      1.0000 0.10610  0.02890  0.94820  Biso   1.000  H
  H18      1.0000 0.10690  0.93270  0.97400  Biso   1.000  H
  H19      1.0000 0.07300  0.03940  0.03240  Biso   1.000  H
  H20      1.0000 0.14060  0.07980  0.04320  Biso   1.000  H
  H21      1.0000 0.14100  0.98700  0.07420  Biso   1.000  H
  H22      1.0000 0.40950  0.06050  0.79720  Biso   1.000  H
  H23      1.0000 0.36700  0.16780  0.80580  Biso   1.000  H
  H24      1.0000 0.31130  0.13310  0.77870  Biso   1.000  H
  H25      1.0000 0.15190  0.20210  0.89070  Biso   1.000  H
  H26      1.0000 0.15670  0.20330  0.83310  Biso   1.000  H
  H27      1.0000 0.20650  0.25250  0.85430  Biso   1.000  H
  H28      1.0000 0.12400  0.54080  0.70570  Biso   1.000  H
  H29      1.0000 0.18600  0.57320  0.76370  Biso   1.000  H
  H30      1.0000 0.33160  0.67060  0.65680  Biso   1.000  H
  H31      1.0000 0.26060  0.64240  0.59980  Biso   1.000  H
  H32      1.0000 0.28300  0.63380  0.78650  Biso   1.000  H
  H33      1.0000 0.17510  0.24210  0.47350  Biso   1.000  H
  H34      1.0000 0.29480  0.08960  0.47130  Biso   1.000  H
  H35      1.0000 0.44670  0.15070  0.54430  Biso   1.000  H
  H36      1.0000 0.32870  0.29590  0.55220  Biso   1.000  H
  H37      1.0000 0.44180  0.97200  0.48730  Biso   1.000  H
  H38      1.0000 0.82340  0.33540  0.58550  Biso   1.000  H
  H39      1.0000 0.75170  0.28250  0.65560  Biso   1.000  H
  H40      1.0000 0.87020  0.36980  0.73970  Biso   1.000  H
  H41      1.0000 0.93970  0.42370  0.67000  Biso   1.000  H
  H42      1.0000 0.77540  0.29420  0.78010  Biso   1.000  H
  H43      1.0000 0.06730  0.81670  0.57050  Biso   1.000  H
  H44      1.0000 0.97110  0.89390  0.55180  Biso   1.000  H
  H45      1.0000 0.06730  0.89310  0.52600  Biso   1.000  H
  H46      1.0000 0.96060  0.92700  0.46760  Biso   1.000  H
  H47      1.0000 0.92020  0.85940  0.45680  Biso   1.000  H
  H48      1.0000 0.01300  0.85900  0.42580  Biso   1.000  H
  H49      1.0000 0.93950  0.59050  0.70280  Biso   1.000  H
  H50      1.0000 0.83220  0.63300  0.69420  Biso   1.000  H
  H51      1.0000 0.86690  0.68870  0.72130  Biso   1.000  H
  H52      1.0000 0.79790  0.84810  0.60930  Biso   1.000  H
  H53      1.0000 0.79670  0.84330  0.66690  Biso   1.000  H
  H54      1.0000 0.74750  0.79350  0.64570  Biso   1.000  H
  H55      1.0000 0.54080  0.12400  0.20570  Biso   1.000  H
  H56      1.0000 0.57320  0.18600  0.26370  Biso   1.000  H
  H57      1.0000 0.67060  0.33160  0.15680  Biso   1.000  H
  H58      1.0000 0.64240  0.26060  0.09980  Biso   1.000  H
  H59      1.0000 0.63380  0.28300  0.28650  Biso   1.000  H
  H60      1.0000 0.24210  0.17510  0.97350  Biso   1.000  H
  H61      1.0000 0.08960  0.29480  0.97130  Biso   1.000  H
  H62      1.0000 0.15070  0.44670  0.04430  Biso   1.000  H
  H63      1.0000 0.29590  0.32870  0.05220  Biso   1.000  H
  H64      1.0000 0.97200  0.44180  0.98730  Biso   1.000  H
  H65      1.0000 0.33540  0.82340  0.08550  Biso   1.000  H
  H66      1.0000 0.28250  0.75170  0.15560  Biso   1.000  H
  H67      1.0000 0.36980  0.87020  0.23970  Biso   1.000  H
  H68      1.0000 0.42370  0.93970  0.17000  Biso   1.000  H
  H69      1.0000 0.29420  0.77540  0.28010  Biso   1.000  H
  H70      1.0000 0.81670  0.06730  0.07050  Biso   1.000  H
  H71      1.0000 0.89390  0.97110  0.05180  Biso   1.000  H
  H72      1.0000 0.89310  0.06730  0.02600  Biso   1.000  H
  H73      1.0000 0.92700  0.96060  0.96760  Biso   1.000  H
  H74      1.0000 0.85940  0.92020  0.95680  Biso   1.000  H
  H75      1.0000 0.85900  0.01300  0.92580  Biso   1.000  H
  H76      1.0000 0.59050  0.93950  0.20280  Biso   1.000  H
  H77      1.0000 0.63300  0.83220  0.19420  Biso   1.000  H
  H78      1.0000 0.68870  0.86690  0.22130  Biso   1.000  H
  H79      1.0000 0.84810  0.79790  0.10930  Biso   1.000  H
  H80      1.0000 0.84330  0.79670  0.16690  Biso   1.000  H
  H81      1.0000 0.79350  0.74750  0.14570  Biso   1.000  H
  H82      1.0000 0.87600  0.45920  0.29430  Biso   1.000  H
  H83      1.0000 0.81400  0.42680  0.23630  Biso   1.000  H
  H84      1.0000 0.66840  0.32940  0.34320  Biso   1.000  H
  H85      1.0000 0.73940  0.35760  0.40020  Biso   1.000  H
  H86      1.0000 0.71700  0.36620  0.21350  Biso   1.000  H
  H87      1.0000 0.82490  0.75790  0.52650  Biso   1.000  H
  H88      1.0000 0.70520  0.91040  0.52870  Biso   1.000  H
  H89      1.0000 0.55330  0.84930  0.45570  Biso   1.000  H
  H90      1.0000 0.67130  0.70410  0.44780  Biso   1.000  H
  H91      1.0000 0.55820  0.02800  0.51270  Biso   1.000  H
  H92      1.0000 0.17660  0.66460  0.41450  Biso   1.000  H
  H93      1.0000 0.24830  0.71750  0.34440  Biso   1.000  H
  H94      1.0000 0.12980  0.63020  0.26030  Biso   1.000  H
  H95      1.0000 0.06030  0.57630  0.33000  Biso   1.000  H
  H96      1.0000 0.22460  0.70580  0.21990  Biso   1.000  H
  H97      1.0000 0.93270  0.18330  0.42950  Biso   1.000  H
  H98      1.0000 0.02890  0.10610  0.44820  Biso   1.000  H
  H99      1.0000 0.93270  0.10690  0.47400  Biso   1.000  H
  H100     1.0000 0.03940  0.07300  0.53240  Biso   1.000  H
  H101     1.0000 0.07980  0.14060  0.54320  Biso   1.000  H
  H102     1.0000 0.98700  0.14100  0.57420  Biso   1.000  H
  H103     1.0000 0.06050  0.40950  0.29720  Biso   1.000  H
  H104     1.0000 0.16780  0.36700  0.30580  Biso   1.000  H
  H105     1.0000 0.13310  0.31130  0.27870  Biso   1.000  H
  H106     1.0000 0.20210  0.15190  0.39070  Biso   1.000  H
  H107     1.0000 0.20330  0.15670  0.33310  Biso   1.000  H
  H108     1.0000 0.25250  0.20650  0.35430  Biso   1.000  H
  C1       1.0000 0.42130  0.85930  0.89210  Biso   1.000  C
  C2       1.0000 0.40800  0.81600  0.85370  Biso   1.000  C
  C3       1.0000 0.43060  0.83520  0.80430  Biso   1.000  C
  C4       1.0000 0.41300  0.79720  0.76980  Biso   1.000  C
  C5       1.0000 0.37500  0.73380  0.78330  Biso   1.000  C
  C6       1.0000 0.35470  0.71190  0.83260  Biso   1.000  C
  C7       1.0000 0.37200  0.75460  0.86650  Biso   1.000  C
  C8       1.0000 0.34720  0.70140  0.74640  Biso   1.000  C
  C9       1.0000 0.61964  0.83624  0.98240  Biso   1.000  C
  C10      1.0000 0.71480  0.76100  0.98570  Biso   1.000  C
  C11      1.0000 0.77650  0.77030  0.01120  Biso   1.000  C
  C12      1.0000 0.86680  0.69740  0.01360  Biso   1.000  C
  C13      1.0000 0.89290  0.61670  0.99510  Biso   1.000  C
  C14      1.0000 0.83090  0.60890  0.97000  Biso   1.000  C
  C15      1.0000 0.74480  0.67880  0.96540  Biso   1.000  C
  C16      1.0000 0.98540  0.54120  0.00260  Biso   1.000  C
  C17      1.0000 0.57901  0.06881  0.92295  Biso   1.000  C
  C18      1.0000 0.61688  0.11048  0.87820  Biso   1.000  C
  C19      1.0000 0.65820  0.16700  0.88310  Biso   1.000  C
  C20      1.0000 0.69000  0.20900  0.84150  Biso   1.000  C
  C21      1.0000 0.68210  0.19370  0.79540  Biso   1.000  C
  C22      1.0000 0.63800  0.13880  0.79150  Biso   1.000  C
  C23      1.0000 0.60600  0.09760  0.83287  Biso   1.000  C
  C24      1.0000 0.71770  0.23370  0.75020  Biso   1.000  C
  C25      1.0000 0.14580  0.96340  0.95820  Biso   1.000  C
  C26      1.0000 0.13430  0.02290  0.04200  Biso   1.000  C
  C27      1.0000 0.35200  0.11640  0.80440  Biso   1.000  C
  C28      1.0000 0.19080  0.19980  0.85970  Biso   1.000  C
  C29      1.0000 0.14070  0.57870  0.60790  Biso   1.000  C
  C30      1.0000 0.18400  0.59200  0.64630  Biso   1.000  C
  C31      1.0000 0.16480  0.56940  0.69570  Biso   1.000  C
  C32      1.0000 0.20280  0.58700  0.73020  Biso   1.000  C
  C33      1.0000 0.26620  0.62500  0.71670  Biso   1.000  C
  C34      1.0000 0.28810  0.64530  0.66740  Biso   1.000  C
  C35      1.0000 0.24540  0.62800  0.63350  Biso   1.000  C
  C36      1.0000 0.29860  0.65280  0.75360  Biso   1.000  C
  C37      1.0000 0.16376  0.38036  0.51760  Biso   1.000  C
  C38      1.0000 0.23900  0.28520  0.51430  Biso   1.000  C
  C39      1.0000 0.22970  0.22350  0.48880  Biso   1.000  C
  C40      1.0000 0.30260  0.13320  0.48640  Biso   1.000  C
  C41      1.0000 0.38330  0.10710  0.50490  Biso   1.000  C
  C42      1.0000 0.39110  0.16910  0.53000  Biso   1.000  C
  C43      1.0000 0.32120  0.25520  0.53460  Biso   1.000  C
  C44      1.0000 0.45880  0.01460  0.49740  Biso   1.000  C
  C45      1.0000 0.93119  0.42099  0.57705  Biso   1.000  C
  C46      1.0000 0.88952  0.38312  0.62180  Biso   1.000  C
  C47      1.0000 0.83300  0.34180  0.61690  Biso   1.000  C
  C48      1.0000 0.79100  0.31000  0.65850  Biso   1.000  C
  C49      1.0000 0.80630  0.31790  0.70460  Biso   1.000  C
  C50      1.0000 0.86120  0.36200  0.70850  Biso   1.000  C
  C51      1.0000 0.90240  0.39400  0.66713  Biso   1.000  C
  C52      1.0000 0.76630  0.28230  0.74980  Biso   1.000  C
  C53      1.0000 0.03660  0.85420  0.54180  Biso   1.000  C
  C54      1.0000 0.97710  0.86570  0.45800  Biso   1.000  C
  C55      1.0000 0.88360  0.64800  0.69560  Biso   1.000  C
  C56      1.0000 0.80020  0.80920  0.64030  Biso   1.000  C
  C57      1.0000 0.57870  0.14070  0.10790  Biso   1.000  C
  C58      1.0000 0.59200  0.18400  0.14630  Biso   1.000  C
  C59      1.0000 0.56940  0.16480  0.19570  Biso   1.000  C
  C60      1.0000 0.58700  0.20280  0.23020  Biso   1.000  C
  C61      1.0000 0.62500  0.26620  0.21670  Biso   1.000  C
  C62      1.0000 0.64530  0.28810  0.16740  Biso   1.000  C
  C63      1.0000 0.62800  0.24540  0.13350  Biso   1.000  C
  C64      1.0000 0.65280  0.29860  0.25360  Biso   1.000  C
  C65      1.0000 0.38036  0.16376  0.01760  Biso   1.000  C
  C66      1.0000 0.28520  0.23900  0.01430  Biso   1.000  C
  C67      1.0000 0.22350  0.22970  0.98880  Biso   1.000  C
  C68      1.0000 0.13320  0.30260  0.98640  Biso   1.000  C
  C69      1.0000 0.10710  0.38330  0.00490  Biso   1.000  C
  C70      1.0000 0.16910  0.39110  0.03000  Biso   1.000  C
  C71      1.0000 0.25520  0.32120  0.03460  Biso   1.000  C
  C72      1.0000 0.01460  0.45880  0.99740  Biso   1.000  C
  C73      1.0000 0.42099  0.93119  0.07705  Biso   1.000  C
  C74      1.0000 0.38312  0.88952  0.12180  Biso   1.000  C
  C75      1.0000 0.34180  0.83300  0.11690  Biso   1.000  C
  C76      1.0000 0.31000  0.79100  0.15850  Biso   1.000  C
  C77      1.0000 0.31790  0.80630  0.20460  Biso   1.000  C
  C78      1.0000 0.36200  0.86120  0.20850  Biso   1.000  C
  C79      1.0000 0.39400  0.90240  0.16713  Biso   1.000  C
  C80      1.0000 0.28230  0.76630  0.24980  Biso   1.000  C
  C81      1.0000 0.85420  0.03660  0.04180  Biso   1.000  C
  C82      1.0000 0.86570  0.97710  0.95800  Biso   1.000  C
  C83      1.0000 0.64800  0.88360  0.19560  Biso   1.000  C
  C84      1.0000 0.80920  0.80020  0.14030  Biso   1.000  C
  C85      1.0000 0.85930  0.42130  0.39210  Biso   1.000  C
  C86      1.0000 0.81600  0.40800  0.35370  Biso   1.000  C
  C87      1.0000 0.83520  0.43060  0.30430  Biso   1.000  C
  C88      1.0000 0.79720  0.41300  0.26980  Biso   1.000  C
  C89      1.0000 0.73380  0.37500  0.28330  Biso   1.000  C
  C90      1.0000 0.71190  0.35470  0.33260  Biso   1.000  C
  C91      1.0000 0.75460  0.37200  0.36650  Biso   1.000  C
  C92      1.0000 0.70140  0.34720  0.24640  Biso   1.000  C
  C93      1.0000 0.83624  0.61964  0.48240  Biso   1.000  C
  C94      1.0000 0.76100  0.71480  0.48570  Biso   1.000  C
  C95      1.0000 0.77030  0.77650  0.51120  Biso   1.000  C
  C96      1.0000 0.69740  0.86680  0.51360  Biso   1.000  C
  C97      1.0000 0.61670  0.89290  0.49510  Biso   1.000  C
  C98      1.0000 0.60890  0.83090  0.47000  Biso   1.000  C
  C99      1.0000 0.67880  0.74480  0.46540  Biso   1.000  C
  C100     1.0000 0.54120  0.98540  0.50260  Biso   1.000  C
  C101     1.0000 0.06881  0.57901  0.42295  Biso   1.000  C
  C102     1.0000 0.11048  0.61688  0.37820  Biso   1.000  C
  C103     1.0000 0.16700  0.65820  0.38310  Biso   1.000  C
  C104     1.0000 0.20900  0.69000  0.34150  Biso   1.000  C
  C105     1.0000 0.19370  0.68210  0.29540  Biso   1.000  C
  C106     1.0000 0.13880  0.63800  0.29150  Biso   1.000  C
  C107     1.0000 0.09760  0.60600  0.33287  Biso   1.000  C
  C108     1.0000 0.23370  0.71770  0.25020  Biso   1.000  C
  C109     1.0000 0.96340  0.14580  0.45820  Biso   1.000  C
  C110     1.0000 0.02290  0.13430  0.54200  Biso   1.000  C
  C111     1.0000 0.11640  0.35200  0.30440  Biso   1.000  C
  C112     1.0000 0.19980  0.19080  0.35970  Biso   1.000  C
  S1       1.0000 0.22023  0.95637  0.99967  Biso   1.000  S
  S2       1.0000 0.29451  0.09403  0.86102  Biso   1.000  S
  S3       1.0000 0.04363  0.77977  0.50033  Biso   1.000  S
  S4       1.0000 0.90597  0.70549  0.63898  Biso   1.000  S
  S5       1.0000 0.77977  0.04363  0.00033  Biso   1.000  S
  S6       1.0000 0.70549  0.90597  0.13898  Biso   1.000  S
  S7       1.0000 0.95637  0.22023  0.49967  Biso   1.000  S
  S8       1.0000 0.09403  0.29451  0.36102  Biso   1.000  S
  O1       1.0000 0.45913  0.91293  0.87641  Biso   1.000  O
  O2       1.0000 0.39371  0.84911  0.93631  Biso   1.000  O
  O3       1.0000 0.56935  0.82655  0.95758  Biso   1.000  O
  O4       1.0000 0.59381  0.90701  0.00394  Biso   1.000  O
  O5       1.0000 0.54126  0.01926  0.91616  Biso   1.000  O
  O6       1.0000 0.58931  0.08431  0.96338  Biso   1.000  O
  O7       1.0000 0.26469  0.01869  0.97330  Biso   1.000  O
  O8       1.0000 0.34617  0.10117  0.89890  Biso   1.000  O
  O9       1.0000 0.08707  0.54087  0.62359  Biso   1.000  O
  O10      1.0000 0.15089  0.60629  0.56369  Biso   1.000  O
  O11      1.0000 0.17345  0.43065  0.54242  Biso   1.000  O
  O12      1.0000 0.09299  0.40619  0.49606  Biso   1.000  O
  O13      1.0000 0.98074  0.45874  0.58384  Biso   1.000  O
  O14      1.0000 0.91569  0.41069  0.53662  Biso   1.000  O
  O15      1.0000 0.98131  0.73531  0.52670  Biso   1.000  O
  O16      1.0000 0.89883  0.65383  0.60110  Biso   1.000  O
  O17      1.0000 0.54087  0.08707  0.12359  Biso   1.000  O
  O18      1.0000 0.60629  0.15089  0.06369  Biso   1.000  O
  O19      1.0000 0.43065  0.17345  0.04242  Biso   1.000  O
  O20      1.0000 0.40619  0.09299  0.99606  Biso   1.000  O
  O21      1.0000 0.45874  0.98074  0.08384  Biso   1.000  O
  O22      1.0000 0.41069  0.91569  0.03662  Biso   1.000  O
  O23      1.0000 0.73531  0.98131  0.02670  Biso   1.000  O
  O24      1.0000 0.65383  0.89883  0.10110  Biso   1.000  O
  O25      1.0000 0.91293  0.45913  0.37641  Biso   1.000  O
  O26      1.0000 0.84911  0.39371  0.43631  Biso   1.000  O
  O27      1.0000 0.82655  0.56935  0.45758  Biso   1.000  O
  O28      1.0000 0.90701  0.59381  0.50394  Biso   1.000  O
  O29      1.0000 0.01926  0.54126  0.41616  Biso   1.000  O
  O30      1.0000 0.08431  0.58931  0.46338  Biso   1.000  O
  O31      1.0000 0.01869  0.26469  0.47330  Biso   1.000  O
  O32      1.0000 0.10117  0.34617  0.39890  Biso   1.000  O
