data_image0
_cell_length_a       16.5736
_cell_length_b       21.7897
_cell_length_c       35.132
_cell_angle_alpha    90
_cell_angle_beta     90
_cell_angle_gamma    90

_symmetry_space_group_name_H-M    P 1
_symmetry_int_tables_number       1

loop_
  _symmetry_equiv_pos_as_xyz
  'x, y, z'

loop_
  _atom_site_label
  _atom_site_occupancy
  _atom_site_fract_x
  _atom_site_fract_y
  _atom_site_fract_z
  _atom_site_thermal_displace_type
  _atom_site_B_iso_or_equiv
  _atom_site_type_symbol
  Eu1      1.0000 0.24283  0.57432  0.88597  Biso   1.000  Eu
  Eu2      1.0000 0.17561  0.39480  0.87925  Biso   1.000  Eu
  Eu3      1.0000 0.25717  0.42568  0.38597  Biso   1.000  Eu
  Eu4      1.0000 0.32439  0.60520  0.37925  Biso   1.000  Eu
  H1       1.0000 0.27460  0.57070  0.75710  Biso   1.000  H
  H2       1.0000 0.28600  0.56750  0.69050  Biso   1.000  H
  H3       1.0000 0.25600  0.38230  0.69440  Biso   1.000  H
  H4       1.0000 0.24220  0.38900  0.76090  Biso   1.000  H
  H5       1.0000 0.26830  0.43310  0.63190  Biso   1.000  H
  H6       1.0000 0.46400  0.34690  0.89010  Biso   1.000  H
  H7       1.0000 0.60190  0.36020  0.87860  Biso   1.000  H
  H8       1.0000 0.57350  0.54510  0.89140  Biso   1.000  H
  H9       1.0000 0.43490  0.52950  0.90300  Biso   1.000  H
  H10      1.0000 0.71810  0.42200  0.87980  Biso   1.000  H
  H11      1.0000 0.36680  0.60190  0.50920  Biso   1.000  H
  H12      1.0000 0.35650  0.59860  0.57560  Biso   1.000  H
  H13      1.0000 0.27270  0.42420  0.57090  Biso   1.000  H
  H14      1.0000 0.28040  0.42650  0.50470  Biso   1.000  H
  H15      1.0000 0.31830  0.55310  0.63320  Biso   1.000  H
  H16      1.0000 0.95850  0.62270  0.87440  Biso   1.000  H
  H17      1.0000 0.81980  0.61010  0.87770  Biso   1.000  H
  H18      1.0000 0.84140  0.42760  0.86000  Biso   1.000  H
  H19      1.0000 0.98320  0.43800  0.85750  Biso   1.000  H
  H20      1.0000 0.69960  0.54820  0.88040  Biso   1.000  H
  H21      1.0000 0.20630  0.78510  0.83350  Biso   1.000  H
  H22      1.0000 0.19180  0.89260  0.83750  Biso   1.000  H
  H23      1.0000 0.13480  0.87600  0.94900  Biso   1.000  H
  H24      1.0000 0.15520  0.77010  0.94600  Biso   1.000  H
  H25      1.0000 0.12150  0.97870  0.92030  Biso   1.000  H
  H26      1.0000 0.15290  0.18510  0.93520  Biso   1.000  H
  H27      1.0000 0.14100  0.07670  0.93080  Biso   1.000  H
  H28      1.0000 0.21000  0.08280  0.82170  Biso   1.000  H
  H29      1.0000 0.22190  0.19090  0.82440  Biso   1.000  H
  H30      1.0000 0.19790  0.98390  0.84960  Biso   1.000  H
  H31      1.0000 0.44680  0.54230  0.81150  Biso   1.000  H
  H32      1.0000 0.45650  0.58690  0.77560  Biso   1.000  H
  H33      1.0000 0.51350  0.59540  0.81200  Biso   1.000  H
  H34      1.0000 0.42990  0.72510  0.84600  Biso   1.000  H
  H35      1.0000 0.50190  0.67630  0.84800  Biso   1.000  H
  H36      1.0000 0.47920  0.70800  0.80830  Biso   1.000  H
  H37      1.0000 0.49600  0.68400  0.97070  Biso   1.000  H
  H38      1.0000 0.47370  0.61410  0.97970  Biso   1.000  H
  H39      1.0000 0.50600  0.63290  0.93840  Biso   1.000  H
  H40      1.0000 0.34980  0.73010  0.99180  Biso   1.000  H
  H41      1.0000 0.27070  0.68940  0.98510  Biso   1.000  H
  H42      1.0000 0.34530  0.66190  0.00850  Biso   1.000  H
  H43      1.0000 0.96330  0.44310  0.95230  Biso   1.000  H
  H44      1.0000 0.89990  0.39400  0.93650  Biso   1.000  H
  H45      1.0000 0.92530  0.39300  0.98040  Biso   1.000  H
  H46      1.0000 0.00460  0.24620  0.94800  Biso   1.000  H
  H47      1.0000 0.92460  0.28140  0.96110  Biso   1.000  H
  H48      1.0000 0.94520  0.27480  0.91680  Biso   1.000  H
  H49      1.0000 0.93230  0.27530  0.79420  Biso   1.000  H
  H50      1.0000 0.91960  0.33240  0.82220  Biso   1.000  H
  H51      1.0000 0.95220  0.34330  0.77980  Biso   1.000  H
  H52      1.0000 0.08210  0.24550  0.76670  Biso   1.000  H
  H53      1.0000 0.08140  0.31610  0.75410  Biso   1.000  H
  H54      1.0000 0.15790  0.28850  0.77600  Biso   1.000  H
  H55      1.0000 0.22540  0.42930  0.25710  Biso   1.000  H
  H56      1.0000 0.21400  0.43250  0.19050  Biso   1.000  H
  H57      1.0000 0.24400  0.61770  0.19440  Biso   1.000  H
  H58      1.0000 0.25780  0.61100  0.26090  Biso   1.000  H
  H59      1.0000 0.23170  0.56690  0.13190  Biso   1.000  H
  H60      1.0000 0.03600  0.65310  0.39010  Biso   1.000  H
  H61      1.0000 0.89810  0.63980  0.37860  Biso   1.000  H
  H62      1.0000 0.92650  0.45490  0.39140  Biso   1.000  H
  H63      1.0000 0.06510  0.47050  0.40300  Biso   1.000  H
  H64      1.0000 0.78190  0.57800  0.37980  Biso   1.000  H
  H65      1.0000 0.13320  0.39810  0.00920  Biso   1.000  H
  H66      1.0000 0.14350  0.40140  0.07560  Biso   1.000  H
  H67      1.0000 0.22730  0.57580  0.07090  Biso   1.000  H
  H68      1.0000 0.21960  0.57350  0.00470  Biso   1.000  H
  H69      1.0000 0.18170  0.44690  0.13320  Biso   1.000  H
  H70      1.0000 0.54150  0.37730  0.37440  Biso   1.000  H
  H71      1.0000 0.68020  0.38990  0.37770  Biso   1.000  H
  H72      1.0000 0.65860  0.57240  0.36000  Biso   1.000  H
  H73      1.0000 0.51680  0.56200  0.35750  Biso   1.000  H
  H74      1.0000 0.80040  0.45180  0.38040  Biso   1.000  H
  H75      1.0000 0.29370  0.21490  0.33350  Biso   1.000  H
  H76      1.0000 0.30820  0.10740  0.33750  Biso   1.000  H
  H77      1.0000 0.36520  0.12400  0.44900  Biso   1.000  H
  H78      1.0000 0.34480  0.22990  0.44600  Biso   1.000  H
  H79      1.0000 0.37850  0.02130  0.42030  Biso   1.000  H
  H80      1.0000 0.34710  0.81490  0.43520  Biso   1.000  H
  H81      1.0000 0.35900  0.92330  0.43080  Biso   1.000  H
  H82      1.0000 0.29000  0.91720  0.32170  Biso   1.000  H
  H83      1.0000 0.27810  0.80910  0.32440  Biso   1.000  H
  H84      1.0000 0.30210  0.01610  0.34960  Biso   1.000  H
  H85      1.0000 0.05320  0.45770  0.31150  Biso   1.000  H
  H86      1.0000 0.04350  0.41310  0.27560  Biso   1.000  H
  H87      1.0000 0.98650  0.40460  0.31200  Biso   1.000  H
  H88      1.0000 0.07010  0.27490  0.34600  Biso   1.000  H
  H89      1.0000 0.99810  0.32370  0.34800  Biso   1.000  H
  H90      1.0000 0.02080  0.29200  0.30830  Biso   1.000  H
  H91      1.0000 0.00400  0.31600  0.47070  Biso   1.000  H
  H92      1.0000 0.02630  0.38590  0.47970  Biso   1.000  H
  H93      1.0000 0.99400  0.36710  0.43840  Biso   1.000  H
  H94      1.0000 0.15020  0.26990  0.49180  Biso   1.000  H
  H95      1.0000 0.22930  0.31060  0.48510  Biso   1.000  H
  H96      1.0000 0.15470  0.33810  0.50850  Biso   1.000  H
  H97      1.0000 0.53670  0.55690  0.45230  Biso   1.000  H
  H98      1.0000 0.60010  0.60600  0.43650  Biso   1.000  H
  H99      1.0000 0.57470  0.60700  0.48040  Biso   1.000  H
  H100     1.0000 0.49540  0.75380  0.44800  Biso   1.000  H
  H101     1.0000 0.57540  0.71860  0.46110  Biso   1.000  H
  H102     1.0000 0.55480  0.72520  0.41680  Biso   1.000  H
  H103     1.0000 0.56770  0.72470  0.29420  Biso   1.000  H
  H104     1.0000 0.58040  0.66760  0.32220  Biso   1.000  H
  H105     1.0000 0.54780  0.65670  0.27980  Biso   1.000  H
  H106     1.0000 0.41790  0.75450  0.26670  Biso   1.000  H
  H107     1.0000 0.41860  0.68390  0.25410  Biso   1.000  H
  H108     1.0000 0.34210  0.71150  0.27600  Biso   1.000  H
  C1       1.0000 0.24970  0.48260  0.80780  Biso   1.000  C
  C2       1.0000 0.25810  0.48080  0.76550  Biso   1.000  C
  C3       1.0000 0.27070  0.53230  0.74450  Biso   1.000  C
  C4       1.0000 0.27810  0.53070  0.70460  Biso   1.000  C
  C5       1.0000 0.27350  0.47460  0.68640  Biso   1.000  C
  C6       1.0000 0.25990  0.42080  0.70690  Biso   1.000  C
  C7       1.0000 0.25200  0.42520  0.74660  Biso   1.000  C
  C8       1.0000 0.28170  0.47110  0.64360  Biso   1.000  C
  C9       1.0000 0.34410  0.42910  0.89460  Biso   1.000  C
  C10      1.0000 0.43490  0.43850  0.89280  Biso   1.000  C
  C11      1.0000 0.48620  0.38710  0.88910  Biso   1.000  C
  C12      1.0000 0.56850  0.39450  0.88400  Biso   1.000  C
  C13      1.0000 0.60170  0.45300  0.88680  Biso   1.000  C
  C14      1.0000 0.55150  0.50480  0.89160  Biso   1.000  C
  C15      1.0000 0.46840  0.49560  0.89670  Biso   1.000  C
  C16      1.0000 0.68800  0.45900  0.88130  Biso   1.000  C
  C17      1.0000 0.32560  0.51590  0.45820  Biso   1.000  C
  C18      1.0000 0.32550  0.51210  0.50000  Biso   1.000  C
  C19      1.0000 0.34800  0.56590  0.52170  Biso   1.000  C
  C20      1.0000 0.34160  0.56370  0.56110  Biso   1.000  C
  C21      1.0000 0.31400  0.51170  0.57950  Biso   1.000  C
  C22      1.0000 0.29150  0.46000  0.55830  Biso   1.000  C
  C23      1.0000 0.29690  0.46140  0.51890  Biso   1.000  C
  C24      1.0000 0.30530  0.51510  0.62150  Biso   1.000  C
  C25      1.0000 0.07360  0.53770  0.86790  Biso   1.000  C
  C26      1.0000 0.98420  0.53180  0.86590  Biso   1.000  C
  C27      1.0000 0.93540  0.58300  0.87190  Biso   1.000  C
  C28      1.0000 0.85300  0.57500  0.87410  Biso   1.000  C
  C29      1.0000 0.81600  0.51740  0.87120  Biso   1.000  C
  C30      1.0000 0.86530  0.46670  0.86370  Biso   1.000  C
  C31      1.0000 0.94990  0.47290  0.86170  Biso   1.000  C
  C32      1.0000 0.72950  0.51120  0.87800  Biso   1.000  C
  C33      1.0000 0.20570  0.70000  0.88740  Biso   1.000  C
  C34      1.0000 0.18470  0.76840  0.88910  Biso   1.000  C
  C35      1.0000 0.19330  0.80370  0.85710  Biso   1.000  C
  C36      1.0000 0.18260  0.86780  0.85940  Biso   1.000  C
  C37      1.0000 0.15870  0.89490  0.89360  Biso   1.000  C
  C38      1.0000 0.14980  0.85770  0.92550  Biso   1.000  C
  C39      1.0000 0.16200  0.79480  0.92390  Biso   1.000  C
  C40      1.0000 0.14820  0.96300  0.89840  Biso   1.000  C
  C41      1.0000 0.19530  0.26510  0.88200  Biso   1.000  C
  C42      1.0000 0.18670  0.19610  0.88040  Biso   1.000  C
  C43      1.0000 0.16410  0.16450  0.91190  Biso   1.000  C
  C44      1.0000 0.15790  0.09970  0.90930  Biso   1.000  C
  C45      1.0000 0.17590  0.06940  0.87580  Biso   1.000  C
  C46      1.0000 0.19850  0.10340  0.84490  Biso   1.000  C
  C47      1.0000 0.20530  0.16790  0.84600  Biso   1.000  C
  C48      1.0000 0.17620  0.00110  0.87220  Biso   1.000  C
  C49      1.0000 0.45920  0.58430  0.80350  Biso   1.000  C
  C50      1.0000 0.45760  0.69210  0.83230  Biso   1.000  C
  C51      1.0000 0.47340  0.64620  0.96010  Biso   1.000  C
  C52      1.0000 0.32970  0.68850  0.98730  Biso   1.000  C
  C53      1.0000 0.94430  0.40070  0.95440  Biso   1.000  C
  C54      1.0000 0.96820  0.28030  0.94230  Biso   1.000  C
  C55      1.0000 0.95330  0.31550  0.80170  Biso   1.000  C
  C56      1.0000 0.09900  0.28710  0.77370  Biso   1.000  C
  C57      1.0000 0.25030  0.51740  0.30780  Biso   1.000  C
  C58      1.0000 0.24190  0.51920  0.26550  Biso   1.000  C
  C59      1.0000 0.22930  0.46770  0.24450  Biso   1.000  C
  C60      1.0000 0.22190  0.46930  0.20460  Biso   1.000  C
  C61      1.0000 0.22650  0.52540  0.18640  Biso   1.000  C
  C62      1.0000 0.24010  0.57920  0.20690  Biso   1.000  C
  C63      1.0000 0.24800  0.57480  0.24660  Biso   1.000  C
  C64      1.0000 0.21830  0.52890  0.14360  Biso   1.000  C
  C65      1.0000 0.15590  0.57090  0.39460  Biso   1.000  C
  C66      1.0000 0.06510  0.56150  0.39280  Biso   1.000  C
  C67      1.0000 0.01380  0.61290  0.38910  Biso   1.000  C
  C68      1.0000 0.93150  0.60550  0.38400  Biso   1.000  C
  C69      1.0000 0.89830  0.54700  0.38680  Biso   1.000  C
  C70      1.0000 0.94850  0.49520  0.39160  Biso   1.000  C
  C71      1.0000 0.03160  0.50440  0.39670  Biso   1.000  C
  C72      1.0000 0.81200  0.54100  0.38130  Biso   1.000  C
  C73      1.0000 0.17440  0.48410  0.95820  Biso   1.000  C
  C74      1.0000 0.17450  0.48790  0.00000  Biso   1.000  C
  C75      1.0000 0.15200  0.43410  0.02170  Biso   1.000  C
  C76      1.0000 0.15840  0.43630  0.06110  Biso   1.000  C
  C77      1.0000 0.18600  0.48830  0.07950  Biso   1.000  C
  C78      1.0000 0.20850  0.54000  0.05830  Biso   1.000  C
  C79      1.0000 0.20310  0.53860  0.01890  Biso   1.000  C
  C80      1.0000 0.19470  0.48490  0.12150  Biso   1.000  C
  C81      1.0000 0.42640  0.46230  0.36790  Biso   1.000  C
  C82      1.0000 0.51580  0.46820  0.36590  Biso   1.000  C
  C83      1.0000 0.56460  0.41700  0.37190  Biso   1.000  C
  C84      1.0000 0.64700  0.42500  0.37410  Biso   1.000  C
  C85      1.0000 0.68400  0.48260  0.37120  Biso   1.000  C
  C86      1.0000 0.63470  0.53330  0.36370  Biso   1.000  C
  C87      1.0000 0.55010  0.52710  0.36170  Biso   1.000  C
  C88      1.0000 0.77050  0.48880  0.37800  Biso   1.000  C
  C89      1.0000 0.29430  0.30000  0.38740  Biso   1.000  C
  C90      1.0000 0.31530  0.23160  0.38910  Biso   1.000  C
  C91      1.0000 0.30670  0.19630  0.35710  Biso   1.000  C
  C92      1.0000 0.31740  0.13220  0.35940  Biso   1.000  C
  C93      1.0000 0.34130  0.10510  0.39360  Biso   1.000  C
  C94      1.0000 0.35020  0.14230  0.42550  Biso   1.000  C
  C95      1.0000 0.33800  0.20520  0.42390  Biso   1.000  C
  C96      1.0000 0.35180  0.03700  0.39840  Biso   1.000  C
  C97      1.0000 0.30470  0.73490  0.38200  Biso   1.000  C
  C98      1.0000 0.31330  0.80390  0.38040  Biso   1.000  C
  C99      1.0000 0.33590  0.83550  0.41190  Biso   1.000  C
  C100     1.0000 0.34210  0.90030  0.40930  Biso   1.000  C
  C101     1.0000 0.32410  0.93060  0.37580  Biso   1.000  C
  C102     1.0000 0.30150  0.89660  0.34490  Biso   1.000  C
  C103     1.0000 0.29470  0.83210  0.34600  Biso   1.000  C
  C104     1.0000 0.32380  0.99890  0.37220  Biso   1.000  C
  C105     1.0000 0.04080  0.41570  0.30350  Biso   1.000  C
  C106     1.0000 0.04240  0.30790  0.33230  Biso   1.000  C
  C107     1.0000 0.02660  0.35380  0.46010  Biso   1.000  C
  C108     1.0000 0.17030  0.31150  0.48730  Biso   1.000  C
  C109     1.0000 0.55570  0.59930  0.45440  Biso   1.000  C
  C110     1.0000 0.53180  0.71970  0.44230  Biso   1.000  C
  C111     1.0000 0.54670  0.68450  0.30170  Biso   1.000  C
  C112     1.0000 0.40100  0.71290  0.27370  Biso   1.000  C
  S1       1.0000 0.39052  0.63378  0.82295  Biso   1.000  S
  S2       1.0000 0.37133  0.65994  0.94476  Biso   1.000  S
  S3       1.0000 0.02294  0.35075  0.94388  Biso   1.000  S
  S4       1.0000 0.05448  0.30753  0.81825  Biso   1.000  S
  S5       1.0000 0.10948  0.36622  0.32295  Biso   1.000  S
  S6       1.0000 0.12867  0.34006  0.44476  Biso   1.000  S
  S7       1.0000 0.47706  0.64925  0.44388  Biso   1.000  S
  S8       1.0000 0.44552  0.69247  0.31825  Biso   1.000  S
  O1       1.0000 0.25000  0.53560  0.82283  Biso   1.000  O
  O2       1.0000 0.24190  0.43250  0.82474  Biso   1.000  O
  O3       1.0000 0.31450  0.37630  0.89444  Biso   1.000  O
  O4       1.0000 0.30020  0.47860  0.89533  Biso   1.000  O
  O5       1.0000 0.33210  0.56740  0.44189  Biso   1.000  O
  O6       1.0000 0.31920  0.46490  0.44044  Biso   1.000  O
  O7       1.0000 0.11860  0.49180  0.86844  Biso   1.000  O
  O8       1.0000 0.10260  0.59220  0.86992  Biso   1.000  O
  O9       1.0000 0.20070  0.66950  0.91764  Biso   1.000  O
  O10      1.0000 0.22950  0.67770  0.85630  Biso   1.000  O
  O11      1.0000 0.18060  0.29350  0.91326  Biso   1.000  O
  O12      1.0000 0.21240  0.29580  0.85186  Biso   1.000  O
  O13      1.0000 0.37150  0.60700  0.86212  Biso   1.000  O
  O14      1.0000 0.33880  0.59470  0.93845  Biso   1.000  O
  O15      1.0000 0.04370  0.36660  0.90290  Biso   1.000  O
  O16      1.0000 0.08430  0.37190  0.82642  Biso   1.000  O
  O17      1.0000 0.25000  0.46440  0.32283  Biso   1.000  O
  O18      1.0000 0.25810  0.56750  0.32474  Biso   1.000  O
  O19      1.0000 0.18550  0.62370  0.39444  Biso   1.000  O
  O20      1.0000 0.19980  0.52140  0.39533  Biso   1.000  O
  O21      1.0000 0.16790  0.43260  0.94189  Biso   1.000  O
  O22      1.0000 0.18080  0.53510  0.94044  Biso   1.000  O
  O23      1.0000 0.38140  0.50820  0.36844  Biso   1.000  O
  O24      1.0000 0.39740  0.40780  0.36992  Biso   1.000  O
  O25      1.0000 0.29930  0.33050  0.41764  Biso   1.000  O
  O26      1.0000 0.27050  0.32230  0.35630  Biso   1.000  O
  O27      1.0000 0.31940  0.70650  0.41326  Biso   1.000  O
  O28      1.0000 0.28760  0.70420  0.35186  Biso   1.000  O
  O29      1.0000 0.12850  0.39300  0.36212  Biso   1.000  O
  O30      1.0000 0.16120  0.40530  0.43845  Biso   1.000  O
  O31      1.0000 0.45630  0.63340  0.40290  Biso   1.000  O
  O32      1.0000 0.41570  0.62810  0.32642  Biso   1.000  O
  Eu5      1.0000 0.75717  0.07432  0.61403  Biso   1.000  Eu
  Eu6      1.0000 0.82439  0.89480  0.62075  Biso   1.000  Eu
  Eu7      1.0000 0.74283  0.92568  0.11403  Biso   1.000  Eu
  Eu8      1.0000 0.67561  0.10520  0.12075  Biso   1.000  Eu
  H109     1.0000 0.72540  0.07070  0.74290  Biso   1.000  H
  H110     1.0000 0.71400  0.06750  0.80950  Biso   1.000  H
  H111     1.0000 0.74400  0.88230  0.80560  Biso   1.000  H
  H112     1.0000 0.75780  0.88900  0.73910  Biso   1.000  H
  H113     1.0000 0.73170  0.93310  0.86810  Biso   1.000  H
  H114     1.0000 0.53600  0.84690  0.60990  Biso   1.000  H
  H115     1.0000 0.39810  0.86020  0.62140  Biso   1.000  H
  H116     1.0000 0.42650  0.04510  0.60860  Biso   1.000  H
  H117     1.0000 0.56510  0.02950  0.59700  Biso   1.000  H
  H118     1.0000 0.28190  0.92200  0.62020  Biso   1.000  H
  H119     1.0000 0.63320  0.10190  0.99080  Biso   1.000  H
  H120     1.0000 0.64350  0.09860  0.92440  Biso   1.000  H
  H121     1.0000 0.72730  0.92420  0.92910  Biso   1.000  H
  H122     1.0000 0.71960  0.92650  0.99530  Biso   1.000  H
  H123     1.0000 0.68170  0.05310  0.86680  Biso   1.000  H
  H124     1.0000 0.04150  0.12270  0.62560  Biso   1.000  H
  H125     1.0000 0.18020  0.11010  0.62230  Biso   1.000  H
  H126     1.0000 0.15860  0.92760  0.64000  Biso   1.000  H
  H127     1.0000 0.01680  0.93800  0.64250  Biso   1.000  H
  H128     1.0000 0.30040  0.04820  0.61960  Biso   1.000  H
  H129     1.0000 0.79370  0.28510  0.66650  Biso   1.000  H
  H130     1.0000 0.80820  0.39260  0.66250  Biso   1.000  H
  H131     1.0000 0.86520  0.37600  0.55100  Biso   1.000  H
  H132     1.0000 0.84480  0.27010  0.55400  Biso   1.000  H
  H133     1.0000 0.87850  0.47870  0.57970  Biso   1.000  H
  H134     1.0000 0.84710  0.68510  0.56480  Biso   1.000  H
  H135     1.0000 0.85900  0.57670  0.56920  Biso   1.000  H
  H136     1.0000 0.79000  0.58280  0.67830  Biso   1.000  H
  H137     1.0000 0.77810  0.69090  0.67560  Biso   1.000  H
  H138     1.0000 0.80210  0.48390  0.65040  Biso   1.000  H
  H139     1.0000 0.55320  0.04230  0.68850  Biso   1.000  H
  H140     1.0000 0.54350  0.08690  0.72440  Biso   1.000  H
  H141     1.0000 0.48650  0.09540  0.68800  Biso   1.000  H
  H142     1.0000 0.57010  0.22510  0.65400  Biso   1.000  H
  H143     1.0000 0.49810  0.17630  0.65200  Biso   1.000  H
  H144     1.0000 0.52080  0.20800  0.69170  Biso   1.000  H
  H145     1.0000 0.50400  0.18400  0.52930  Biso   1.000  H
  H146     1.0000 0.52630  0.11410  0.52030  Biso   1.000  H
  H147     1.0000 0.49400  0.13290  0.56160  Biso   1.000  H
  H148     1.0000 0.65020  0.23010  0.50820  Biso   1.000  H
  H149     1.0000 0.72930  0.18940  0.51490  Biso   1.000  H
  H150     1.0000 0.65470  0.16190  0.49150  Biso   1.000  H
  H151     1.0000 0.03670  0.94310  0.54770  Biso   1.000  H
  H152     1.0000 0.10010  0.89400  0.56350  Biso   1.000  H
  H153     1.0000 0.07470  0.89300  0.51960  Biso   1.000  H
  H154     1.0000 0.99540  0.74620  0.55200  Biso   1.000  H
  H155     1.0000 0.07540  0.78140  0.53890  Biso   1.000  H
  H156     1.0000 0.05480  0.77480  0.58320  Biso   1.000  H
  H157     1.0000 0.06770  0.77530  0.70580  Biso   1.000  H
  H158     1.0000 0.08040  0.83240  0.67780  Biso   1.000  H
  H159     1.0000 0.04780  0.84330  0.72020  Biso   1.000  H
  H160     1.0000 0.91790  0.74550  0.73330  Biso   1.000  H
  H161     1.0000 0.91860  0.81610  0.74590  Biso   1.000  H
  H162     1.0000 0.84210  0.78850  0.72400  Biso   1.000  H
  H163     1.0000 0.77460  0.92930  0.24290  Biso   1.000  H
  H164     1.0000 0.78600  0.93250  0.30950  Biso   1.000  H
  H165     1.0000 0.75600  0.11770  0.30560  Biso   1.000  H
  H166     1.0000 0.74220  0.11100  0.23910  Biso   1.000  H
  H167     1.0000 0.76830  0.06690  0.36810  Biso   1.000  H
  H168     1.0000 0.96400  0.15310  0.10990  Biso   1.000  H
  H169     1.0000 0.10190  0.13980  0.12140  Biso   1.000  H
  H170     1.0000 0.07350  0.95490  0.10860  Biso   1.000  H
  H171     1.0000 0.93490  0.97050  0.09700  Biso   1.000  H
  H172     1.0000 0.21810  0.07800  0.12020  Biso   1.000  H
  H173     1.0000 0.86680  0.89810  0.49080  Biso   1.000  H
  H174     1.0000 0.85650  0.90140  0.42440  Biso   1.000  H
  H175     1.0000 0.77270  0.07580  0.42910  Biso   1.000  H
  H176     1.0000 0.78040  0.07350  0.49530  Biso   1.000  H
  H177     1.0000 0.81830  0.94690  0.36680  Biso   1.000  H
  H178     1.0000 0.45850  0.87730  0.12560  Biso   1.000  H
  H179     1.0000 0.31980  0.88990  0.12230  Biso   1.000  H
  H180     1.0000 0.34140  0.07240  0.14000  Biso   1.000  H
  H181     1.0000 0.48320  0.06200  0.14250  Biso   1.000  H
  H182     1.0000 0.19960  0.95180  0.11960  Biso   1.000  H
  H183     1.0000 0.70630  0.71490  0.16650  Biso   1.000  H
  H184     1.0000 0.69180  0.60740  0.16250  Biso   1.000  H
  H185     1.0000 0.63480  0.62400  0.05100  Biso   1.000  H
  H186     1.0000 0.65520  0.72990  0.05400  Biso   1.000  H
  H187     1.0000 0.62150  0.52130  0.07970  Biso   1.000  H
  H188     1.0000 0.65290  0.31490  0.06480  Biso   1.000  H
  H189     1.0000 0.64100  0.42330  0.06920  Biso   1.000  H
  H190     1.0000 0.71000  0.41720  0.17830  Biso   1.000  H
  H191     1.0000 0.72190  0.30910  0.17560  Biso   1.000  H
  H192     1.0000 0.69790  0.51610  0.15040  Biso   1.000  H
  H193     1.0000 0.94680  0.95770  0.18850  Biso   1.000  H
  H194     1.0000 0.95650  0.91310  0.22440  Biso   1.000  H
  H195     1.0000 0.01350  0.90460  0.18800  Biso   1.000  H
  H196     1.0000 0.92990  0.77490  0.15400  Biso   1.000  H
  H197     1.0000 0.00190  0.82370  0.15200  Biso   1.000  H
  H198     1.0000 0.97920  0.79200  0.19170  Biso   1.000  H
  H199     1.0000 0.99600  0.81600  0.02930  Biso   1.000  H
  H200     1.0000 0.97370  0.88590  0.02030  Biso   1.000  H
  H201     1.0000 0.00600  0.86710  0.06160  Biso   1.000  H
  H202     1.0000 0.84980  0.76990  0.00820  Biso   1.000  H
  H203     1.0000 0.77070  0.81060  0.01490  Biso   1.000  H
  H204     1.0000 0.84530  0.83810  0.99150  Biso   1.000  H
  H205     1.0000 0.46330  0.05690  0.04770  Biso   1.000  H
  H206     1.0000 0.39990  0.10600  0.06350  Biso   1.000  H
  H207     1.0000 0.42530  0.10700  0.01960  Biso   1.000  H
  H208     1.0000 0.50460  0.25380  0.05200  Biso   1.000  H
  H209     1.0000 0.42460  0.21860  0.03890  Biso   1.000  H
  H210     1.0000 0.44520  0.22520  0.08320  Biso   1.000  H
  H211     1.0000 0.43230  0.22470  0.20580  Biso   1.000  H
  H212     1.0000 0.41960  0.16760  0.17780  Biso   1.000  H
  H213     1.0000 0.45220  0.15670  0.22020  Biso   1.000  H
  H214     1.0000 0.58210  0.25450  0.23330  Biso   1.000  H
  H215     1.0000 0.58140  0.18390  0.24590  Biso   1.000  H
  H216     1.0000 0.65790  0.21150  0.22400  Biso   1.000  H
  C113     1.0000 0.75030  0.98260  0.69220  Biso   1.000  C
  C114     1.0000 0.74190  0.98080  0.73450  Biso   1.000  C
  C115     1.0000 0.72930  0.03230  0.75550  Biso   1.000  C
  C116     1.0000 0.72190  0.03070  0.79540  Biso   1.000  C
  C117     1.0000 0.72650  0.97460  0.81360  Biso   1.000  C
  C118     1.0000 0.74010  0.92080  0.79310  Biso   1.000  C
  C119     1.0000 0.74800  0.92520  0.75340  Biso   1.000  C
  C120     1.0000 0.71830  0.97110  0.85640  Biso   1.000  C
  C121     1.0000 0.65590  0.92910  0.60540  Biso   1.000  C
  C122     1.0000 0.56510  0.93850  0.60720  Biso   1.000  C
  C123     1.0000 0.51380  0.88710  0.61090  Biso   1.000  C
  C124     1.0000 0.43150  0.89450  0.61600  Biso   1.000  C
  C125     1.0000 0.39830  0.95300  0.61320  Biso   1.000  C
  C126     1.0000 0.44850  0.00480  0.60840  Biso   1.000  C
  C127     1.0000 0.53160  0.99560  0.60330  Biso   1.000  C
  C128     1.0000 0.31200  0.95900  0.61870  Biso   1.000  C
  C129     1.0000 0.67440  0.01590  0.04180  Biso   1.000  C
  C130     1.0000 0.67450  0.01210  0.00000  Biso   1.000  C
  C131     1.0000 0.65200  0.06590  0.97830  Biso   1.000  C
  C132     1.0000 0.65840  0.06370  0.93890  Biso   1.000  C
  C133     1.0000 0.68600  0.01170  0.92050  Biso   1.000  C
  C134     1.0000 0.70850  0.96000  0.94170  Biso   1.000  C
  C135     1.0000 0.70310  0.96140  0.98110  Biso   1.000  C
  C136     1.0000 0.69470  0.01510  0.87850  Biso   1.000  C
  C137     1.0000 0.92640  0.03770  0.63210  Biso   1.000  C
  C138     1.0000 0.01580  0.03180  0.63410  Biso   1.000  C
  C139     1.0000 0.06460  0.08300  0.62810  Biso   1.000  C
  C140     1.0000 0.14700  0.07500  0.62590  Biso   1.000  C
  C141     1.0000 0.18400  0.01740  0.62880  Biso   1.000  C
  C142     1.0000 0.13470  0.96670  0.63630  Biso   1.000  C
  C143     1.0000 0.05010  0.97290  0.63830  Biso   1.000  C
  C144     1.0000 0.27050  0.01120  0.62200  Biso   1.000  C
  C145     1.0000 0.79430  0.20000  0.61260  Biso   1.000  C
  C146     1.0000 0.81530  0.26840  0.61090  Biso   1.000  C
  C147     1.0000 0.80670  0.30370  0.64290  Biso   1.000  C
  C148     1.0000 0.81740  0.36780  0.64060  Biso   1.000  C
  C149     1.0000 0.84130  0.39490  0.60640  Biso   1.000  C
  C150     1.0000 0.85020  0.35770  0.57450  Biso   1.000  C
  C151     1.0000 0.83800  0.29480  0.57610  Biso   1.000  C
  C152     1.0000 0.85180  0.46300  0.60160  Biso   1.000  C
  C153     1.0000 0.80470  0.76510  0.61800  Biso   1.000  C
  C154     1.0000 0.81330  0.69610  0.61960  Biso   1.000  C
  C155     1.0000 0.83590  0.66450  0.58810  Biso   1.000  C
  C156     1.0000 0.84210  0.59970  0.59070  Biso   1.000  C
  C157     1.0000 0.82410  0.56940  0.62420  Biso   1.000  C
  C158     1.0000 0.80150  0.60340  0.65510  Biso   1.000  C
  C159     1.0000 0.79470  0.66790  0.65400  Biso   1.000  C
  C160     1.0000 0.82380  0.50110  0.62780  Biso   1.000  C
  C161     1.0000 0.54080  0.08430  0.69650  Biso   1.000  C
  C162     1.0000 0.54240  0.19210  0.66770  Biso   1.000  C
  C163     1.0000 0.52660  0.14620  0.53990  Biso   1.000  C
  C164     1.0000 0.67030  0.18850  0.51270  Biso   1.000  C
  C165     1.0000 0.05570  0.90070  0.54560  Biso   1.000  C
  C166     1.0000 0.03180  0.78030  0.55770  Biso   1.000  C
  C167     1.0000 0.04670  0.81550  0.69830  Biso   1.000  C
  C168     1.0000 0.90100  0.78710  0.72630  Biso   1.000  C
  C169     1.0000 0.74970  0.01740  0.19220  Biso   1.000  C
  C170     1.0000 0.75810  0.01920  0.23450  Biso   1.000  C
  C171     1.0000 0.77070  0.96770  0.25550  Biso   1.000  C
  C172     1.0000 0.77810  0.96930  0.29540  Biso   1.000  C
  C173     1.0000 0.77350  0.02540  0.31360  Biso   1.000  C
  C174     1.0000 0.75990  0.07920  0.29310  Biso   1.000  C
  C175     1.0000 0.75200  0.07480  0.25340  Biso   1.000  C
  C176     1.0000 0.78170  0.02890  0.35640  Biso   1.000  C
  C177     1.0000 0.84410  0.07090  0.10540  Biso   1.000  C
  C178     1.0000 0.93490  0.06150  0.10720  Biso   1.000  C
  C179     1.0000 0.98620  0.11290  0.11090  Biso   1.000  C
  C180     1.0000 0.06850  0.10550  0.11600  Biso   1.000  C
  C181     1.0000 0.10170  0.04700  0.11320  Biso   1.000  C
  C182     1.0000 0.05150  0.99520  0.10840  Biso   1.000  C
  C183     1.0000 0.96840  0.00440  0.10330  Biso   1.000  C
  C184     1.0000 0.18800  0.04100  0.11870  Biso   1.000  C
  C185     1.0000 0.82560  0.98410  0.54180  Biso   1.000  C
  C186     1.0000 0.82550  0.98790  0.50000  Biso   1.000  C
  C187     1.0000 0.84800  0.93410  0.47830  Biso   1.000  C
  C188     1.0000 0.84160  0.93630  0.43890  Biso   1.000  C
  C189     1.0000 0.81400  0.98830  0.42050  Biso   1.000  C
  C190     1.0000 0.79150  0.04000  0.44170  Biso   1.000  C
  C191     1.0000 0.79690  0.03860  0.48110  Biso   1.000  C
  C192     1.0000 0.80530  0.98490  0.37850  Biso   1.000  C
  C193     1.0000 0.57360  0.96230  0.13210  Biso   1.000  C
  C194     1.0000 0.48420  0.96820  0.13410  Biso   1.000  C
  C195     1.0000 0.43540  0.91700  0.12810  Biso   1.000  C
  C196     1.0000 0.35300  0.92500  0.12590  Biso   1.000  C
  C197     1.0000 0.31600  0.98260  0.12880  Biso   1.000  C
  C198     1.0000 0.36530  0.03330  0.13630  Biso   1.000  C
  C199     1.0000 0.44990  0.02710  0.13830  Biso   1.000  C
  C200     1.0000 0.22950  0.98880  0.12200  Biso   1.000  C
  C201     1.0000 0.70570  0.80000  0.11260  Biso   1.000  C
  C202     1.0000 0.68470  0.73160  0.11090  Biso   1.000  C
  C203     1.0000 0.69330  0.69630  0.14290  Biso   1.000  C
  C204     1.0000 0.68260  0.63220  0.14060  Biso   1.000  C
  C205     1.0000 0.65870  0.60510  0.10640  Biso   1.000  C
  C206     1.0000 0.64980  0.64230  0.07450  Biso   1.000  C
  C207     1.0000 0.66200  0.70520  0.07610  Biso   1.000  C
  C208     1.0000 0.64820  0.53700  0.10160  Biso   1.000  C
  C209     1.0000 0.69530  0.23490  0.11800  Biso   1.000  C
  C210     1.0000 0.68670  0.30390  0.11960  Biso   1.000  C
  C211     1.0000 0.66410  0.33550  0.08810  Biso   1.000  C
  C212     1.0000 0.65790  0.40030  0.09070  Biso   1.000  C
  C213     1.0000 0.67590  0.43060  0.12420  Biso   1.000  C
  C214     1.0000 0.69850  0.39660  0.15510  Biso   1.000  C
  C215     1.0000 0.70530  0.33210  0.15400  Biso   1.000  C
  C216     1.0000 0.67620  0.49890  0.12780  Biso   1.000  C
  C217     1.0000 0.95920  0.91570  0.19650  Biso   1.000  C
  C218     1.0000 0.95760  0.80790  0.16770  Biso   1.000  C
  C219     1.0000 0.97340  0.85380  0.03990  Biso   1.000  C
  C220     1.0000 0.82970  0.81150  0.01270  Biso   1.000  C
  C221     1.0000 0.44430  0.09930  0.04560  Biso   1.000  C
  C222     1.0000 0.46820  0.21970  0.05770  Biso   1.000  C
  C223     1.0000 0.45330  0.18450  0.19830  Biso   1.000  C
  C224     1.0000 0.59900  0.21290  0.22630  Biso   1.000  C
  S9       1.0000 0.60948  0.13378  0.67705  Biso   1.000  S
  S10      1.0000 0.62867  0.15994  0.55524  Biso   1.000  S
  S11      1.0000 0.97706  0.85075  0.55612  Biso   1.000  S
  S12      1.0000 0.94552  0.80753  0.68175  Biso   1.000  S
  S13      1.0000 0.89052  0.86622  0.17705  Biso   1.000  S
  S14      1.0000 0.87133  0.84006  0.05524  Biso   1.000  S
  S15      1.0000 0.52294  0.14925  0.05612  Biso   1.000  S
  S16      1.0000 0.55448  0.19247  0.18175  Biso   1.000  S
  O33      1.0000 0.75000  0.03560  0.67717  Biso   1.000  O
  O34      1.0000 0.75810  0.93250  0.67526  Biso   1.000  O
  O35      1.0000 0.68550  0.87630  0.60556  Biso   1.000  O
  O36      1.0000 0.69980  0.97860  0.60467  Biso   1.000  O
  O37      1.0000 0.66790  0.06740  0.05811  Biso   1.000  O
  O38      1.0000 0.68080  0.96490  0.05956  Biso   1.000  O
  O39      1.0000 0.88140  0.99180  0.63156  Biso   1.000  O
  O40      1.0000 0.89740  0.09220  0.63008  Biso   1.000  O
  O41      1.0000 0.79930  0.16950  0.58236  Biso   1.000  O
  O42      1.0000 0.77050  0.17770  0.64370  Biso   1.000  O
  O43      1.0000 0.81940  0.79350  0.58674  Biso   1.000  O
  O44      1.0000 0.78760  0.79580  0.64814  Biso   1.000  O
  O45      1.0000 0.62850  0.10700  0.63788  Biso   1.000  O
  O46      1.0000 0.66120  0.09470  0.56155  Biso   1.000  O
  O47      1.0000 0.95630  0.86660  0.59710  Biso   1.000  O
  O48      1.0000 0.91570  0.87190  0.67358  Biso   1.000  O
  O49      1.0000 0.75000  0.96440  0.17717  Biso   1.000  O
  O50      1.0000 0.74190  0.06750  0.17526  Biso   1.000  O
  O51      1.0000 0.81450  0.12370  0.10556  Biso   1.000  O
  O52      1.0000 0.80020  0.02140  0.10467  Biso   1.000  O
  O53      1.0000 0.83210  0.93260  0.55811  Biso   1.000  O
  O54      1.0000 0.81920  0.03510  0.55956  Biso   1.000  O
  O55      1.0000 0.61860  0.00820  0.13156  Biso   1.000  O
  O56      1.0000 0.60260  0.90780  0.13008  Biso   1.000  O
  O57      1.0000 0.70070  0.83050  0.08236  Biso   1.000  O
  O58      1.0000 0.72950  0.82230  0.14370  Biso   1.000  O
  O59      1.0000 0.68060  0.20650  0.08674  Biso   1.000  O
  O60      1.0000 0.71240  0.20420  0.14814  Biso   1.000  O
  O61      1.0000 0.87150  0.89300  0.13788  Biso   1.000  O
  O62      1.0000 0.83880  0.90530  0.06155  Biso   1.000  O
  O63      1.0000 0.54370  0.13340  0.09710  Biso   1.000  O
  O64      1.0000 0.58430  0.12810  0.17358  Biso   1.000  O
