data_image0
_cell_length_a       5.86528
_cell_length_b       12.8535
_cell_length_c       20.98
_cell_angle_alpha    92.3172
_cell_angle_beta     90
_cell_angle_gamma    103.189

_symmetry_space_group_name_H-M    P 1
_symmetry_int_tables_number       1

loop_
  _symmetry_equiv_pos_as_xyz
  'x, y, z'

loop_
  _atom_site_label
  _atom_site_occupancy
  _atom_site_fract_x
  _atom_site_fract_y
  _atom_site_fract_z
  _atom_site_thermal_displace_type
  _atom_site_B_iso_or_equiv
  _atom_site_type_symbol
  Zn1      1.0000 0.71755  0.00000  0.75000  Biso   1.000  Zn
  Zn2      1.0000 0.28245  0.00000  0.25000  Biso   1.000  Zn
  H1       1.0000 0.64600  0.89800  0.61860  Biso   1.000  H
  H2       1.0000 0.78750  0.78080  0.55410  Biso   1.000  H
  H3       1.0000 0.26340  0.76920  0.69110  Biso   1.000  H
  H4       1.0000 0.09820  0.88200  0.75370  Biso   1.000  H
  H5       1.0000 0.07160  0.67660  0.52930  Biso   1.000  H
  H6       1.0000 0.35640  0.64420  0.62820  Biso   1.000  H
  H7       1.0000 0.19750  0.57080  0.46210  Biso   1.000  H
  H8       1.0000 0.63300  0.53640  0.60460  Biso   1.000  H
  H9       1.0000 0.63130  0.23740  0.58380  Biso   1.000  H
  H10      1.0000 0.38790  0.17800  0.61270  Biso   1.000  H
  H11      1.0000 0.17480  0.01300  0.56070  Biso   1.000  H
  H12      1.0000 0.85370  0.12260  0.51660  Biso   1.000  H
  H13      1.0000 0.74800  0.10200  0.88140  Biso   1.000  H
  H14      1.0000 0.00670  0.21920  0.94590  Biso   1.000  H
  H15      1.0000 0.49420  0.23080  0.80890  Biso   1.000  H
  H16      1.0000 0.21620  0.11800  0.74630  Biso   1.000  H
  H17      1.0000 0.39500  0.32340  0.97070  Biso   1.000  H
  H18      1.0000 0.71220  0.35580  0.87180  Biso   1.000  H
  H19      1.0000 0.62670  0.42920  0.03790  Biso   1.000  H
  H20      1.0000 0.09660  0.46360  0.89540  Biso   1.000  H
  H21      1.0000 0.39390  0.76260  0.91620  Biso   1.000  H
  H22      1.0000 0.20990  0.82200  0.88730  Biso   1.000  H
  H23      1.0000 0.16180  0.98700  0.93930  Biso   1.000  H
  H24      1.0000 0.73110  0.87740  0.98340  Biso   1.000  H
  H25      1.0000 0.35400  0.10200  0.38140  Biso   1.000  H
  H26      1.0000 0.21250  0.21920  0.44590  Biso   1.000  H
  H27      1.0000 0.73660  0.23080  0.30890  Biso   1.000  H
  H28      1.0000 0.90180  0.11800  0.24630  Biso   1.000  H
  H29      1.0000 0.92840  0.32340  0.47070  Biso   1.000  H
  H30      1.0000 0.64360  0.35580  0.37180  Biso   1.000  H
  H31      1.0000 0.80250  0.42920  0.53790  Biso   1.000  H
  H32      1.0000 0.36700  0.46360  0.39540  Biso   1.000  H
  H33      1.0000 0.36870  0.76260  0.41620  Biso   1.000  H
  H34      1.0000 0.61210  0.82200  0.38730  Biso   1.000  H
  H35      1.0000 0.82520  0.98700  0.43930  Biso   1.000  H
  H36      1.0000 0.14630  0.87740  0.48340  Biso   1.000  H
  H37      1.0000 0.25200  0.89800  0.11860  Biso   1.000  H
  H38      1.0000 0.99330  0.78080  0.05410  Biso   1.000  H
  H39      1.0000 0.50580  0.76920  0.19110  Biso   1.000  H
  H40      1.0000 0.78380  0.88200  0.25370  Biso   1.000  H
  H41      1.0000 0.60500  0.67660  0.02930  Biso   1.000  H
  H42      1.0000 0.28780  0.64420  0.12820  Biso   1.000  H
  H43      1.0000 0.37330  0.57080  0.96210  Biso   1.000  H
  H44      1.0000 0.90340  0.53640  0.10460  Biso   1.000  H
  H45      1.0000 0.60610  0.23740  0.08380  Biso   1.000  H
  H46      1.0000 0.79010  0.17800  0.11270  Biso   1.000  H
  H47      1.0000 0.83820  0.01300  0.06070  Biso   1.000  H
  H48      1.0000 0.26890  0.12260  0.01660  Biso   1.000  H
  C1       1.0000 0.77024  0.87028  0.63357  Biso   1.000  C
  C2       1.0000 0.85543  0.80086  0.59470  Biso   1.000  C
  C3       1.0000 0.04184  0.75948  0.61430  Biso   1.000  C
  C4       1.0000 0.13498  0.79336  0.67560  Biso   1.000  C
  C5       1.0000 0.03672  0.86164  0.71250  Biso   1.000  C
  C6       1.0000 0.13345  0.68750  0.57100  Biso   1.000  C
  C7       1.0000 0.29876  0.63572  0.58610  Biso   1.000  C
  C8       1.0000 0.39718  0.56596  0.54110  Biso   1.000  C
  C9       1.0000 0.31987  0.54234  0.47760  Biso   1.000  C
  C10      1.0000 0.57859  0.52198  0.56220  Biso   1.000  C
  C11      1.0000 0.67134  0.13528  0.65490  Biso   1.000  C
  C12      1.0000 0.54261  0.16922  0.59920  Biso   1.000  C
  C13      1.0000 0.30660  0.00800  0.53630  Biso   1.000  C
  C14      1.0000 0.51795  0.08250  0.54708  Biso   1.000  C
  C15      1.0000 0.71018  0.07296  0.51000  Biso   1.000  C
  C16      1.0000 0.89996  0.12972  0.86643  Biso   1.000  C
  C17      1.0000 0.05457  0.19914  0.90530  Biso   1.000  C
  C18      1.0000 0.28236  0.24052  0.88570  Biso   1.000  C
  C19      1.0000 0.34162  0.20664  0.82440  Biso   1.000  C
  C20      1.0000 0.17508  0.13836  0.78750  Biso   1.000  C
  C21      1.0000 0.44595  0.31250  0.92900  Biso   1.000  C
  C22      1.0000 0.66304  0.36428  0.91390  Biso   1.000  C
  C23      1.0000 0.83122  0.43404  0.95890  Biso   1.000  C
  C24      1.0000 0.77753  0.45766  0.02240  Biso   1.000  C
  C25      1.0000 0.05661  0.47802  0.93780  Biso   1.000  C
  C26      1.0000 0.53606  0.86472  0.84510  Biso   1.000  C
  C27      1.0000 0.37339  0.83078  0.90080  Biso   1.000  C
  C28      1.0000 0.29860  0.99200  0.96370  Biso   1.000  C
  C29      1.0000 0.43545  0.91750  0.95292  Biso   1.000  C
  C30      1.0000 0.63722  0.92704  0.99000  Biso   1.000  C
  C31      1.0000 0.22976  0.12972  0.36643  Biso   1.000  C
  C32      1.0000 0.14457  0.19914  0.40530  Biso   1.000  C
  C33      1.0000 0.95816  0.24052  0.38570  Biso   1.000  C
  C34      1.0000 0.86502  0.20664  0.32440  Biso   1.000  C
  C35      1.0000 0.96328  0.13836  0.28750  Biso   1.000  C
  C36      1.0000 0.86655  0.31250  0.42900  Biso   1.000  C
  C37      1.0000 0.70124  0.36428  0.41390  Biso   1.000  C
  C38      1.0000 0.60282  0.43404  0.45890  Biso   1.000  C
  C39      1.0000 0.68013  0.45766  0.52240  Biso   1.000  C
  C40      1.0000 0.42141  0.47802  0.43780  Biso   1.000  C
  C41      1.0000 0.32866  0.86472  0.34510  Biso   1.000  C
  C42      1.0000 0.45739  0.83078  0.40080  Biso   1.000  C
  C43      1.0000 0.69340  0.99200  0.46370  Biso   1.000  C
  C44      1.0000 0.48205  0.91750  0.45292  Biso   1.000  C
  C45      1.0000 0.28982  0.92704  0.49000  Biso   1.000  C
  C46      1.0000 0.10004  0.87028  0.13357  Biso   1.000  C
  C47      1.0000 0.94543  0.80086  0.09470  Biso   1.000  C
  C48      1.0000 0.71764  0.75948  0.11430  Biso   1.000  C
  C49      1.0000 0.65838  0.79336  0.17560  Biso   1.000  C
  C50      1.0000 0.82492  0.86164  0.21250  Biso   1.000  C
  C51      1.0000 0.55405  0.68750  0.07100  Biso   1.000  C
  C52      1.0000 0.33696  0.63572  0.08610  Biso   1.000  C
  C53      1.0000 0.16878  0.56596  0.04110  Biso   1.000  C
  C54      1.0000 0.22247  0.54234  0.97760  Biso   1.000  C
  C55      1.0000 0.94339  0.52198  0.06220  Biso   1.000  C
  C56      1.0000 0.46394  0.13528  0.15490  Biso   1.000  C
  C57      1.0000 0.62661  0.16922  0.09920  Biso   1.000  C
  C58      1.0000 0.70140  0.00800  0.03630  Biso   1.000  C
  C59      1.0000 0.56455  0.08250  0.04708  Biso   1.000  C
  C60      1.0000 0.36278  0.07296  0.01000  Biso   1.000  C
  N1       1.0000 0.85681  0.90082  0.69264  Biso   1.000  N
  N2       1.0000 0.95599  0.09918  0.80736  Biso   1.000  N
  N3       1.0000 0.14319  0.09918  0.30736  Biso   1.000  N
  N4       1.0000 0.04401  0.90082  0.19264  Biso   1.000  N
  O1       1.0000 0.54655  0.06830  0.69141  Biso   1.000  O
  O2       1.0000 0.88641  0.16582  0.66050  Biso   1.000  O
  O3       1.0000 0.47825  0.93170  0.80859  Biso   1.000  O
  O4       1.0000 0.72059  0.83418  0.83950  Biso   1.000  O
  O5       1.0000 0.45345  0.93170  0.30859  Biso   1.000  O
  O6       1.0000 0.11359  0.83418  0.33950  Biso   1.000  O
  O7       1.0000 0.52175  0.06830  0.19141  Biso   1.000  O
  O8       1.0000 0.27941  0.16582  0.16050  Biso   1.000  O
