data_image0
_cell_length_a       25.801
_cell_length_b       16.7844
_cell_length_c       18.9522
_cell_angle_alpha    90
_cell_angle_beta     128.764
_cell_angle_gamma    90

_symmetry_space_group_name_H-M    "P 1"
_symmetry_int_tables_number       1

loop_
  _symmetry_equiv_pos_as_xyz
  'x, y, z'

loop_
  _atom_site_label
  _atom_site_occupancy
  _atom_site_fract_x
  _atom_site_fract_y
  _atom_site_fract_z
  _atom_site_thermal_displace_type
  _atom_site_B_iso_or_equiv
  _atom_site_type_symbol
  Zn1      1.0000 0.26811  0.99028  0.29253  Biso   1.000  Zn
  O1       1.0000 0.14802  0.08122  0.21264  Biso   1.000  O
  O2       1.0000 0.17737  0.96845  0.18604  Biso   1.000  O
  O3       1.0000 0.02094  0.91561  0.17615  Biso   1.000  O
  O4       1.0000 0.08721  0.83866  0.29325  Biso   1.000  O
  C1       1.0000 0.08562  0.82208  0.16803  Biso   1.000  C
  C2       1.0000 0.03766  0.93065  0.04626  Biso   1.000  C
  N1       1.0000 0.27664  0.95699  0.40269  Biso   1.000  N
  C3       1.0000 0.06454  0.00629  0.08235  Biso   1.000  C
  C4       1.0000 0.07301  0.85340  0.08968  Biso   1.000  C
  N2       1.0000 0.07965  0.02446  0.35100  Biso   1.000  N
  N3       1.0000 0.25486  0.90541  0.48797  Biso   1.000  N
  C5       1.0000 0.06368  0.86106  0.21706  Biso   1.000  C
  C6       1.0000 0.97405  0.92683  0.96450  Biso   1.000  C
  H1       1.0000 0.95620  0.87690  0.93960  Biso   1.000  H
  C7       1.0000 0.13458  0.02047  0.16741  Biso   1.000  C
  N4       1.0000 0.17417  0.08877  0.43580  Biso   1.000  N
  C8       1.0000 0.11771  0.74910  0.20134  Biso   1.000  C
  H2       1.0000 0.12680  0.72930  0.25390  Biso   1.000  H
  C9       1.0000 0.10670  0.01520  0.43950  Biso   1.000  C
  H3       1.0000 0.08800  0.98590  0.46020  Biso   1.000  H
  N5       1.0000 0.31699  0.90744  0.27442  Biso   1.000  N
  C10      1.0000 0.25367  0.77160  0.53800  Biso   1.000  C
  H4       1.0000 0.23340  0.73950  0.55750  Biso   1.000  H
  H5       1.0000 0.30060  0.77630  0.58880  Biso   1.000  H
  C11      1.0000 0.22300  0.85340  0.51360  Biso   1.000  C
  H6       1.0000 0.17580  0.84950  0.46350  Biso   1.000  H
  H7       1.0000 0.22840  0.87630  0.56480  Biso   1.000  H
  C12      1.0000 0.12181  0.06950  0.35150  Biso   1.000  C
  H8       1.0000 0.11580  0.08570  0.29990  Biso   1.000  H
  C13      1.0000 0.23376  0.91538  0.40340  Biso   1.000  C
  H9       1.0000 0.19390  0.89540  0.35180  Biso   1.000  H
  C14      1.0000 0.22188  0.22300  0.48630  Biso   1.000  C
  H10      1.0000 0.18030  0.24610  0.43510  Biso   1.000  H
  H11      1.0000 0.22020  0.21890  0.53600  Biso   1.000  H
  C15      1.0000 0.37291  0.91740  0.28680  Biso   1.000  C
  H12      1.0000 0.39210  0.96670  0.29390  Biso   1.000  H
  C16      1.0000 0.31491  0.94290  0.54470  Biso   1.000  C
  H13      1.0000 0.34160  0.94560  0.60750  Biso   1.000  H
  C17      1.0000 0.32807  0.97490  0.49250  Biso   1.000  C
  H14      1.0000 0.36570  0.00440  0.51330  Biso   1.000  H
  N6       1.0000 0.39848  0.84780  0.28790  Biso   1.000  N
  C18      1.0000 0.22880  0.14050  0.46130  Biso   1.000  C
  H15      1.0000 0.22990  0.14430  0.41110  Biso   1.000  H
  H16      1.0000 0.27050  0.11730  0.51230  Biso   1.000  H
  C19      1.0000 0.35570  0.78840  0.27200  Biso   1.000  C
  H17      1.0000 0.35990  0.73390  0.26780  Biso   1.000  H
  C20      1.0000 0.30620  0.82650  0.26370  Biso   1.000  C
  H18      1.0000 0.26950  0.80130  0.25230  Biso   1.000  H
  C21      1.0000 0.16440  0.05460  0.49210  Biso   1.000  C
  H19      1.0000 0.19240  0.05820  0.55490  Biso   1.000  H
  C22      1.0000 0.13665  0.70496  0.15953  Biso   1.000  C
  O5       1.0000 0.18621  0.60199  0.26983  Biso   1.000  O
  C23      1.0000 0.09102  0.80824  0.04706  Biso   1.000  C
  H20      1.0000 0.08210  0.82760  0.99450  Biso   1.000  H
  C24      1.0000 0.12201  0.73487  0.08060  Biso   1.000  C
  H21      1.0000 0.13300  0.70560  0.05000  Biso   1.000  H
  C25      1.0000 0.17055  0.62541  0.19840  Biso   1.000  C
  O6       1.0000 0.18115  0.58680  0.15088  Biso   1.000  O
  C26      1.0000 0.46350  0.84110  0.23490  Biso   1.000  C
  H22      1.0000 0.44040  0.88880  0.19990  Biso   1.000  H
  H23      1.0000 0.43930  0.79530  0.19640  Biso   1.000  H
  C27      1.0000 0.46480  0.83840  0.31070  Biso   1.000  C
  H24      1.0000 0.49390  0.88030  0.35250  Biso   1.000  H
  H25      1.0000 0.48370  0.78790  0.34140  Biso   1.000  H
  Zn2      1.0000 0.76811  0.49028  0.29253  Biso   1.000  Zn
  O7       1.0000 0.64802  0.58122  0.21264  Biso   1.000  O
  O8       1.0000 0.67737  0.46845  0.18604  Biso   1.000  O
  O9       1.0000 0.52094  0.41561  0.17615  Biso   1.000  O
  O10      1.0000 0.58721  0.33866  0.29325  Biso   1.000  O
  C28      1.0000 0.58562  0.32208  0.16803  Biso   1.000  C
  C29      1.0000 0.53766  0.43065  0.04626  Biso   1.000  C
  N7       1.0000 0.77664  0.45699  0.40269  Biso   1.000  N
  C30      1.0000 0.56454  0.50629  0.08235  Biso   1.000  C
  C31      1.0000 0.57301  0.35340  0.08968  Biso   1.000  C
  N8       1.0000 0.57965  0.52446  0.35100  Biso   1.000  N
  N9       1.0000 0.75486  0.40541  0.48797  Biso   1.000  N
  C32      1.0000 0.56368  0.36106  0.21706  Biso   1.000  C
  C33      1.0000 0.47405  0.42683  0.96450  Biso   1.000  C
  H26      1.0000 0.45620  0.37690  0.93960  Biso   1.000  H
  C34      1.0000 0.63458  0.52047  0.16741  Biso   1.000  C
  N10      1.0000 0.67417  0.58877  0.43580  Biso   1.000  N
  C35      1.0000 0.61771  0.24910  0.20134  Biso   1.000  C
  H27      1.0000 0.62680  0.22930  0.25390  Biso   1.000  H
  C36      1.0000 0.60670  0.51520  0.43950  Biso   1.000  C
  H28      1.0000 0.58800  0.48590  0.46020  Biso   1.000  H
  N11      1.0000 0.81699  0.40744  0.27442  Biso   1.000  N
  C37      1.0000 0.75367  0.27160  0.53800  Biso   1.000  C
  H29      1.0000 0.73340  0.23950  0.55750  Biso   1.000  H
  H30      1.0000 0.80060  0.27630  0.58880  Biso   1.000  H
  C38      1.0000 0.72300  0.35340  0.51360  Biso   1.000  C
  H31      1.0000 0.67580  0.34950  0.46350  Biso   1.000  H
  H32      1.0000 0.72840  0.37630  0.56480  Biso   1.000  H
  C39      1.0000 0.62181  0.56950  0.35150  Biso   1.000  C
  H33      1.0000 0.61580  0.58570  0.29990  Biso   1.000  H
  C40      1.0000 0.73376  0.41538  0.40340  Biso   1.000  C
  H34      1.0000 0.69390  0.39540  0.35180  Biso   1.000  H
  C41      1.0000 0.72188  0.72300  0.48630  Biso   1.000  C
  H35      1.0000 0.68030  0.74610  0.43510  Biso   1.000  H
  H36      1.0000 0.72020  0.71890  0.53600  Biso   1.000  H
  C42      1.0000 0.87291  0.41740  0.28680  Biso   1.000  C
  H37      1.0000 0.89210  0.46670  0.29390  Biso   1.000  H
  C43      1.0000 0.81491  0.44290  0.54470  Biso   1.000  C
  H38      1.0000 0.84160  0.44560  0.60750  Biso   1.000  H
  C44      1.0000 0.82807  0.47490  0.49250  Biso   1.000  C
  H39      1.0000 0.86570  0.50440  0.51330  Biso   1.000  H
  N12      1.0000 0.89848  0.34780  0.28790  Biso   1.000  N
  C45      1.0000 0.72880  0.64050  0.46130  Biso   1.000  C
  H40      1.0000 0.72990  0.64430  0.41110  Biso   1.000  H
  H41      1.0000 0.77050  0.61730  0.51230  Biso   1.000  H
  C46      1.0000 0.85570  0.28840  0.27200  Biso   1.000  C
  H42      1.0000 0.85990  0.23390  0.26780  Biso   1.000  H
  C47      1.0000 0.80620  0.32650  0.26370  Biso   1.000  C
  H43      1.0000 0.76950  0.30130  0.25230  Biso   1.000  H
  C48      1.0000 0.66440  0.55460  0.49210  Biso   1.000  C
  H44      1.0000 0.69240  0.55820  0.55490  Biso   1.000  H
  C49      1.0000 0.63665  0.20496  0.15953  Biso   1.000  C
  O11      1.0000 0.68621  0.10199  0.26983  Biso   1.000  O
  C50      1.0000 0.59102  0.30824  0.04706  Biso   1.000  C
  H45      1.0000 0.58210  0.32760  0.99450  Biso   1.000  H
  C51      1.0000 0.62201  0.23487  0.08060  Biso   1.000  C
  H46      1.0000 0.63300  0.20560  0.05000  Biso   1.000  H
  C52      1.0000 0.67055  0.12541  0.19840  Biso   1.000  C
  O12      1.0000 0.68115  0.08680  0.15088  Biso   1.000  O
  C53      1.0000 0.96350  0.34110  0.23490  Biso   1.000  C
  H47      1.0000 0.94040  0.38880  0.19990  Biso   1.000  H
  H48      1.0000 0.93930  0.29530  0.19640  Biso   1.000  H
  C54      1.0000 0.96480  0.33840  0.31070  Biso   1.000  C
  H49      1.0000 0.99390  0.38030  0.35250  Biso   1.000  H
  H50      1.0000 0.98370  0.28790  0.34140  Biso   1.000  H
  Zn3      1.0000 0.73189  0.99028  0.20747  Biso   1.000  Zn
  O13      1.0000 0.85198  0.08122  0.28736  Biso   1.000  O
  O14      1.0000 0.82263  0.96845  0.31396  Biso   1.000  O
  O15      1.0000 0.97906  0.91561  0.32385  Biso   1.000  O
  O16      1.0000 0.91279  0.83866  0.20675  Biso   1.000  O
  C55      1.0000 0.91438  0.82208  0.33197  Biso   1.000  C
  C56      1.0000 0.96234  0.93065  0.45374  Biso   1.000  C
  N13      1.0000 0.72336  0.95699  0.09731  Biso   1.000  N
  C57      1.0000 0.93546  0.00629  0.41765  Biso   1.000  C
  C58      1.0000 0.92699  0.85340  0.41032  Biso   1.000  C
  N14      1.0000 0.92035  0.02446  0.14900  Biso   1.000  N
  N15      1.0000 0.74514  0.90541  0.01203  Biso   1.000  N
  C59      1.0000 0.93632  0.86106  0.28294  Biso   1.000  C
  C60      1.0000 0.02595  0.92683  0.53550  Biso   1.000  C
  H51      1.0000 0.04380  0.87690  0.56040  Biso   1.000  H
  C61      1.0000 0.86542  0.02047  0.33259  Biso   1.000  C
  N16      1.0000 0.82583  0.08877  0.06420  Biso   1.000  N
  C62      1.0000 0.88229  0.74910  0.29866  Biso   1.000  C
  H52      1.0000 0.87320  0.72930  0.24610  Biso   1.000  H
  C63      1.0000 0.89330  0.01520  0.06050  Biso   1.000  C
  H53      1.0000 0.91200  0.98590  0.03980  Biso   1.000  H
  N17      1.0000 0.68301  0.90744  0.22558  Biso   1.000  N
  C64      1.0000 0.74633  0.77160  0.96200  Biso   1.000  C
  H54      1.0000 0.76660  0.73950  0.94250  Biso   1.000  H
  H55      1.0000 0.69940  0.77630  0.91120  Biso   1.000  H
  C65      1.0000 0.77700  0.85340  0.98640  Biso   1.000  C
  H56      1.0000 0.82420  0.84950  0.03650  Biso   1.000  H
  H57      1.0000 0.77160  0.87630  0.93520  Biso   1.000  H
  C66      1.0000 0.87819  0.06950  0.14850  Biso   1.000  C
  H58      1.0000 0.88420  0.08570  0.20010  Biso   1.000  H
  C67      1.0000 0.76624  0.91538  0.09660  Biso   1.000  C
  H59      1.0000 0.80610  0.89540  0.14820  Biso   1.000  H
  C68      1.0000 0.77812  0.22300  0.01370  Biso   1.000  C
  H60      1.0000 0.81970  0.24610  0.06490  Biso   1.000  H
  H61      1.0000 0.77980  0.21890  0.96400  Biso   1.000  H
  C69      1.0000 0.62709  0.91740  0.21320  Biso   1.000  C
  H62      1.0000 0.60790  0.96670  0.20610  Biso   1.000  H
  C70      1.0000 0.68509  0.94290  0.95530  Biso   1.000  C
  H63      1.0000 0.65840  0.94560  0.89250  Biso   1.000  H
  C71      1.0000 0.67193  0.97490  0.00750  Biso   1.000  C
  H64      1.0000 0.63430  0.00440  0.98670  Biso   1.000  H
  N18      1.0000 0.60152  0.84780  0.21210  Biso   1.000  N
  C72      1.0000 0.77120  0.14050  0.03870  Biso   1.000  C
  H65      1.0000 0.77010  0.14430  0.08890  Biso   1.000  H
  H66      1.0000 0.72950  0.11730  0.98770  Biso   1.000  H
  C73      1.0000 0.64430  0.78840  0.22800  Biso   1.000  C
  H67      1.0000 0.64010  0.73390  0.23220  Biso   1.000  H
  C74      1.0000 0.69380  0.82650  0.23630  Biso   1.000  C
  H68      1.0000 0.73050  0.80130  0.24770  Biso   1.000  H
  C75      1.0000 0.83560  0.05460  0.00790  Biso   1.000  C
  H69      1.0000 0.80760  0.05820  0.94510  Biso   1.000  H
  C76      1.0000 0.86335  0.70496  0.34047  Biso   1.000  C
  O17      1.0000 0.81379  0.60199  0.23017  Biso   1.000  O
  C77      1.0000 0.90898  0.80824  0.45294  Biso   1.000  C
  H70      1.0000 0.91790  0.82760  0.50550  Biso   1.000  H
  C78      1.0000 0.87799  0.73487  0.41940  Biso   1.000  C
  H71      1.0000 0.86700  0.70560  0.45000  Biso   1.000  H
  C79      1.0000 0.82945  0.62541  0.30160  Biso   1.000  C
  O18      1.0000 0.81885  0.58680  0.34912  Biso   1.000  O
  C80      1.0000 0.53650  0.84110  0.26510  Biso   1.000  C
  H72      1.0000 0.55960  0.88880  0.30010  Biso   1.000  H
  H73      1.0000 0.56070  0.79530  0.30360  Biso   1.000  H
  C81      1.0000 0.53520  0.83840  0.18930  Biso   1.000  C
  H74      1.0000 0.50610  0.88030  0.14750  Biso   1.000  H
  H75      1.0000 0.51630  0.78790  0.15860  Biso   1.000  H
  Zn4      1.0000 0.23189  0.49028  0.20747  Biso   1.000  Zn
  O19      1.0000 0.35198  0.58122  0.28736  Biso   1.000  O
  O20      1.0000 0.32263  0.46845  0.31396  Biso   1.000  O
  O21      1.0000 0.47906  0.41561  0.32385  Biso   1.000  O
  O22      1.0000 0.41279  0.33866  0.20675  Biso   1.000  O
  C82      1.0000 0.41438  0.32208  0.33197  Biso   1.000  C
  C83      1.0000 0.46234  0.43065  0.45374  Biso   1.000  C
  N19      1.0000 0.22336  0.45699  0.09731  Biso   1.000  N
  C84      1.0000 0.43546  0.50629  0.41765  Biso   1.000  C
  C85      1.0000 0.42699  0.35340  0.41032  Biso   1.000  C
  N20      1.0000 0.42035  0.52446  0.14900  Biso   1.000  N
  N21      1.0000 0.24514  0.40541  0.01203  Biso   1.000  N
  C86      1.0000 0.43632  0.36106  0.28294  Biso   1.000  C
  C87      1.0000 0.52595  0.42683  0.53550  Biso   1.000  C
  H76      1.0000 0.54380  0.37690  0.56040  Biso   1.000  H
  C88      1.0000 0.36542  0.52047  0.33259  Biso   1.000  C
  N22      1.0000 0.32583  0.58877  0.06420  Biso   1.000  N
  C89      1.0000 0.38229  0.24910  0.29866  Biso   1.000  C
  H77      1.0000 0.37320  0.22930  0.24610  Biso   1.000  H
  C90      1.0000 0.39330  0.51520  0.06050  Biso   1.000  C
  H78      1.0000 0.41200  0.48590  0.03980  Biso   1.000  H
  N23      1.0000 0.18301  0.40744  0.22558  Biso   1.000  N
  C91      1.0000 0.24633  0.27160  0.96200  Biso   1.000  C
  H79      1.0000 0.26660  0.23950  0.94250  Biso   1.000  H
  H80      1.0000 0.19940  0.27630  0.91120  Biso   1.000  H
  C92      1.0000 0.27700  0.35340  0.98640  Biso   1.000  C
  H81      1.0000 0.32420  0.34950  0.03650  Biso   1.000  H
  H82      1.0000 0.27160  0.37630  0.93520  Biso   1.000  H
  C93      1.0000 0.37819  0.56950  0.14850  Biso   1.000  C
  H83      1.0000 0.38420  0.58570  0.20010  Biso   1.000  H
  C94      1.0000 0.26624  0.41538  0.09660  Biso   1.000  C
  H84      1.0000 0.30610  0.39540  0.14820  Biso   1.000  H
  C95      1.0000 0.27812  0.72300  0.01370  Biso   1.000  C
  H85      1.0000 0.31970  0.74610  0.06490  Biso   1.000  H
  H86      1.0000 0.27980  0.71890  0.96400  Biso   1.000  H
  C96      1.0000 0.12709  0.41740  0.21320  Biso   1.000  C
  H87      1.0000 0.10790  0.46670  0.20610  Biso   1.000  H
  C97      1.0000 0.18509  0.44290  0.95530  Biso   1.000  C
  H88      1.0000 0.15840  0.44560  0.89250  Biso   1.000  H
  C98      1.0000 0.17193  0.47490  0.00750  Biso   1.000  C
  H89      1.0000 0.13430  0.50440  0.98670  Biso   1.000  H
  N24      1.0000 0.10152  0.34780  0.21210  Biso   1.000  N
  C99      1.0000 0.27120  0.64050  0.03870  Biso   1.000  C
  H90      1.0000 0.27010  0.64430  0.08890  Biso   1.000  H
  H91      1.0000 0.22950  0.61730  0.98770  Biso   1.000  H
  C100     1.0000 0.14430  0.28840  0.22800  Biso   1.000  C
  H92      1.0000 0.14010  0.23390  0.23220  Biso   1.000  H
  C101     1.0000 0.19380  0.32650  0.23630  Biso   1.000  C
  H93      1.0000 0.23050  0.30130  0.24770  Biso   1.000  H
  C102     1.0000 0.33560  0.55460  0.00790  Biso   1.000  C
  H94      1.0000 0.30760  0.55820  0.94510  Biso   1.000  H
  C103     1.0000 0.36335  0.20496  0.34047  Biso   1.000  C
  O23      1.0000 0.31379  0.10199  0.23017  Biso   1.000  O
  C104     1.0000 0.40898  0.30824  0.45294  Biso   1.000  C
  H95      1.0000 0.41790  0.32760  0.50550  Biso   1.000  H
  C105     1.0000 0.37799  0.23487  0.41940  Biso   1.000  C
  H96      1.0000 0.36700  0.20560  0.45000  Biso   1.000  H
  C106     1.0000 0.32945  0.12541  0.30160  Biso   1.000  C
  O24      1.0000 0.31885  0.08680  0.34912  Biso   1.000  O
  C107     1.0000 0.03650  0.34110  0.26510  Biso   1.000  C
  H97      1.0000 0.05960  0.38880  0.30010  Biso   1.000  H
  H98      1.0000 0.06070  0.29530  0.30360  Biso   1.000  H
  C108     1.0000 0.03520  0.33840  0.18930  Biso   1.000  C
  H99      1.0000 0.00610  0.38030  0.14750  Biso   1.000  H
  H100     1.0000 0.01630  0.28790  0.15860  Biso   1.000  H
  Zn5      1.0000 0.73189  0.00972  0.70747  Biso   1.000  Zn
  O25      1.0000 0.85198  0.91878  0.78736  Biso   1.000  O
  O26      1.0000 0.82263  0.03155  0.81396  Biso   1.000  O
  O27      1.0000 0.97906  0.08439  0.82385  Biso   1.000  O
  O28      1.0000 0.91279  0.16134  0.70675  Biso   1.000  O
  C109     1.0000 0.91438  0.17792  0.83197  Biso   1.000  C
  C110     1.0000 0.96234  0.06935  0.95374  Biso   1.000  C
  N25      1.0000 0.72336  0.04301  0.59731  Biso   1.000  N
  C111     1.0000 0.93546  0.99371  0.91765  Biso   1.000  C
  C112     1.0000 0.92699  0.14660  0.91032  Biso   1.000  C
  N26      1.0000 0.92035  0.97554  0.64900  Biso   1.000  N
  N27      1.0000 0.74514  0.09459  0.51203  Biso   1.000  N
  C113     1.0000 0.93632  0.13894  0.78294  Biso   1.000  C
  C114     1.0000 0.02595  0.07317  0.03550  Biso   1.000  C
  H101     1.0000 0.04380  0.12310  0.06040  Biso   1.000  H
  C115     1.0000 0.86542  0.97953  0.83259  Biso   1.000  C
  N28      1.0000 0.82583  0.91123  0.56420  Biso   1.000  N
  C116     1.0000 0.88229  0.25090  0.79866  Biso   1.000  C
  H102     1.0000 0.87320  0.27070  0.74610  Biso   1.000  H
  C117     1.0000 0.89330  0.98480  0.56050  Biso   1.000  C
  H103     1.0000 0.91200  0.01410  0.53980  Biso   1.000  H
  N29      1.0000 0.68301  0.09256  0.72558  Biso   1.000  N
  C118     1.0000 0.74633  0.22840  0.46200  Biso   1.000  C
  H104     1.0000 0.76660  0.26050  0.44250  Biso   1.000  H
  H105     1.0000 0.69940  0.22370  0.41120  Biso   1.000  H
  C119     1.0000 0.77700  0.14660  0.48640  Biso   1.000  C
  H106     1.0000 0.82420  0.15050  0.53650  Biso   1.000  H
  H107     1.0000 0.77160  0.12370  0.43520  Biso   1.000  H
  C120     1.0000 0.87819  0.93050  0.64850  Biso   1.000  C
  H108     1.0000 0.88420  0.91430  0.70010  Biso   1.000  H
  C121     1.0000 0.76624  0.08462  0.59660  Biso   1.000  C
  H109     1.0000 0.80610  0.10460  0.64820  Biso   1.000  H
  C122     1.0000 0.77812  0.77700  0.51370  Biso   1.000  C
  H110     1.0000 0.81970  0.75390  0.56490  Biso   1.000  H
  H111     1.0000 0.77980  0.78110  0.46400  Biso   1.000  H
  C123     1.0000 0.62709  0.08260  0.71320  Biso   1.000  C
  H112     1.0000 0.60790  0.03330  0.70610  Biso   1.000  H
  C124     1.0000 0.68509  0.05710  0.45530  Biso   1.000  C
  H113     1.0000 0.65840  0.05440  0.39250  Biso   1.000  H
  C125     1.0000 0.67193  0.02510  0.50750  Biso   1.000  C
  H114     1.0000 0.63430  0.99560  0.48670  Biso   1.000  H
  N30      1.0000 0.60152  0.15220  0.71210  Biso   1.000  N
  C126     1.0000 0.77120  0.85950  0.53870  Biso   1.000  C
  H115     1.0000 0.77010  0.85570  0.58890  Biso   1.000  H
  H116     1.0000 0.72950  0.88270  0.48770  Biso   1.000  H
  C127     1.0000 0.64430  0.21160  0.72800  Biso   1.000  C
  H117     1.0000 0.64010  0.26610  0.73220  Biso   1.000  H
  C128     1.0000 0.69380  0.17350  0.73630  Biso   1.000  C
  H118     1.0000 0.73050  0.19870  0.74770  Biso   1.000  H
  C129     1.0000 0.83560  0.94540  0.50790  Biso   1.000  C
  H119     1.0000 0.80760  0.94180  0.44510  Biso   1.000  H
  C130     1.0000 0.86335  0.29504  0.84047  Biso   1.000  C
  O29      1.0000 0.81379  0.39801  0.73017  Biso   1.000  O
  C131     1.0000 0.90898  0.19176  0.95294  Biso   1.000  C
  H120     1.0000 0.91790  0.17240  0.00550  Biso   1.000  H
  C132     1.0000 0.87799  0.26513  0.91940  Biso   1.000  C
  H121     1.0000 0.86700  0.29440  0.95000  Biso   1.000  H
  C133     1.0000 0.82945  0.37459  0.80160  Biso   1.000  C
  O30      1.0000 0.81885  0.41320  0.84912  Biso   1.000  O
  C134     1.0000 0.53650  0.15890  0.76510  Biso   1.000  C
  H122     1.0000 0.55960  0.11120  0.80010  Biso   1.000  H
  H123     1.0000 0.56070  0.20470  0.80360  Biso   1.000  H
  C135     1.0000 0.53520  0.16160  0.68930  Biso   1.000  C
  H124     1.0000 0.50610  0.11970  0.64750  Biso   1.000  H
  H125     1.0000 0.51630  0.21210  0.65860  Biso   1.000  H
  Zn6      1.0000 0.23189  0.50972  0.70747  Biso   1.000  Zn
  O31      1.0000 0.35198  0.41878  0.78736  Biso   1.000  O
  O32      1.0000 0.32263  0.53155  0.81396  Biso   1.000  O
  O33      1.0000 0.47906  0.58439  0.82385  Biso   1.000  O
  O34      1.0000 0.41279  0.66134  0.70675  Biso   1.000  O
  C136     1.0000 0.41438  0.67792  0.83197  Biso   1.000  C
  C137     1.0000 0.46234  0.56935  0.95374  Biso   1.000  C
  N31      1.0000 0.22336  0.54301  0.59731  Biso   1.000  N
  C138     1.0000 0.43546  0.49371  0.91765  Biso   1.000  C
  C139     1.0000 0.42699  0.64660  0.91032  Biso   1.000  C
  N32      1.0000 0.42035  0.47554  0.64900  Biso   1.000  N
  N33      1.0000 0.24514  0.59459  0.51203  Biso   1.000  N
  C140     1.0000 0.43632  0.63894  0.78294  Biso   1.000  C
  C141     1.0000 0.52595  0.57317  0.03550  Biso   1.000  C
  H126     1.0000 0.54380  0.62310  0.06040  Biso   1.000  H
  C142     1.0000 0.36542  0.47953  0.83259  Biso   1.000  C
  N34      1.0000 0.32583  0.41123  0.56420  Biso   1.000  N
  C143     1.0000 0.38229  0.75090  0.79866  Biso   1.000  C
  H127     1.0000 0.37320  0.77070  0.74610  Biso   1.000  H
  C144     1.0000 0.39330  0.48480  0.56050  Biso   1.000  C
  H128     1.0000 0.41200  0.51410  0.53980  Biso   1.000  H
  N35      1.0000 0.18301  0.59256  0.72558  Biso   1.000  N
  C145     1.0000 0.24633  0.72840  0.46200  Biso   1.000  C
  H129     1.0000 0.26660  0.76050  0.44250  Biso   1.000  H
  H130     1.0000 0.19940  0.72370  0.41120  Biso   1.000  H
  C146     1.0000 0.27700  0.64660  0.48640  Biso   1.000  C
  H131     1.0000 0.32420  0.65050  0.53650  Biso   1.000  H
  H132     1.0000 0.27160  0.62370  0.43520  Biso   1.000  H
  C147     1.0000 0.37819  0.43050  0.64850  Biso   1.000  C
  H133     1.0000 0.38420  0.41430  0.70010  Biso   1.000  H
  C148     1.0000 0.26624  0.58462  0.59660  Biso   1.000  C
  H134     1.0000 0.30610  0.60460  0.64820  Biso   1.000  H
  C149     1.0000 0.27812  0.27700  0.51370  Biso   1.000  C
  H135     1.0000 0.31970  0.25390  0.56490  Biso   1.000  H
  H136     1.0000 0.27980  0.28110  0.46400  Biso   1.000  H
  C150     1.0000 0.12709  0.58260  0.71320  Biso   1.000  C
  H137     1.0000 0.10790  0.53330  0.70610  Biso   1.000  H
  C151     1.0000 0.18509  0.55710  0.45530  Biso   1.000  C
  H138     1.0000 0.15840  0.55440  0.39250  Biso   1.000  H
  C152     1.0000 0.17193  0.52510  0.50750  Biso   1.000  C
  H139     1.0000 0.13430  0.49560  0.48670  Biso   1.000  H
  N36      1.0000 0.10152  0.65220  0.71210  Biso   1.000  N
  C153     1.0000 0.27120  0.35950  0.53870  Biso   1.000  C
  H140     1.0000 0.27010  0.35570  0.58890  Biso   1.000  H
  H141     1.0000 0.22950  0.38270  0.48770  Biso   1.000  H
  C154     1.0000 0.14430  0.71160  0.72800  Biso   1.000  C
  H142     1.0000 0.14010  0.76610  0.73220  Biso   1.000  H
  C155     1.0000 0.19380  0.67350  0.73630  Biso   1.000  C
  H143     1.0000 0.23050  0.69870  0.74770  Biso   1.000  H
  C156     1.0000 0.33560  0.44540  0.50790  Biso   1.000  C
  H144     1.0000 0.30760  0.44180  0.44510  Biso   1.000  H
  C157     1.0000 0.36335  0.79504  0.84047  Biso   1.000  C
  O35      1.0000 0.31379  0.89801  0.73017  Biso   1.000  O
  C158     1.0000 0.40898  0.69176  0.95294  Biso   1.000  C
  H145     1.0000 0.41790  0.67240  0.00550  Biso   1.000  H
  C159     1.0000 0.37799  0.76513  0.91940  Biso   1.000  C
  H146     1.0000 0.36700  0.79440  0.95000  Biso   1.000  H
  C160     1.0000 0.32945  0.87459  0.80160  Biso   1.000  C
  O36      1.0000 0.31885  0.91320  0.84912  Biso   1.000  O
  C161     1.0000 0.03650  0.65890  0.76510  Biso   1.000  C
  H147     1.0000 0.05960  0.61120  0.80010  Biso   1.000  H
  H148     1.0000 0.06070  0.70470  0.80360  Biso   1.000  H
  C162     1.0000 0.03520  0.66160  0.68930  Biso   1.000  C
  H149     1.0000 0.00610  0.61970  0.64750  Biso   1.000  H
  H150     1.0000 0.01630  0.71210  0.65860  Biso   1.000  H
  Zn7      1.0000 0.26811  0.00972  0.79253  Biso   1.000  Zn
  O37      1.0000 0.14802  0.91878  0.71264  Biso   1.000  O
  O38      1.0000 0.17737  0.03155  0.68604  Biso   1.000  O
  O39      1.0000 0.02094  0.08439  0.67615  Biso   1.000  O
  O40      1.0000 0.08721  0.16134  0.79325  Biso   1.000  O
  C163     1.0000 0.08562  0.17792  0.66803  Biso   1.000  C
  C164     1.0000 0.03766  0.06935  0.54626  Biso   1.000  C
  N37      1.0000 0.27664  0.04301  0.90269  Biso   1.000  N
  C165     1.0000 0.06454  0.99371  0.58235  Biso   1.000  C
  C166     1.0000 0.07301  0.14660  0.58968  Biso   1.000  C
  N38      1.0000 0.07965  0.97554  0.85100  Biso   1.000  N
  N39      1.0000 0.25486  0.09459  0.98797  Biso   1.000  N
  C167     1.0000 0.06368  0.13894  0.71706  Biso   1.000  C
  C168     1.0000 0.97405  0.07317  0.46450  Biso   1.000  C
  H151     1.0000 0.95620  0.12310  0.43960  Biso   1.000  H
  C169     1.0000 0.13458  0.97953  0.66741  Biso   1.000  C
  N40      1.0000 0.17417  0.91123  0.93580  Biso   1.000  N
  C170     1.0000 0.11771  0.25090  0.70134  Biso   1.000  C
  H152     1.0000 0.12680  0.27070  0.75390  Biso   1.000  H
  C171     1.0000 0.10670  0.98480  0.93950  Biso   1.000  C
  H153     1.0000 0.08800  0.01410  0.96020  Biso   1.000  H
  N41      1.0000 0.31699  0.09256  0.77442  Biso   1.000  N
  C172     1.0000 0.25367  0.22840  0.03800  Biso   1.000  C
  H154     1.0000 0.23340  0.26050  0.05750  Biso   1.000  H
  H155     1.0000 0.30060  0.22370  0.08880  Biso   1.000  H
  C173     1.0000 0.22300  0.14660  0.01360  Biso   1.000  C
  H156     1.0000 0.17580  0.15050  0.96350  Biso   1.000  H
  H157     1.0000 0.22840  0.12370  0.06480  Biso   1.000  H
  C174     1.0000 0.12181  0.93050  0.85150  Biso   1.000  C
  H158     1.0000 0.11580  0.91430  0.79990  Biso   1.000  H
  C175     1.0000 0.23376  0.08462  0.90340  Biso   1.000  C
  H159     1.0000 0.19390  0.10460  0.85180  Biso   1.000  H
  C176     1.0000 0.22188  0.77700  0.98630  Biso   1.000  C
  H160     1.0000 0.18030  0.75390  0.93510  Biso   1.000  H
  H161     1.0000 0.22020  0.78110  0.03600  Biso   1.000  H
  C177     1.0000 0.37291  0.08260  0.78680  Biso   1.000  C
  H162     1.0000 0.39210  0.03330  0.79390  Biso   1.000  H
  C178     1.0000 0.31491  0.05710  0.04470  Biso   1.000  C
  H163     1.0000 0.34160  0.05440  0.10750  Biso   1.000  H
  C179     1.0000 0.32807  0.02510  0.99250  Biso   1.000  C
  H164     1.0000 0.36570  0.99560  0.01330  Biso   1.000  H
  N42      1.0000 0.39848  0.15220  0.78790  Biso   1.000  N
  C180     1.0000 0.22880  0.85950  0.96130  Biso   1.000  C
  H165     1.0000 0.22990  0.85570  0.91110  Biso   1.000  H
  H166     1.0000 0.27050  0.88270  0.01230  Biso   1.000  H
  C181     1.0000 0.35570  0.21160  0.77200  Biso   1.000  C
  H167     1.0000 0.35990  0.26610  0.76780  Biso   1.000  H
  C182     1.0000 0.30620  0.17350  0.76370  Biso   1.000  C
  H168     1.0000 0.26950  0.19870  0.75230  Biso   1.000  H
  C183     1.0000 0.16440  0.94540  0.99210  Biso   1.000  C
  H169     1.0000 0.19240  0.94180  0.05490  Biso   1.000  H
  C184     1.0000 0.13665  0.29504  0.65953  Biso   1.000  C
  O41      1.0000 0.18621  0.39801  0.76983  Biso   1.000  O
  C185     1.0000 0.09102  0.19176  0.54706  Biso   1.000  C
  H170     1.0000 0.08210  0.17240  0.49450  Biso   1.000  H
  C186     1.0000 0.12201  0.26513  0.58060  Biso   1.000  C
  H171     1.0000 0.13300  0.29440  0.55000  Biso   1.000  H
  C187     1.0000 0.17055  0.37459  0.69840  Biso   1.000  C
  O42      1.0000 0.18115  0.41320  0.65088  Biso   1.000  O
  C188     1.0000 0.46350  0.15890  0.73490  Biso   1.000  C
  H172     1.0000 0.44040  0.11120  0.69990  Biso   1.000  H
  H173     1.0000 0.43930  0.20470  0.69640  Biso   1.000  H
  C189     1.0000 0.46480  0.16160  0.81070  Biso   1.000  C
  H174     1.0000 0.49390  0.11970  0.85250  Biso   1.000  H
  H175     1.0000 0.48370  0.21210  0.84140  Biso   1.000  H
  Zn8      1.0000 0.76811  0.50972  0.79253  Biso   1.000  Zn
  O43      1.0000 0.64802  0.41878  0.71264  Biso   1.000  O
  O44      1.0000 0.67737  0.53155  0.68604  Biso   1.000  O
  O45      1.0000 0.52094  0.58439  0.67615  Biso   1.000  O
  O46      1.0000 0.58721  0.66134  0.79325  Biso   1.000  O
  C190     1.0000 0.58562  0.67792  0.66803  Biso   1.000  C
  C191     1.0000 0.53766  0.56935  0.54626  Biso   1.000  C
  N43      1.0000 0.77664  0.54301  0.90269  Biso   1.000  N
  C192     1.0000 0.56454  0.49371  0.58235  Biso   1.000  C
  C193     1.0000 0.57301  0.64660  0.58968  Biso   1.000  C
  N44      1.0000 0.57965  0.47554  0.85100  Biso   1.000  N
  N45      1.0000 0.75486  0.59459  0.98797  Biso   1.000  N
  C194     1.0000 0.56368  0.63894  0.71706  Biso   1.000  C
  C195     1.0000 0.47405  0.57317  0.46450  Biso   1.000  C
  H176     1.0000 0.45620  0.62310  0.43960  Biso   1.000  H
  C196     1.0000 0.63458  0.47953  0.66741  Biso   1.000  C
  N46      1.0000 0.67417  0.41123  0.93580  Biso   1.000  N
  C197     1.0000 0.61771  0.75090  0.70134  Biso   1.000  C
  H177     1.0000 0.62680  0.77070  0.75390  Biso   1.000  H
  C198     1.0000 0.60670  0.48480  0.93950  Biso   1.000  C
  H178     1.0000 0.58800  0.51410  0.96020  Biso   1.000  H
  N47      1.0000 0.81699  0.59256  0.77442  Biso   1.000  N
  C199     1.0000 0.75367  0.72840  0.03800  Biso   1.000  C
  H179     1.0000 0.73340  0.76050  0.05750  Biso   1.000  H
  H180     1.0000 0.80060  0.72370  0.08880  Biso   1.000  H
  C200     1.0000 0.72300  0.64660  0.01360  Biso   1.000  C
  H181     1.0000 0.67580  0.65050  0.96350  Biso   1.000  H
  H182     1.0000 0.72840  0.62370  0.06480  Biso   1.000  H
  C201     1.0000 0.62181  0.43050  0.85150  Biso   1.000  C
  H183     1.0000 0.61580  0.41430  0.79990  Biso   1.000  H
  C202     1.0000 0.73376  0.58462  0.90340  Biso   1.000  C
  H184     1.0000 0.69390  0.60460  0.85180  Biso   1.000  H
  C203     1.0000 0.72188  0.27700  0.98630  Biso   1.000  C
  H185     1.0000 0.68030  0.25390  0.93510  Biso   1.000  H
  H186     1.0000 0.72020  0.28110  0.03600  Biso   1.000  H
  C204     1.0000 0.87291  0.58260  0.78680  Biso   1.000  C
  H187     1.0000 0.89210  0.53330  0.79390  Biso   1.000  H
  C205     1.0000 0.81491  0.55710  0.04470  Biso   1.000  C
  H188     1.0000 0.84160  0.55440  0.10750  Biso   1.000  H
  C206     1.0000 0.82807  0.52510  0.99250  Biso   1.000  C
  H189     1.0000 0.86570  0.49560  0.01330  Biso   1.000  H
  N48      1.0000 0.89848  0.65220  0.78790  Biso   1.000  N
  C207     1.0000 0.72880  0.35950  0.96130  Biso   1.000  C
  H190     1.0000 0.72990  0.35570  0.91110  Biso   1.000  H
  H191     1.0000 0.77050  0.38270  0.01230  Biso   1.000  H
  C208     1.0000 0.85570  0.71160  0.77200  Biso   1.000  C
  H192     1.0000 0.85990  0.76610  0.76780  Biso   1.000  H
  C209     1.0000 0.80620  0.67350  0.76370  Biso   1.000  C
  H193     1.0000 0.76950  0.69870  0.75230  Biso   1.000  H
  C210     1.0000 0.66440  0.44540  0.99210  Biso   1.000  C
  H194     1.0000 0.69240  0.44180  0.05490  Biso   1.000  H
  C211     1.0000 0.63665  0.79504  0.65953  Biso   1.000  C
  O47      1.0000 0.68621  0.89801  0.76983  Biso   1.000  O
  C212     1.0000 0.59102  0.69176  0.54706  Biso   1.000  C
  H195     1.0000 0.58210  0.67240  0.49450  Biso   1.000  H
  C213     1.0000 0.62201  0.76513  0.58060  Biso   1.000  C
  H196     1.0000 0.63300  0.79440  0.55000  Biso   1.000  H
  C214     1.0000 0.67055  0.87459  0.69840  Biso   1.000  C
  O48      1.0000 0.68115  0.91320  0.65088  Biso   1.000  O
  C215     1.0000 0.96350  0.65890  0.73490  Biso   1.000  C
  H197     1.0000 0.94040  0.61120  0.69990  Biso   1.000  H
  H198     1.0000 0.93930  0.70470  0.69640  Biso   1.000  H
  C216     1.0000 0.96480  0.66160  0.81070  Biso   1.000  C
  H199     1.0000 0.99390  0.61970  0.85250  Biso   1.000  H
  H200     1.0000 0.98370  0.71210  0.84140  Biso   1.000  H
  Zn9      1.0000 0.00000  0.96097  0.25000  Biso   1.000  Zn
  Zn10     1.0000 0.50000  0.46097  0.25000  Biso   1.000  Zn
  Zn11     1.0000 0.00000  0.03903  0.75000  Biso   1.000  Zn
  Zn12     1.0000 0.50000  0.53903  0.75000  Biso   1.000  Zn
