data_image0
_cell_length_a       24.038
_cell_length_b       23.217
_cell_length_c       15.263
_cell_angle_alpha    90
_cell_angle_beta     115.73
_cell_angle_gamma    90

_symmetry_space_group_name_H-M    "P 1"
_symmetry_int_tables_number       1

loop_
  _symmetry_equiv_pos_as_xyz
  'x, y, z'

loop_
  _atom_site_label
  _atom_site_occupancy
  _atom_site_fract_x
  _atom_site_fract_y
  _atom_site_fract_z
  _atom_site_thermal_displace_type
  _atom_site_B_iso_or_equiv
  _atom_site_type_symbol
  C1       1.0000 0.73870  0.38020  0.28270  Biso   1.000  C
  C2       1.0000 0.73270  0.41950  0.36020  Biso   1.000  C
  C3       1.0000 0.76900  0.46760  0.39300  Biso   1.000  C
  H1       1.0000 0.79700  0.47780  0.36670  Biso   1.000  H
  C4       1.0000 0.76460  0.50170  0.46530  Biso   1.000  C
  C5       1.0000 0.72110  0.48720  0.50160  Biso   1.000  C
  H2       1.0000 0.71710  0.51110  0.54920  Biso   1.000  H
  C6       1.0000 0.68520  0.43960  0.46930  Biso   1.000  C
  H3       1.0000 0.65690  0.43010  0.49540  Biso   1.000  H
  C7       1.0000 0.68930  0.40460  0.39810  Biso   1.000  C
  H4       1.0000 0.66380  0.37150  0.37500  Biso   1.000  H
  C8       1.0000 0.80120  0.55640  0.49820  Biso   1.000  C
  C9       1.0000 0.85330  0.73920  0.83020  Biso   1.000  C
  C10      1.0000 0.90620  0.76620  0.91700  Biso   1.000  C
  C11      1.0000 0.96450  0.74140  0.95250  Biso   1.000  C
  H5       1.0000 0.97000  0.70610  0.92570  Biso   1.000  H
  C12      1.0000 0.01460  0.76770  0.02660  Biso   1.000  C
  C13      1.0000 0.00480  0.81850  0.06710  Biso   1.000  C
  H6       1.0000 0.03890  0.83740  0.11680  Biso   1.000  H
  C14      1.0000 0.94630  0.84170  0.03640  Biso   1.000  C
  H7       1.0000 0.94010  0.87500  0.06730  Biso   1.000  H
  C15      1.0000 0.89690  0.81600  0.96020  Biso   1.000  C
  H8       1.0000 0.85670  0.83220  0.93740  Biso   1.000  H
  C16      1.0000 0.07870  0.74320  0.05570  Biso   1.000  C
  C17      1.0000 0.61310  0.76200  0.36540  Biso   1.000  C
  C18      1.0000 0.55490  0.73420  0.30330  Biso   1.000  C
  C19      1.0000 0.55620  0.67450  0.25390  Biso   1.000  C
  H9       1.0000 0.59670  0.66170  0.25690  Biso   1.000  H
  C20      1.0000 0.50300  0.65050  0.18150  Biso   1.000  C
  H10      1.0000 0.50540  0.61330  0.15740  Biso   1.000  H
  C21      1.0000 0.55020  0.67750  0.35450  Biso   1.000  C
  H11      1.0000 0.58480  0.66480  0.41700  Biso   1.000  H
  C22      1.0000 0.95220  0.58680  0.81060  Biso   1.000  C
  H12      1.0000 0.96550  0.62530  0.81120  Biso   1.000  H
  C23      1.0000 0.99550  0.54500  0.86410  Biso   1.000  C
  H13      1.0000 0.03780  0.55500  0.89900  Biso   1.000  H
  C24      1.0000 0.97610  0.48830  0.86600  Biso   1.000  C
  C25      1.0000 0.91570  0.47590  0.81490  Biso   1.000  C
  H14      1.0000 0.90080  0.43810  0.81580  Biso   1.000  H
  C26      1.0000 0.87600  0.51870  0.76140  Biso   1.000  C
  H15      1.0000 0.83390  0.50860  0.72370  Biso   1.000  H
  C27      1.0000 0.02090  0.44570  0.93190  Biso   1.000  C
  H16      1.0000 0.05240  0.46570  0.98920  Biso   1.000  H
  H17      1.0000 0.99910  0.41780  0.95510  Biso   1.000  H
  C28      1.0000 0.05250  0.41360  0.87760  Biso   1.000  C
  H18      1.0000 0.02120  0.39120  0.82320  Biso   1.000  H
  H19      1.0000 0.07130  0.44180  0.84990  Biso   1.000  H
  C29      1.0000 0.10280  0.37250  0.94660  Biso   1.000  C
  H20      1.0000 0.08430  0.34440  0.97520  Biso   1.000  H
  H21      1.0000 0.13470  0.39470  0.00030  Biso   1.000  H
  C30      1.0000 0.13120  0.34170  0.89040  Biso   1.000  C
  C31      1.0000 0.17760  0.36790  0.86800  Biso   1.000  C
  H22      1.0000 0.19240  0.40530  0.89210  Biso   1.000  H
  C32      1.0000 0.20130  0.33920  0.81160  Biso   1.000  C
  H23      1.0000 0.23330  0.35700  0.80050  Biso   1.000  H
  C33      1.0000 0.13570  0.26170  0.79270  Biso   1.000  C
  H24      1.0000 0.12020  0.22480  0.76650  Biso   1.000  H
  C34      1.0000 0.11170  0.28850  0.85150  Biso   1.000  C
  H25      1.0000 0.08120  0.26920  0.86440  Biso   1.000  H
  Co1      1.0000 0.82369  0.63849  0.68548  Biso   1.000  Co
  Co2      1.0000 0.71896  0.73913  0.68669  Biso   1.000  Co
  Co3      1.0000 0.85174  0.65537  0.48761  Biso   1.000  Co
  N1       1.0000 0.89230  0.57390  0.75840  Biso   1.000  N
  N2       1.0000 0.18020  0.28610  0.77130  Biso   1.000  N
  O1       1.0000 0.74970  0.68960  0.59950  Biso   1.000  O
  O2       1.0000 0.77450  0.69440  0.40690  Biso   1.000  O
  O3       1.0000 0.76910  0.40400  0.23990  Biso   1.000  O
  O4       1.0000 0.71400  0.33330  0.26750  Biso   1.000  O
  O5       1.0000 0.79100  0.58670  0.56030  Biso   1.000  O
  O6       1.0000 0.83760  0.57180  0.46190  Biso   1.000  O
  O7       1.0000 0.86500  0.69080  0.80370  Biso   1.000  O
  O8       1.0000 0.80450  0.76670  0.79050  Biso   1.000  O
  O9       1.0000 0.12380  0.77690  0.08970  Biso   1.000  O
  O10      1.0000 0.08090  0.68960  0.03950  Biso   1.000  O
  O11      1.0000 0.65800  0.73020  0.40930  Biso   1.000  O
  O12      1.0000 0.61391  0.81796  0.37220  Biso   1.000  O
  C35      1.0000 0.23870  0.88020  0.28270  Biso   1.000  C
  C36      1.0000 0.23270  0.91950  0.36020  Biso   1.000  C
  C37      1.0000 0.26900  0.96760  0.39300  Biso   1.000  C
  H26      1.0000 0.29700  0.97780  0.36670  Biso   1.000  H
  C38      1.0000 0.26460  0.00170  0.46530  Biso   1.000  C
  C39      1.0000 0.22110  0.98720  0.50160  Biso   1.000  C
  H27      1.0000 0.21710  0.01110  0.54920  Biso   1.000  H
  C40      1.0000 0.18520  0.93960  0.46930  Biso   1.000  C
  H28      1.0000 0.15690  0.93010  0.49540  Biso   1.000  H
  C41      1.0000 0.18930  0.90460  0.39810  Biso   1.000  C
  H29      1.0000 0.16380  0.87150  0.37500  Biso   1.000  H
  C42      1.0000 0.30120  0.05640  0.49820  Biso   1.000  C
  C43      1.0000 0.35330  0.23920  0.83020  Biso   1.000  C
  C44      1.0000 0.40620  0.26620  0.91700  Biso   1.000  C
  C45      1.0000 0.46450  0.24140  0.95250  Biso   1.000  C
  H30      1.0000 0.47000  0.20610  0.92570  Biso   1.000  H
  C46      1.0000 0.51460  0.26770  0.02660  Biso   1.000  C
  C47      1.0000 0.50480  0.31850  0.06710  Biso   1.000  C
  H31      1.0000 0.53890  0.33740  0.11680  Biso   1.000  H
  C48      1.0000 0.44630  0.34170  0.03640  Biso   1.000  C
  H32      1.0000 0.44010  0.37500  0.06730  Biso   1.000  H
  C49      1.0000 0.39690  0.31600  0.96020  Biso   1.000  C
  H33      1.0000 0.35670  0.33220  0.93740  Biso   1.000  H
  C50      1.0000 0.57870  0.24320  0.05570  Biso   1.000  C
  C51      1.0000 0.11310  0.26200  0.36540  Biso   1.000  C
  C52      1.0000 0.05490  0.23420  0.30330  Biso   1.000  C
  C53      1.0000 0.05620  0.17450  0.25390  Biso   1.000  C
  H34      1.0000 0.09670  0.16170  0.25690  Biso   1.000  H
  C54      1.0000 0.00300  0.15050  0.18150  Biso   1.000  C
  H35      1.0000 0.00540  0.11330  0.15740  Biso   1.000  H
  C55      1.0000 0.05020  0.17750  0.35450  Biso   1.000  C
  H36      1.0000 0.08480  0.16480  0.41700  Biso   1.000  H
  C56      1.0000 0.45220  0.08680  0.81060  Biso   1.000  C
  H37      1.0000 0.46550  0.12530  0.81120  Biso   1.000  H
  C57      1.0000 0.49550  0.04500  0.86410  Biso   1.000  C
  H38      1.0000 0.53780  0.05500  0.89900  Biso   1.000  H
  C58      1.0000 0.47610  0.98830  0.86600  Biso   1.000  C
  C59      1.0000 0.41570  0.97590  0.81490  Biso   1.000  C
  H39      1.0000 0.40080  0.93810  0.81580  Biso   1.000  H
  C60      1.0000 0.37600  0.01870  0.76140  Biso   1.000  C
  H40      1.0000 0.33390  0.00860  0.72370  Biso   1.000  H
  C61      1.0000 0.52090  0.94570  0.93190  Biso   1.000  C
  H41      1.0000 0.55240  0.96570  0.98920  Biso   1.000  H
  H42      1.0000 0.49910  0.91780  0.95510  Biso   1.000  H
  C62      1.0000 0.55250  0.91360  0.87760  Biso   1.000  C
  H43      1.0000 0.52120  0.89120  0.82320  Biso   1.000  H
  H44      1.0000 0.57130  0.94180  0.84990  Biso   1.000  H
  C63      1.0000 0.60280  0.87250  0.94660  Biso   1.000  C
  H45      1.0000 0.58430  0.84440  0.97520  Biso   1.000  H
  H46      1.0000 0.63470  0.89470  0.00030  Biso   1.000  H
  C64      1.0000 0.63120  0.84170  0.89040  Biso   1.000  C
  C65      1.0000 0.67760  0.86790  0.86800  Biso   1.000  C
  H47      1.0000 0.69240  0.90530  0.89210  Biso   1.000  H
  C66      1.0000 0.70130  0.83920  0.81160  Biso   1.000  C
  H48      1.0000 0.73330  0.85700  0.80050  Biso   1.000  H
  C67      1.0000 0.63570  0.76170  0.79270  Biso   1.000  C
  H49      1.0000 0.62020  0.72480  0.76650  Biso   1.000  H
  C68      1.0000 0.61170  0.78850  0.85150  Biso   1.000  C
  H50      1.0000 0.58120  0.76920  0.86440  Biso   1.000  H
  Co4      1.0000 0.32369  0.13849  0.68548  Biso   1.000  Co
  Co5      1.0000 0.21896  0.23913  0.68669  Biso   1.000  Co
  Co6      1.0000 0.35174  0.15537  0.48761  Biso   1.000  Co
  N3       1.0000 0.39230  0.07390  0.75840  Biso   1.000  N
  N4       1.0000 0.68020  0.78610  0.77130  Biso   1.000  N
  O13      1.0000 0.24970  0.18960  0.59950  Biso   1.000  O
  O14      1.0000 0.27450  0.19440  0.40690  Biso   1.000  O
  O15      1.0000 0.26910  0.90400  0.23990  Biso   1.000  O
  O16      1.0000 0.21400  0.83330  0.26750  Biso   1.000  O
  O17      1.0000 0.29100  0.08670  0.56030  Biso   1.000  O
  O18      1.0000 0.33760  0.07180  0.46190  Biso   1.000  O
  O19      1.0000 0.36500  0.19080  0.80370  Biso   1.000  O
  O20      1.0000 0.30450  0.26670  0.79050  Biso   1.000  O
  O21      1.0000 0.62380  0.27690  0.08970  Biso   1.000  O
  O22      1.0000 0.58090  0.18960  0.03950  Biso   1.000  O
  O23      1.0000 0.15800  0.23020  0.40930  Biso   1.000  O
  O24      1.0000 0.11391  0.31796  0.37220  Biso   1.000  O
  C69      1.0000 0.26130  0.38020  0.21730  Biso   1.000  C
  C70      1.0000 0.26730  0.41950  0.13980  Biso   1.000  C
  C71      1.0000 0.23100  0.46760  0.10700  Biso   1.000  C
  H51      1.0000 0.20300  0.47780  0.13330  Biso   1.000  H
  C72      1.0000 0.23540  0.50170  0.03470  Biso   1.000  C
  C73      1.0000 0.27890  0.48720  0.99840  Biso   1.000  C
  H52      1.0000 0.28290  0.51110  0.95080  Biso   1.000  H
  C74      1.0000 0.31480  0.43960  0.03070  Biso   1.000  C
  H53      1.0000 0.34310  0.43010  0.00460  Biso   1.000  H
  C75      1.0000 0.31070  0.40460  0.10190  Biso   1.000  C
  H54      1.0000 0.33620  0.37150  0.12500  Biso   1.000  H
  C76      1.0000 0.19880  0.55640  0.00180  Biso   1.000  C
  C77      1.0000 0.14670  0.73920  0.66980  Biso   1.000  C
  C78      1.0000 0.09380  0.76620  0.58300  Biso   1.000  C
  C79      1.0000 0.03550  0.74140  0.54750  Biso   1.000  C
  H55      1.0000 0.03000  0.70610  0.57430  Biso   1.000  H
  C80      1.0000 0.98540  0.76770  0.47340  Biso   1.000  C
  C81      1.0000 0.99520  0.81850  0.43290  Biso   1.000  C
  H56      1.0000 0.96110  0.83740  0.38320  Biso   1.000  H
  C82      1.0000 0.05370  0.84170  0.46360  Biso   1.000  C
  H57      1.0000 0.05990  0.87500  0.43270  Biso   1.000  H
  C83      1.0000 0.10310  0.81600  0.53980  Biso   1.000  C
  H58      1.0000 0.14330  0.83220  0.56260  Biso   1.000  H
  C84      1.0000 0.92130  0.74320  0.44430  Biso   1.000  C
  C85      1.0000 0.38690  0.76200  0.13460  Biso   1.000  C
  C86      1.0000 0.44510  0.73420  0.19670  Biso   1.000  C
  C87      1.0000 0.44380  0.67450  0.24610  Biso   1.000  C
  H59      1.0000 0.40330  0.66170  0.24310  Biso   1.000  H
  C88      1.0000 0.49700  0.65050  0.31850  Biso   1.000  C
  H60      1.0000 0.49460  0.61330  0.34260  Biso   1.000  H
  C89      1.0000 0.44980  0.67750  0.14550  Biso   1.000  C
  H61      1.0000 0.41520  0.66480  0.08300  Biso   1.000  H
  C90      1.0000 0.04780  0.58680  0.68940  Biso   1.000  C
  H62      1.0000 0.03450  0.62530  0.68880  Biso   1.000  H
  C91      1.0000 0.00450  0.54500  0.63590  Biso   1.000  C
  H63      1.0000 0.96220  0.55500  0.60100  Biso   1.000  H
  C92      1.0000 0.02390  0.48830  0.63400  Biso   1.000  C
  C93      1.0000 0.08430  0.47590  0.68510  Biso   1.000  C
  H64      1.0000 0.09920  0.43810  0.68420  Biso   1.000  H
  C94      1.0000 0.12400  0.51870  0.73860  Biso   1.000  C
  H65      1.0000 0.16610  0.50860  0.77630  Biso   1.000  H
  C95      1.0000 0.97910  0.44570  0.56810  Biso   1.000  C
  H66      1.0000 0.94760  0.46570  0.51080  Biso   1.000  H
  H67      1.0000 0.00090  0.41780  0.54490  Biso   1.000  H
  C96      1.0000 0.94750  0.41360  0.62240  Biso   1.000  C
  H68      1.0000 0.97880  0.39120  0.67680  Biso   1.000  H
  H69      1.0000 0.92870  0.44180  0.65010  Biso   1.000  H
  C97      1.0000 0.89720  0.37250  0.55340  Biso   1.000  C
  H70      1.0000 0.91570  0.34440  0.52480  Biso   1.000  H
  H71      1.0000 0.86530  0.39470  0.49970  Biso   1.000  H
  C98      1.0000 0.86880  0.34170  0.60960  Biso   1.000  C
  C99      1.0000 0.82240  0.36790  0.63200  Biso   1.000  C
  H72      1.0000 0.80760  0.40530  0.60790  Biso   1.000  H
  C100     1.0000 0.79870  0.33920  0.68840  Biso   1.000  C
  H73      1.0000 0.76670  0.35700  0.69950  Biso   1.000  H
  C101     1.0000 0.86430  0.26170  0.70730  Biso   1.000  C
  H74      1.0000 0.87980  0.22480  0.73350  Biso   1.000  H
  C102     1.0000 0.88830  0.28850  0.64850  Biso   1.000  C
  H75      1.0000 0.91880  0.26920  0.63560  Biso   1.000  H
  Co7      1.0000 0.17631  0.63849  0.81452  Biso   1.000  Co
  Co8      1.0000 0.28104  0.73913  0.81331  Biso   1.000  Co
  Co9      1.0000 0.14826  0.65537  0.01239  Biso   1.000  Co
  N5       1.0000 0.10770  0.57390  0.74160  Biso   1.000  N
  N6       1.0000 0.81980  0.28610  0.72870  Biso   1.000  N
  O25      1.0000 0.25030  0.68960  0.90050  Biso   1.000  O
  O26      1.0000 0.22550  0.69440  0.09310  Biso   1.000  O
  O27      1.0000 0.23090  0.40400  0.26010  Biso   1.000  O
  O28      1.0000 0.28600  0.33330  0.23250  Biso   1.000  O
  O29      1.0000 0.20900  0.58670  0.93970  Biso   1.000  O
  O30      1.0000 0.16240  0.57180  0.03810  Biso   1.000  O
  O31      1.0000 0.13500  0.69080  0.69630  Biso   1.000  O
  O32      1.0000 0.19550  0.76670  0.70950  Biso   1.000  O
  O33      1.0000 0.87620  0.77690  0.41030  Biso   1.000  O
  O34      1.0000 0.91910  0.68960  0.46050  Biso   1.000  O
  O35      1.0000 0.34200  0.73020  0.09070  Biso   1.000  O
  O36      1.0000 0.38609  0.81796  0.12780  Biso   1.000  O
  C103     1.0000 0.76130  0.88020  0.21730  Biso   1.000  C
  C104     1.0000 0.76730  0.91950  0.13980  Biso   1.000  C
  C105     1.0000 0.73100  0.96760  0.10700  Biso   1.000  C
  H76      1.0000 0.70300  0.97780  0.13330  Biso   1.000  H
  C106     1.0000 0.73540  0.00170  0.03470  Biso   1.000  C
  C107     1.0000 0.77890  0.98720  0.99840  Biso   1.000  C
  H77      1.0000 0.78290  0.01110  0.95080  Biso   1.000  H
  C108     1.0000 0.81480  0.93960  0.03070  Biso   1.000  C
  H78      1.0000 0.84310  0.93010  0.00460  Biso   1.000  H
  C109     1.0000 0.81070  0.90460  0.10190  Biso   1.000  C
  H79      1.0000 0.83620  0.87150  0.12500  Biso   1.000  H
  C110     1.0000 0.69880  0.05640  0.00180  Biso   1.000  C
  C111     1.0000 0.64670  0.23920  0.66980  Biso   1.000  C
  C112     1.0000 0.59380  0.26620  0.58300  Biso   1.000  C
  C113     1.0000 0.53550  0.24140  0.54750  Biso   1.000  C
  H80      1.0000 0.53000  0.20610  0.57430  Biso   1.000  H
  C114     1.0000 0.48540  0.26770  0.47340  Biso   1.000  C
  C115     1.0000 0.49520  0.31850  0.43290  Biso   1.000  C
  H81      1.0000 0.46110  0.33740  0.38320  Biso   1.000  H
  C116     1.0000 0.55370  0.34170  0.46360  Biso   1.000  C
  H82      1.0000 0.55990  0.37500  0.43270  Biso   1.000  H
  C117     1.0000 0.60310  0.31600  0.53980  Biso   1.000  C
  H83      1.0000 0.64330  0.33220  0.56260  Biso   1.000  H
  C118     1.0000 0.42130  0.24320  0.44430  Biso   1.000  C
  C119     1.0000 0.88690  0.26200  0.13460  Biso   1.000  C
  C120     1.0000 0.94510  0.23420  0.19670  Biso   1.000  C
  C121     1.0000 0.94380  0.17450  0.24610  Biso   1.000  C
  H84      1.0000 0.90330  0.16170  0.24310  Biso   1.000  H
  C122     1.0000 0.99700  0.15050  0.31850  Biso   1.000  C
  H85      1.0000 0.99460  0.11330  0.34260  Biso   1.000  H
  C123     1.0000 0.94980  0.17750  0.14550  Biso   1.000  C
  H86      1.0000 0.91520  0.16480  0.08300  Biso   1.000  H
  C124     1.0000 0.54780  0.08680  0.68940  Biso   1.000  C
  H87      1.0000 0.53450  0.12530  0.68880  Biso   1.000  H
  C125     1.0000 0.50450  0.04500  0.63590  Biso   1.000  C
  H88      1.0000 0.46220  0.05500  0.60100  Biso   1.000  H
  C126     1.0000 0.52390  0.98830  0.63400  Biso   1.000  C
  C127     1.0000 0.58430  0.97590  0.68510  Biso   1.000  C
  H89      1.0000 0.59920  0.93810  0.68420  Biso   1.000  H
  C128     1.0000 0.62400  0.01870  0.73860  Biso   1.000  C
  H90      1.0000 0.66610  0.00860  0.77630  Biso   1.000  H
  C129     1.0000 0.47910  0.94570  0.56810  Biso   1.000  C
  H91      1.0000 0.44760  0.96570  0.51080  Biso   1.000  H
  H92      1.0000 0.50090  0.91780  0.54490  Biso   1.000  H
  C130     1.0000 0.44750  0.91360  0.62240  Biso   1.000  C
  H93      1.0000 0.47880  0.89120  0.67680  Biso   1.000  H
  H94      1.0000 0.42870  0.94180  0.65010  Biso   1.000  H
  C131     1.0000 0.39720  0.87250  0.55340  Biso   1.000  C
  H95      1.0000 0.41570  0.84440  0.52480  Biso   1.000  H
  H96      1.0000 0.36530  0.89470  0.49970  Biso   1.000  H
  C132     1.0000 0.36880  0.84170  0.60960  Biso   1.000  C
  C133     1.0000 0.32240  0.86790  0.63200  Biso   1.000  C
  H97      1.0000 0.30760  0.90530  0.60790  Biso   1.000  H
  C134     1.0000 0.29870  0.83920  0.68840  Biso   1.000  C
  H98      1.0000 0.26670  0.85700  0.69950  Biso   1.000  H
  C135     1.0000 0.36430  0.76170  0.70730  Biso   1.000  C
  H99      1.0000 0.37980  0.72480  0.73350  Biso   1.000  H
  C136     1.0000 0.38830  0.78850  0.64850  Biso   1.000  C
  H100     1.0000 0.41880  0.76920  0.63560  Biso   1.000  H
  Co10     1.0000 0.67631  0.13849  0.81452  Biso   1.000  Co
  Co11     1.0000 0.78104  0.23913  0.81331  Biso   1.000  Co
  Co12     1.0000 0.64826  0.15537  0.01239  Biso   1.000  Co
  N7       1.0000 0.60770  0.07390  0.74160  Biso   1.000  N
  N8       1.0000 0.31980  0.78610  0.72870  Biso   1.000  N
  O37      1.0000 0.75030  0.18960  0.90050  Biso   1.000  O
  O38      1.0000 0.72550  0.19440  0.09310  Biso   1.000  O
  O39      1.0000 0.73090  0.90400  0.26010  Biso   1.000  O
  O40      1.0000 0.78600  0.83330  0.23250  Biso   1.000  O
  O41      1.0000 0.70900  0.08670  0.93970  Biso   1.000  O
  O42      1.0000 0.66240  0.07180  0.03810  Biso   1.000  O
  O43      1.0000 0.63500  0.19080  0.69630  Biso   1.000  O
  O44      1.0000 0.69550  0.26670  0.70950  Biso   1.000  O
  O45      1.0000 0.37620  0.27690  0.41030  Biso   1.000  O
  O46      1.0000 0.41910  0.18960  0.46050  Biso   1.000  O
  O47      1.0000 0.84200  0.23020  0.09070  Biso   1.000  O
  O48      1.0000 0.88609  0.31796  0.12780  Biso   1.000  O
  C137     1.0000 0.26130  0.61980  0.71730  Biso   1.000  C
  C138     1.0000 0.26730  0.58050  0.63980  Biso   1.000  C
  C139     1.0000 0.23100  0.53240  0.60700  Biso   1.000  C
  H101     1.0000 0.20300  0.52220  0.63330  Biso   1.000  H
  C140     1.0000 0.23540  0.49830  0.53470  Biso   1.000  C
  C141     1.0000 0.27890  0.51280  0.49840  Biso   1.000  C
  H102     1.0000 0.28290  0.48890  0.45080  Biso   1.000  H
  C142     1.0000 0.31480  0.56040  0.53070  Biso   1.000  C
  H103     1.0000 0.34310  0.56990  0.50460  Biso   1.000  H
  C143     1.0000 0.31070  0.59540  0.60190  Biso   1.000  C
  H104     1.0000 0.33620  0.62850  0.62500  Biso   1.000  H
  C144     1.0000 0.19880  0.44360  0.50180  Biso   1.000  C
  C145     1.0000 0.14670  0.26080  0.16980  Biso   1.000  C
  C146     1.0000 0.09380  0.23380  0.08300  Biso   1.000  C
  C147     1.0000 0.03550  0.25860  0.04750  Biso   1.000  C
  H105     1.0000 0.03000  0.29390  0.07430  Biso   1.000  H
  C148     1.0000 0.98540  0.23230  0.97340  Biso   1.000  C
  C149     1.0000 0.99520  0.18150  0.93290  Biso   1.000  C
  H106     1.0000 0.96110  0.16260  0.88320  Biso   1.000  H
  C150     1.0000 0.05370  0.15830  0.96360  Biso   1.000  C
  H107     1.0000 0.05990  0.12500  0.93270  Biso   1.000  H
  C151     1.0000 0.10310  0.18400  0.03980  Biso   1.000  C
  H108     1.0000 0.14330  0.16780  0.06260  Biso   1.000  H
  C152     1.0000 0.92130  0.25680  0.94430  Biso   1.000  C
  C153     1.0000 0.38690  0.23800  0.63460  Biso   1.000  C
  C154     1.0000 0.44510  0.26580  0.69670  Biso   1.000  C
  C155     1.0000 0.44380  0.32550  0.74610  Biso   1.000  C
  H109     1.0000 0.40330  0.33830  0.74310  Biso   1.000  H
  C156     1.0000 0.49700  0.34950  0.81850  Biso   1.000  C
  H110     1.0000 0.49460  0.38670  0.84260  Biso   1.000  H
  C157     1.0000 0.44980  0.32250  0.64550  Biso   1.000  C
  H111     1.0000 0.41520  0.33520  0.58300  Biso   1.000  H
  C158     1.0000 0.04780  0.41320  0.18940  Biso   1.000  C
  H112     1.0000 0.03450  0.37470  0.18880  Biso   1.000  H
  C159     1.0000 0.00450  0.45500  0.13590  Biso   1.000  C
  H113     1.0000 0.96220  0.44500  0.10100  Biso   1.000  H
  C160     1.0000 0.02390  0.51170  0.13400  Biso   1.000  C
  C161     1.0000 0.08430  0.52410  0.18510  Biso   1.000  C
  H114     1.0000 0.09920  0.56190  0.18420  Biso   1.000  H
  C162     1.0000 0.12400  0.48130  0.23860  Biso   1.000  C
  H115     1.0000 0.16610  0.49140  0.27630  Biso   1.000  H
  C163     1.0000 0.97910  0.55430  0.06810  Biso   1.000  C
  H116     1.0000 0.94760  0.53430  0.01080  Biso   1.000  H
  H117     1.0000 0.00090  0.58220  0.04490  Biso   1.000  H
  C164     1.0000 0.94750  0.58640  0.12240  Biso   1.000  C
  H118     1.0000 0.97880  0.60880  0.17680  Biso   1.000  H
  H119     1.0000 0.92870  0.55820  0.15010  Biso   1.000  H
  C165     1.0000 0.89720  0.62750  0.05340  Biso   1.000  C
  H120     1.0000 0.91570  0.65560  0.02480  Biso   1.000  H
  H121     1.0000 0.86530  0.60530  0.99970  Biso   1.000  H
  C166     1.0000 0.86880  0.65830  0.10960  Biso   1.000  C
  C167     1.0000 0.82240  0.63210  0.13200  Biso   1.000  C
  H122     1.0000 0.80760  0.59470  0.10790  Biso   1.000  H
  C168     1.0000 0.79870  0.66080  0.18840  Biso   1.000  C
  H123     1.0000 0.76670  0.64300  0.19950  Biso   1.000  H
  C169     1.0000 0.86430  0.73830  0.20730  Biso   1.000  C
  H124     1.0000 0.87980  0.77520  0.23350  Biso   1.000  H
  C170     1.0000 0.88830  0.71150  0.14850  Biso   1.000  C
  H125     1.0000 0.91880  0.73080  0.13560  Biso   1.000  H
  Co13     1.0000 0.17631  0.36151  0.31452  Biso   1.000  Co
  Co14     1.0000 0.28104  0.26087  0.31331  Biso   1.000  Co
  Co15     1.0000 0.14826  0.34463  0.51239  Biso   1.000  Co
  N9       1.0000 0.10770  0.42610  0.24160  Biso   1.000  N
  N10      1.0000 0.81980  0.71390  0.22870  Biso   1.000  N
  O49      1.0000 0.25030  0.31040  0.40050  Biso   1.000  O
  O50      1.0000 0.22550  0.30560  0.59310  Biso   1.000  O
  O51      1.0000 0.23090  0.59600  0.76010  Biso   1.000  O
  O52      1.0000 0.28600  0.66670  0.73250  Biso   1.000  O
  O53      1.0000 0.20900  0.41330  0.43970  Biso   1.000  O
  O54      1.0000 0.16240  0.42820  0.53810  Biso   1.000  O
  O55      1.0000 0.13500  0.30920  0.19630  Biso   1.000  O
  O56      1.0000 0.19550  0.23330  0.20950  Biso   1.000  O
  O57      1.0000 0.87620  0.22310  0.91030  Biso   1.000  O
  O58      1.0000 0.91910  0.31040  0.96050  Biso   1.000  O
  O59      1.0000 0.34200  0.26980  0.59070  Biso   1.000  O
  O60      1.0000 0.38609  0.18204  0.62780  Biso   1.000  O
  C171     1.0000 0.76130  0.11980  0.71730  Biso   1.000  C
  C172     1.0000 0.76730  0.08050  0.63980  Biso   1.000  C
  C173     1.0000 0.73100  0.03240  0.60700  Biso   1.000  C
  H126     1.0000 0.70300  0.02220  0.63330  Biso   1.000  H
  C174     1.0000 0.73540  0.99830  0.53470  Biso   1.000  C
  C175     1.0000 0.77890  0.01280  0.49840  Biso   1.000  C
  H127     1.0000 0.78290  0.98890  0.45080  Biso   1.000  H
  C176     1.0000 0.81480  0.06040  0.53070  Biso   1.000  C
  H128     1.0000 0.84310  0.06990  0.50460  Biso   1.000  H
  C177     1.0000 0.81070  0.09540  0.60190  Biso   1.000  C
  H129     1.0000 0.83620  0.12850  0.62500  Biso   1.000  H
  C178     1.0000 0.69880  0.94360  0.50180  Biso   1.000  C
  C179     1.0000 0.64670  0.76080  0.16980  Biso   1.000  C
  C180     1.0000 0.59380  0.73380  0.08300  Biso   1.000  C
  C181     1.0000 0.53550  0.75860  0.04750  Biso   1.000  C
  H130     1.0000 0.53000  0.79390  0.07430  Biso   1.000  H
  C182     1.0000 0.48540  0.73230  0.97340  Biso   1.000  C
  C183     1.0000 0.49520  0.68150  0.93290  Biso   1.000  C
  H131     1.0000 0.46110  0.66260  0.88320  Biso   1.000  H
  C184     1.0000 0.55370  0.65830  0.96360  Biso   1.000  C
  H132     1.0000 0.55990  0.62500  0.93270  Biso   1.000  H
  C185     1.0000 0.60310  0.68400  0.03980  Biso   1.000  C
  H133     1.0000 0.64330  0.66780  0.06260  Biso   1.000  H
  C186     1.0000 0.42130  0.75680  0.94430  Biso   1.000  C
  C187     1.0000 0.88690  0.73800  0.63460  Biso   1.000  C
  C188     1.0000 0.94510  0.76580  0.69670  Biso   1.000  C
  C189     1.0000 0.94380  0.82550  0.74610  Biso   1.000  C
  H134     1.0000 0.90330  0.83830  0.74310  Biso   1.000  H
  C190     1.0000 0.99700  0.84950  0.81850  Biso   1.000  C
  H135     1.0000 0.99460  0.88670  0.84260  Biso   1.000  H
  C191     1.0000 0.94980  0.82250  0.64550  Biso   1.000  C
  H136     1.0000 0.91520  0.83520  0.58300  Biso   1.000  H
  C192     1.0000 0.54780  0.91320  0.18940  Biso   1.000  C
  H137     1.0000 0.53450  0.87470  0.18880  Biso   1.000  H
  C193     1.0000 0.50450  0.95500  0.13590  Biso   1.000  C
  H138     1.0000 0.46220  0.94500  0.10100  Biso   1.000  H
  C194     1.0000 0.52390  0.01170  0.13400  Biso   1.000  C
  C195     1.0000 0.58430  0.02410  0.18510  Biso   1.000  C
  H139     1.0000 0.59920  0.06190  0.18420  Biso   1.000  H
  C196     1.0000 0.62400  0.98130  0.23860  Biso   1.000  C
  H140     1.0000 0.66610  0.99140  0.27630  Biso   1.000  H
  C197     1.0000 0.47910  0.05430  0.06810  Biso   1.000  C
  H141     1.0000 0.44760  0.03430  0.01080  Biso   1.000  H
  H142     1.0000 0.50090  0.08220  0.04490  Biso   1.000  H
  C198     1.0000 0.44750  0.08640  0.12240  Biso   1.000  C
  H143     1.0000 0.47880  0.10880  0.17680  Biso   1.000  H
  H144     1.0000 0.42870  0.05820  0.15010  Biso   1.000  H
  C199     1.0000 0.39720  0.12750  0.05340  Biso   1.000  C
  H145     1.0000 0.41570  0.15560  0.02480  Biso   1.000  H
  H146     1.0000 0.36530  0.10530  0.99970  Biso   1.000  H
  C200     1.0000 0.36880  0.15830  0.10960  Biso   1.000  C
  C201     1.0000 0.32240  0.13210  0.13200  Biso   1.000  C
  H147     1.0000 0.30760  0.09470  0.10790  Biso   1.000  H
  C202     1.0000 0.29870  0.16080  0.18840  Biso   1.000  C
  H148     1.0000 0.26670  0.14300  0.19950  Biso   1.000  H
  C203     1.0000 0.36430  0.23830  0.20730  Biso   1.000  C
  H149     1.0000 0.37980  0.27520  0.23350  Biso   1.000  H
  C204     1.0000 0.38830  0.21150  0.14850  Biso   1.000  C
  H150     1.0000 0.41880  0.23080  0.13560  Biso   1.000  H
  Co16     1.0000 0.67631  0.86151  0.31452  Biso   1.000  Co
  Co17     1.0000 0.78104  0.76087  0.31331  Biso   1.000  Co
  Co18     1.0000 0.64826  0.84463  0.51239  Biso   1.000  Co
  N11      1.0000 0.60770  0.92610  0.24160  Biso   1.000  N
  N12      1.0000 0.31980  0.21390  0.22870  Biso   1.000  N
  O61      1.0000 0.75030  0.81040  0.40050  Biso   1.000  O
  O62      1.0000 0.72550  0.80560  0.59310  Biso   1.000  O
  O63      1.0000 0.73090  0.09600  0.76010  Biso   1.000  O
  O64      1.0000 0.78600  0.16670  0.73250  Biso   1.000  O
  O65      1.0000 0.70900  0.91330  0.43970  Biso   1.000  O
  O66      1.0000 0.66240  0.92820  0.53810  Biso   1.000  O
  O67      1.0000 0.63500  0.80920  0.19630  Biso   1.000  O
  O68      1.0000 0.69550  0.73330  0.20950  Biso   1.000  O
  O69      1.0000 0.37620  0.72310  0.91030  Biso   1.000  O
  O70      1.0000 0.41910  0.81040  0.96050  Biso   1.000  O
  O71      1.0000 0.84200  0.76980  0.59070  Biso   1.000  O
  O72      1.0000 0.88609  0.68204  0.62780  Biso   1.000  O
  C205     1.0000 0.73870  0.61980  0.78270  Biso   1.000  C
  C206     1.0000 0.73270  0.58050  0.86020  Biso   1.000  C
  C207     1.0000 0.76900  0.53240  0.89300  Biso   1.000  C
  H151     1.0000 0.79700  0.52220  0.86670  Biso   1.000  H
  C208     1.0000 0.76460  0.49830  0.96530  Biso   1.000  C
  C209     1.0000 0.72110  0.51280  0.00160  Biso   1.000  C
  H152     1.0000 0.71710  0.48890  0.04920  Biso   1.000  H
  C210     1.0000 0.68520  0.56040  0.96930  Biso   1.000  C
  H153     1.0000 0.65690  0.56990  0.99540  Biso   1.000  H
  C211     1.0000 0.68930  0.59540  0.89810  Biso   1.000  C
  H154     1.0000 0.66380  0.62850  0.87500  Biso   1.000  H
  C212     1.0000 0.80120  0.44360  0.99820  Biso   1.000  C
  C213     1.0000 0.85330  0.26080  0.33020  Biso   1.000  C
  C214     1.0000 0.90620  0.23380  0.41700  Biso   1.000  C
  C215     1.0000 0.96450  0.25860  0.45250  Biso   1.000  C
  H155     1.0000 0.97000  0.29390  0.42570  Biso   1.000  H
  C216     1.0000 0.01460  0.23230  0.52660  Biso   1.000  C
  C217     1.0000 0.00480  0.18150  0.56710  Biso   1.000  C
  H156     1.0000 0.03890  0.16260  0.61680  Biso   1.000  H
  C218     1.0000 0.94630  0.15830  0.53640  Biso   1.000  C
  H157     1.0000 0.94010  0.12500  0.56730  Biso   1.000  H
  C219     1.0000 0.89690  0.18400  0.46020  Biso   1.000  C
  H158     1.0000 0.85670  0.16780  0.43740  Biso   1.000  H
  C220     1.0000 0.07870  0.25680  0.55570  Biso   1.000  C
  C221     1.0000 0.61310  0.23800  0.86540  Biso   1.000  C
  C222     1.0000 0.55490  0.26580  0.80330  Biso   1.000  C
  C223     1.0000 0.55620  0.32550  0.75390  Biso   1.000  C
  H159     1.0000 0.59670  0.33830  0.75690  Biso   1.000  H
  C224     1.0000 0.50300  0.34950  0.68150  Biso   1.000  C
  H160     1.0000 0.50540  0.38670  0.65740  Biso   1.000  H
  C225     1.0000 0.55020  0.32250  0.85450  Biso   1.000  C
  H161     1.0000 0.58480  0.33520  0.91700  Biso   1.000  H
  C226     1.0000 0.95220  0.41320  0.31060  Biso   1.000  C
  H162     1.0000 0.96550  0.37470  0.31120  Biso   1.000  H
  C227     1.0000 0.99550  0.45500  0.36410  Biso   1.000  C
  H163     1.0000 0.03780  0.44500  0.39900  Biso   1.000  H
  C228     1.0000 0.97610  0.51170  0.36600  Biso   1.000  C
  C229     1.0000 0.91570  0.52410  0.31490  Biso   1.000  C
  H164     1.0000 0.90080  0.56190  0.31580  Biso   1.000  H
  C230     1.0000 0.87600  0.48130  0.26140  Biso   1.000  C
  H165     1.0000 0.83390  0.49140  0.22370  Biso   1.000  H
  C231     1.0000 0.02090  0.55430  0.43190  Biso   1.000  C
  H166     1.0000 0.05240  0.53430  0.48920  Biso   1.000  H
  H167     1.0000 0.99910  0.58220  0.45510  Biso   1.000  H
  C232     1.0000 0.05250  0.58640  0.37760  Biso   1.000  C
  H168     1.0000 0.02120  0.60880  0.32320  Biso   1.000  H
  H169     1.0000 0.07130  0.55820  0.34990  Biso   1.000  H
  C233     1.0000 0.10280  0.62750  0.44660  Biso   1.000  C
  H170     1.0000 0.08430  0.65560  0.47520  Biso   1.000  H
  H171     1.0000 0.13470  0.60530  0.50030  Biso   1.000  H
  C234     1.0000 0.13120  0.65830  0.39040  Biso   1.000  C
  C235     1.0000 0.17760  0.63210  0.36800  Biso   1.000  C
  H172     1.0000 0.19240  0.59470  0.39210  Biso   1.000  H
  C236     1.0000 0.20130  0.66080  0.31160  Biso   1.000  C
  H173     1.0000 0.23330  0.64300  0.30050  Biso   1.000  H
  C237     1.0000 0.13570  0.73830  0.29270  Biso   1.000  C
  H174     1.0000 0.12020  0.77520  0.26650  Biso   1.000  H
  C238     1.0000 0.11170  0.71150  0.35150  Biso   1.000  C
  H175     1.0000 0.08120  0.73080  0.36440  Biso   1.000  H
  Co19     1.0000 0.82369  0.36151  0.18548  Biso   1.000  Co
  Co20     1.0000 0.71896  0.26087  0.18669  Biso   1.000  Co
  Co21     1.0000 0.85174  0.34463  0.98761  Biso   1.000  Co
  N13      1.0000 0.89230  0.42610  0.25840  Biso   1.000  N
  N14      1.0000 0.18020  0.71390  0.27130  Biso   1.000  N
  O73      1.0000 0.74970  0.31040  0.09950  Biso   1.000  O
  O74      1.0000 0.77450  0.30560  0.90690  Biso   1.000  O
  O75      1.0000 0.76910  0.59600  0.73990  Biso   1.000  O
  O76      1.0000 0.71400  0.66670  0.76750  Biso   1.000  O
  O77      1.0000 0.79100  0.41330  0.06030  Biso   1.000  O
  O78      1.0000 0.83760  0.42820  0.96190  Biso   1.000  O
  O79      1.0000 0.86500  0.30920  0.30370  Biso   1.000  O
  O80      1.0000 0.80450  0.23330  0.29050  Biso   1.000  O
  O81      1.0000 0.12380  0.22310  0.58970  Biso   1.000  O
  O82      1.0000 0.08090  0.31040  0.53950  Biso   1.000  O
  O83      1.0000 0.65800  0.26980  0.90930  Biso   1.000  O
  O84      1.0000 0.61391  0.18204  0.87220  Biso   1.000  O
  C239     1.0000 0.23870  0.11980  0.78270  Biso   1.000  C
  C240     1.0000 0.23270  0.08050  0.86020  Biso   1.000  C
  C241     1.0000 0.26900  0.03240  0.89300  Biso   1.000  C
  H176     1.0000 0.29700  0.02220  0.86670  Biso   1.000  H
  C242     1.0000 0.26460  0.99830  0.96530  Biso   1.000  C
  C243     1.0000 0.22110  0.01280  0.00160  Biso   1.000  C
  H177     1.0000 0.21710  0.98890  0.04920  Biso   1.000  H
  C244     1.0000 0.18520  0.06040  0.96930  Biso   1.000  C
  H178     1.0000 0.15690  0.06990  0.99540  Biso   1.000  H
  C245     1.0000 0.18930  0.09540  0.89810  Biso   1.000  C
  H179     1.0000 0.16380  0.12850  0.87500  Biso   1.000  H
  C246     1.0000 0.30120  0.94360  0.99820  Biso   1.000  C
  C247     1.0000 0.35330  0.76080  0.33020  Biso   1.000  C
  C248     1.0000 0.40620  0.73380  0.41700  Biso   1.000  C
  C249     1.0000 0.46450  0.75860  0.45250  Biso   1.000  C
  H180     1.0000 0.47000  0.79390  0.42570  Biso   1.000  H
  C250     1.0000 0.51460  0.73230  0.52660  Biso   1.000  C
  C251     1.0000 0.50480  0.68150  0.56710  Biso   1.000  C
  H181     1.0000 0.53890  0.66260  0.61680  Biso   1.000  H
  C252     1.0000 0.44630  0.65830  0.53640  Biso   1.000  C
  H182     1.0000 0.44010  0.62500  0.56730  Biso   1.000  H
  C253     1.0000 0.39690  0.68400  0.46020  Biso   1.000  C
  H183     1.0000 0.35670  0.66780  0.43740  Biso   1.000  H
  C254     1.0000 0.57870  0.75680  0.55570  Biso   1.000  C
  C255     1.0000 0.11310  0.73800  0.86540  Biso   1.000  C
  C256     1.0000 0.05490  0.76580  0.80330  Biso   1.000  C
  C257     1.0000 0.05620  0.82550  0.75390  Biso   1.000  C
  H184     1.0000 0.09670  0.83830  0.75690  Biso   1.000  H
  C258     1.0000 0.00300  0.84950  0.68150  Biso   1.000  C
  H185     1.0000 0.00540  0.88670  0.65740  Biso   1.000  H
  C259     1.0000 0.05020  0.82250  0.85450  Biso   1.000  C
  H186     1.0000 0.08480  0.83520  0.91700  Biso   1.000  H
  C260     1.0000 0.45220  0.91320  0.31060  Biso   1.000  C
  H187     1.0000 0.46550  0.87470  0.31120  Biso   1.000  H
  C261     1.0000 0.49550  0.95500  0.36410  Biso   1.000  C
  H188     1.0000 0.53780  0.94500  0.39900  Biso   1.000  H
  C262     1.0000 0.47610  0.01170  0.36600  Biso   1.000  C
  C263     1.0000 0.41570  0.02410  0.31490  Biso   1.000  C
  H189     1.0000 0.40080  0.06190  0.31580  Biso   1.000  H
  C264     1.0000 0.37600  0.98130  0.26140  Biso   1.000  C
  H190     1.0000 0.33390  0.99140  0.22370  Biso   1.000  H
  C265     1.0000 0.52090  0.05430  0.43190  Biso   1.000  C
  H191     1.0000 0.55240  0.03430  0.48920  Biso   1.000  H
  H192     1.0000 0.49910  0.08220  0.45510  Biso   1.000  H
  C266     1.0000 0.55250  0.08640  0.37760  Biso   1.000  C
  H193     1.0000 0.52120  0.10880  0.32320  Biso   1.000  H
  H194     1.0000 0.57130  0.05820  0.34990  Biso   1.000  H
  C267     1.0000 0.60280  0.12750  0.44660  Biso   1.000  C
  H195     1.0000 0.58430  0.15560  0.47520  Biso   1.000  H
  H196     1.0000 0.63470  0.10530  0.50030  Biso   1.000  H
  C268     1.0000 0.63120  0.15830  0.39040  Biso   1.000  C
  C269     1.0000 0.67760  0.13210  0.36800  Biso   1.000  C
  H197     1.0000 0.69240  0.09470  0.39210  Biso   1.000  H
  C270     1.0000 0.70130  0.16080  0.31160  Biso   1.000  C
  H198     1.0000 0.73330  0.14300  0.30050  Biso   1.000  H
  C271     1.0000 0.63570  0.23830  0.29270  Biso   1.000  C
  H199     1.0000 0.62020  0.27520  0.26650  Biso   1.000  H
  C272     1.0000 0.61170  0.21150  0.35150  Biso   1.000  C
  H200     1.0000 0.58120  0.23080  0.36440  Biso   1.000  H
  Co22     1.0000 0.32369  0.86151  0.18548  Biso   1.000  Co
  Co23     1.0000 0.21896  0.76087  0.18669  Biso   1.000  Co
  Co24     1.0000 0.35174  0.84463  0.98761  Biso   1.000  Co
  N15      1.0000 0.39230  0.92610  0.25840  Biso   1.000  N
  N16      1.0000 0.68020  0.21390  0.27130  Biso   1.000  N
  O85      1.0000 0.24970  0.81040  0.09950  Biso   1.000  O
  O86      1.0000 0.27450  0.80560  0.90690  Biso   1.000  O
  O87      1.0000 0.26910  0.09600  0.73990  Biso   1.000  O
  O88      1.0000 0.21400  0.16670  0.76750  Biso   1.000  O
  O89      1.0000 0.29100  0.91330  0.06030  Biso   1.000  O
  O90      1.0000 0.33760  0.92820  0.96190  Biso   1.000  O
  O91      1.0000 0.36500  0.80920  0.30370  Biso   1.000  O
  O92      1.0000 0.30450  0.73330  0.29050  Biso   1.000  O
  O93      1.0000 0.62380  0.72310  0.58970  Biso   1.000  O
  O94      1.0000 0.58090  0.81040  0.53950  Biso   1.000  O
  O95      1.0000 0.15800  0.76980  0.90930  Biso   1.000  O
  O96      1.0000 0.11391  0.68204  0.87220  Biso   1.000  O
  C273     1.0000 0.50000  0.76310  0.25000  Biso   1.000  C
  H201     1.0000 0.50000  0.80400  0.25000  Biso   1.000  H
  C274     1.0000 0.00000  0.26310  0.25000  Biso   1.000  C
  H202     1.0000 0.00000  0.30400  0.25000  Biso   1.000  H
  C275     1.0000 0.50000  0.23690  0.75000  Biso   1.000  C
  H203     1.0000 0.50000  0.19600  0.75000  Biso   1.000  H
  C276     1.0000 0.00000  0.73690  0.75000  Biso   1.000  C
  H204     1.0000 0.00000  0.69600  0.75000  Biso   1.000  H
  Co25     1.0000 0.75000  0.75000  0.50000  Biso   1.000  Co
  Co26     1.0000 0.25000  0.75000  0.00000  Biso   1.000  Co
  Co27     1.0000 0.25000  0.25000  0.50000  Biso   1.000  Co
  Co28     1.0000 0.75000  0.25000  0.00000  Biso   1.000  Co
