data_ANONAT_clean
_audit_creation_date              2015-10-09
_audit_creation_method            'Materials Studio'
_symmetry_space_group_name_H-M    'P1'
_symmetry_Int_Tables_number       1
_symmetry_cell_setting            triclinic
loop_
_symmetry_equiv_pos_as_xyz
  x,y,z
_cell_length_a                    10.9220
_cell_length_b                    14.9810
_cell_length_c                    20.4118
_cell_angle_alpha                 111.5290
_cell_angle_beta                  105.5180
_cell_angle_gamma                 90.0000
loop_
_atom_site_label
_atom_site_type_symbol
_atom_site_fract_x
_atom_site_fract_y
_atom_site_fract_z
_atom_site_U_iso_or_equiv
_atom_site_adp_type
_atom_site_occupancy
Cu1    Cu    0.55963   0.47373   0.94746   0.01267  Uiso   1.00
Cu2    Cu    0.11217   0.02627   0.05254   0.01267  Uiso   1.00
Cu3    Cu    0.88783   0.97373   0.94746   0.01267  Uiso   1.00
Cu4    Cu    0.44037   0.52627   0.05254   0.01267  Uiso   1.00
H1     H     0.73770   0.46060   0.21660   0.01267  Uiso   1.00
H2     H     0.76650   0.31200   0.43540   0.01267  Uiso   1.00
H11    H     0.02110   0.03940   0.78340   0.01267  Uiso   1.00
H12    H     0.83110   0.18800   0.56460   0.01267  Uiso   1.00
H21    H     0.97890   0.25600   0.21660   0.01267  Uiso   1.00
H22    H     0.16890   0.62340   0.43540   0.01267  Uiso   1.00
H31    H     0.26230   0.24400   0.78340   0.01267  Uiso   1.00
H32    H     0.23350   0.87660   0.56460   0.01267  Uiso   1.00
H41    H     0.26230   0.53940   0.78340   0.01267  Uiso   1.00
H42    H     0.23350   0.68800   0.56460   0.01267  Uiso   1.00
H51    H     0.97890   0.96060   0.21660   0.01267  Uiso   1.00
H52    H     0.16890   0.81200   0.43540   0.01267  Uiso   1.00
H61    H     0.02110   0.74400   0.78340   0.01267  Uiso   1.00
H62    H     0.83110   0.37660   0.56460   0.01267  Uiso   1.00
H71    H     0.73770   0.75600   0.21660   0.01267  Uiso   1.00
H72    H     0.76650   0.12340   0.43540   0.01267  Uiso   1.00
H85    H     0.76170   0.26170   0.02340   0.01267  Uiso   1.00
H86    H     0.23830   0.23830   0.97660   0.01267  Uiso   1.00
H87    H     0.23830   0.73830   0.97660   0.01267  Uiso   1.00
H88    H     0.76170   0.76170   0.02340   0.01267  Uiso   1.00
C1     C     0.64710   0.41814   0.07260   0.01267  Uiso   1.00
C2     C     0.73813   0.36951   0.11346   0.01267  Uiso   1.00
C3     C     0.77426   0.40644   0.19012   0.01267  Uiso   1.00
C4     C     0.84672   0.35882   0.34144   0.01267  Uiso   1.00
C5     C     0.88754   0.40114   0.42348   0.01267  Uiso   1.00
C6     C     0.83216   0.36436   0.46132   0.01267  Uiso   1.00
C13    C     0.07450   0.08186   0.92740   0.01267  Uiso   1.00
C14    C     0.12467   0.13049   0.88654   0.01267  Uiso   1.00
C15    C     0.08414   0.09356   0.80988   0.01267  Uiso   1.00
C16    C     0.00528   0.14118   0.65856   0.01267  Uiso   1.00
C17    C     0.96406   0.09886   0.57652   0.01267  Uiso   1.00
C18    C     0.87084   0.13564   0.53868   0.01267  Uiso   1.00
C25    C     0.92550   0.15446   0.07260   0.01267  Uiso   1.00
C26    C     0.87533   0.24395   0.11346   0.01267  Uiso   1.00
C27    C     0.91586   0.28368   0.19012   0.01267  Uiso   1.00
C28    C     0.99472   0.48262   0.34144   0.01267  Uiso   1.00
C29    C     0.03594   0.52234   0.42348   0.01267  Uiso   1.00
C30    C     0.12916   0.59696   0.46132   0.01267  Uiso   1.00
C37    C     0.35290   0.34554   0.92740   0.01267  Uiso   1.00
C38    C     0.26187   0.25605   0.88654   0.01267  Uiso   1.00
C39    C     0.22574   0.21632   0.80988   0.01267  Uiso   1.00
C40    C     0.15328   0.01738   0.65856   0.01267  Uiso   1.00
C41    C     0.11246   0.97766   0.57652   0.01267  Uiso   1.00
C42    C     0.16784   0.90304   0.53868   0.01267  Uiso   1.00
C49    C     0.35290   0.58186   0.92740   0.01267  Uiso   1.00
C50    C     0.26187   0.63049   0.88654   0.01267  Uiso   1.00
C51    C     0.22574   0.59356   0.80988   0.01267  Uiso   1.00
C52    C     0.15328   0.64118   0.65856   0.01267  Uiso   1.00
C53    C     0.11246   0.59886   0.57652   0.01267  Uiso   1.00
C54    C     0.16784   0.63564   0.53868   0.01267  Uiso   1.00
C61    C     0.92550   0.91814   0.07260   0.01267  Uiso   1.00
C62    C     0.87533   0.86951   0.11346   0.01267  Uiso   1.00
C63    C     0.91586   0.90644   0.19012   0.01267  Uiso   1.00
C64    C     0.99472   0.85882   0.34144   0.01267  Uiso   1.00
C65    C     0.03594   0.90114   0.42348   0.01267  Uiso   1.00
C66    C     0.12916   0.86436   0.46132   0.01267  Uiso   1.00
C73    C     0.07450   0.84554   0.92740   0.01267  Uiso   1.00
C74    C     0.12467   0.75605   0.88654   0.01267  Uiso   1.00
C75    C     0.08414   0.71632   0.80988   0.01267  Uiso   1.00
C76    C     0.00528   0.51738   0.65856   0.01267  Uiso   1.00
C77    C     0.96406   0.47766   0.57652   0.01267  Uiso   1.00
C78    C     0.87084   0.40304   0.53868   0.01267  Uiso   1.00
C85    C     0.64710   0.65446   0.07260   0.01267  Uiso   1.00
C86    C     0.73813   0.74395   0.11346   0.01267  Uiso   1.00
C87    C     0.77426   0.78368   0.19012   0.01267  Uiso   1.00
C88    C     0.84672   0.98262   0.34144   0.01267  Uiso   1.00
C89    C     0.88754   0.02234   0.42348   0.01267  Uiso   1.00
C90    C     0.83216   0.09696   0.46132   0.01267  Uiso   1.00
C101   C     0.86357   0.36357   0.22714   0.01267  Uiso   1.00
C102   C     0.78786   0.28786   0.07572   0.01267  Uiso   1.00
C103   C     0.98043   0.48043   0.46086   0.01267  Uiso   1.00
C104   C     0.13643   0.13643   0.77286   0.01267  Uiso   1.00
C105   C     0.21214   0.21214   0.92428   0.01267  Uiso   1.00
C106   C     0.01957   0.01957   0.53914   0.01267  Uiso   1.00
C107   C     0.13643   0.63643   0.77286   0.01267  Uiso   1.00
C108   C     0.21214   0.71214   0.92428   0.01267  Uiso   1.00
C109   C     0.01957   0.51957   0.53914   0.01267  Uiso   1.00
C110   C     0.86357   0.86357   0.22714   0.01267  Uiso   1.00
C111   C     0.78786   0.78786   0.07572   0.01267  Uiso   1.00
C112   C     0.98043   0.98043   0.46086   0.01267  Uiso   1.00
N5     N     0.90350   0.40350   0.30700   0.01267  Uiso   1.00
N6     N     0.09650   0.09650   0.69300   0.01267  Uiso   1.00
N7     N     0.09650   0.59650   0.69300   0.01267  Uiso   1.00
N8     N     0.90350   0.90350   0.30700   0.01267  Uiso   1.00
O1     O     0.66007   0.41212   0.01196   0.01267  Uiso   1.00
O2     O     0.56560   0.46134   0.10226   0.01267  Uiso   1.00
O3     O     0.76936   0.28946   0.30652   0.01267  Uiso   1.00
O4     O     0.14811   0.08788   0.98804   0.01267  Uiso   1.00
O5     O     0.96334   0.03866   0.89774   0.01267  Uiso   1.00
O6     O     0.96284   0.21054   0.69348   0.01267  Uiso   1.00
O7     O     0.85189   0.09984   0.01196   0.01267  Uiso   1.00
O8     O     0.03666   0.14092   0.10226   0.01267  Uiso   1.00
O9     O     0.03716   0.51706   0.30652   0.01267  Uiso   1.00
O10    O     0.33993   0.40016   0.98804   0.01267  Uiso   1.00
O11    O     0.43440   0.35908   0.89774   0.01267  Uiso   1.00
O12    O     0.23064   0.98294   0.69348   0.01267  Uiso   1.00
O13    O     0.33993   0.58788   0.98804   0.01267  Uiso   1.00
O14    O     0.43440   0.53866   0.89774   0.01267  Uiso   1.00
O15    O     0.23064   0.71054   0.69348   0.01267  Uiso   1.00
O16    O     0.85189   0.91212   0.01196   0.01267  Uiso   1.00
O17    O     0.03666   0.96134   0.10226   0.01267  Uiso   1.00
O18    O     0.03716   0.78946   0.30652   0.01267  Uiso   1.00
O19    O     0.14811   0.90016   0.98804   0.01267  Uiso   1.00
O20    O     0.96334   0.85908   0.89774   0.01267  Uiso   1.00
O21    O     0.96284   0.48294   0.69348   0.01267  Uiso   1.00
O22    O     0.66007   0.59984   0.01196   0.01267  Uiso   1.00
O23    O     0.56560   0.64092   0.10226   0.01267  Uiso   1.00
O24    O     0.76936   0.01706   0.30652   0.01267  Uiso   1.00
loop_
_geom_bond_atom_site_label_1
_geom_bond_atom_site_label_2
_geom_bond_distance
_geom_bond_site_symmetry_2
_ccdc_geom_bond_type
Cu1    Cu4     2.678   1_556 S
Cu1    O1      1.977   1_556 S
Cu1    O11     1.957   .     S
Cu1    O14     1.957   .     S
Cu1    O22     1.977   1_556 S
Cu2    Cu3     2.678   1_444 S
Cu2    O4      1.977   1_554 S
Cu2    O8      1.957   .     S
Cu2    O17     1.957   1_545 S
Cu2    O19     1.977   1_544 S
Cu3    Cu2     2.678   1_666 S
Cu3    O5      1.957   1_565 S
Cu3    O7      1.977   1_566 S
Cu3    O16     1.977   1_556 S
Cu3    O20     1.957   .     S
Cu4    Cu1     2.678   1_554 S
Cu4    O2      1.957   .     S
Cu4    O10     1.977   1_554 S
Cu4    O13     1.977   1_554 S
Cu4    O23     1.957   .     S
H1     C3      0.951   .     S
H2     C6      0.950   .     S
H11    C15     0.951   .     S
H12    C18     0.950   .     S
H21    C27     0.951   .     S
H22    C30     0.950   .     S
H31    C39     0.951   .     S
H32    C42     0.950   .     S
H41    C51     0.951   .     S
H42    C54     0.950   .     S
H51    C63     0.951   .     S
H52    C66     0.950   .     S
H61    C75     0.951   .     S
H62    C78     0.950   .     S
H71    C87     0.951   .     S
H72    C90     0.950   .     S
H85    C102    0.951   .     S
H86    C105    0.951   .     S
H87    C108    0.951   .     S
H88    C111    0.951   .     S
C1     C2      1.489   .     S
C1     O1      1.254   .     A
C1     O2      1.256   .     A
C2     C3      1.394   .     A
C2     C102    1.385   .     A
C3     C101    1.377   .     A
C4     C5      1.492   .     S
C4     N5      1.380   .     S
C4     O3      1.198   .     D
C5     C6      1.352   .     A
C5     C103    1.394   .     A
C6     C78     1.407   .     A
C13    C14     1.489   .     S
C13    O4      1.254   .     A
C13    O5      1.256   1_455 A
C14    C15     1.394   .     A
C14    C105    1.385   .     A
C15    C104    1.377   .     A
C16    C17     1.492   1_455 S
C16    N6      1.380   .     S
C16    O6      1.198   1_455 D
C17    C16     1.492   1_655 S
C17    C18     1.352   .     A
C17    C106    1.394   1_655 A
C18    C90     1.407   .     A
C25    C26     1.489   .     S
C25    O7      1.254   .     A
C25    O8      1.256   1_655 A
C26    C27     1.394   .     A
C26    C102    1.385   .     A
C27    C101    1.377   .     A
C28    C29     1.492   1_655 S
C28    N5      1.380   .     S
C28    O9      1.198   1_655 D
C29    C28     1.492   1_455 S
C29    C30     1.352   .     A
C29    C103    1.394   1_455 A
C30    C54     1.407   .     A
C37    C38     1.489   .     S
C37    O10     1.254   .     A
C37    O11     1.256   .     A
C38    C39     1.394   .     A
C38    C105    1.385   .     A
C39    C104    1.377   .     A
C40    C41     1.492   1_545 S
C40    N6      1.380   .     S
C40    O12     1.198   1_545 D
C41    C40     1.492   1_565 S
C41    C42     1.352   .     A
C41    C106    1.394   1_565 A
C42    C66     1.407   .     A
C49    C50     1.489   .     S
C49    O13     1.254   .     A
C49    O14     1.256   .     A
C50    C51     1.394   .     A
C50    C108    1.385   .     A
C51    C107    1.377   .     A
C52    C53     1.492   .     S
C52    N7      1.380   .     S
C52    O15     1.198   .     D
C53    C54     1.352   .     A
C53    C109    1.394   .     A
C61    C62     1.489   .     S
C61    O16     1.254   .     A
C61    O17     1.256   1_655 A
C62    C63     1.394   .     A
C62    C111    1.385   .     A
C63    C110    1.377   .     A
C64    C65     1.492   1_655 S
C64    N8      1.380   .     S
C64    O18     1.198   1_655 D
C65    C64     1.492   1_455 S
C65    C66     1.352   .     A
C65    C112    1.394   1_455 A
C73    C74     1.489   .     S
C73    O19     1.254   .     A
C73    O20     1.256   1_455 A
C74    C75     1.394   .     A
C74    C108    1.385   .     A
C75    C107    1.377   .     A
C76    C77     1.492   1_455 S
C76    N7      1.380   .     S
C76    O21     1.198   1_455 D
C77    C76     1.492   1_655 S
C77    C78     1.352   .     A
C77    C109    1.394   1_655 A
C85    C86     1.489   .     S
C85    O22     1.254   .     A
C85    O23     1.256   .     A
C86    C87     1.394   .     A
C86    C111    1.385   .     A
C87    C110    1.377   .     A
C88    C89     1.492   1_565 S
C88    N8      1.380   .     S
C88    O24     1.198   1_565 D
C89    C88     1.492   1_545 S
C89    C90     1.352   .     A
C89    C112    1.394   1_545 A
C101   N5      1.452   .     S
C103   C29     1.394   1_655 A
C103   C109    1.424   1_655 A
C104   N6      1.452   .     S
C106   C17     1.394   1_455 A
C106   C41     1.394   1_545 A
C106   C112    1.424   1_445 A
C107   N7      1.452   .     S
C109   C103    1.424   1_455 A
C109   C77     1.394   1_455 A
C110   N8      1.452   .     S
C112   C65     1.394   1_655 A
C112   C89     1.394   1_565 A
C112   C106    1.424   1_665 A
O1     Cu1     1.977   1_554 S
O4     Cu2     1.977   1_556 S
O5     C13     1.256   1_655 A
O5     Cu3     1.957   1_545 S
O6     C16     1.198   1_655 D
O7     Cu3     1.977   1_544 S
O8     C25     1.256   1_455 A
O9     C28     1.198   1_455 D
O10    Cu4     1.977   1_556 S
O12    C40     1.198   1_565 D
O13    Cu4     1.977   1_556 S
O16    Cu3     1.977   1_554 S
O17    C61     1.256   1_455 A
O17    Cu2     1.957   1_565 S
O18    C64     1.198   1_455 D
O19    Cu2     1.977   1_566 S
O20    C73     1.256   1_655 A
O21    C76     1.198   1_655 D
O22    Cu1     1.977   1_554 S
O24    C88     1.198   1_545 D
