data_image0
_cell_length_a       18.1148
_cell_length_b       18.1148
_cell_length_c       24.397
_cell_angle_alpha    74.5422
_cell_angle_beta     74.5422
_cell_angle_gamma    106.384

_symmetry_space_group_name_H-M    P 1
_symmetry_int_tables_number       1

loop_
  _symmetry_equiv_pos_as_xyz
  'x, y, z'

loop_
  _atom_site_label
  _atom_site_occupancy
  _atom_site_fract_x
  _atom_site_fract_y
  _atom_site_fract_z
  _atom_site_thermal_displace_type
  _atom_site_B_iso_or_equiv
  _atom_site_type_symbol
  Cu1      1.0000 0.55266  0.99526  0.95382  Biso   1.000  Cu
  Cu2      1.0000 0.49352  0.55092  0.95382  Biso   1.000  Cu
  Cu3      1.0000 0.50474  0.94734  0.54618  Biso   1.000  Cu
  Cu4      1.0000 0.94908  0.00648  0.54618  Biso   1.000  Cu
  Cu5      1.0000 0.44734  0.00474  0.04618  Biso   1.000  Cu
  Cu6      1.0000 0.50648  0.44908  0.04618  Biso   1.000  Cu
  Cu7      1.0000 0.49526  0.05266  0.45382  Biso   1.000  Cu
  Cu8      1.0000 0.05092  0.99352  0.45382  Biso   1.000  Cu
  H1       1.0000 0.77170  0.57110  0.00520  Biso   1.000  H
  H2       1.0000 0.87720  0.81220  0.83640  Biso   1.000  H
  H3       1.0000 0.91200  0.65080  0.96380  Biso   1.000  H
  H4       1.0000 0.73580  0.73060  0.87660  Biso   1.000  H
  H5       1.0000 0.99640  0.81060  0.77720  Biso   1.000  H
  H6       1.0000 0.05010  0.91450  0.68360  Biso   1.000  H
  H7       1.0000 0.22310  0.92370  0.00520  Biso   1.000  H
  H8       1.0000 0.28640  0.85140  0.83640  Biso   1.000  H
  H9       1.0000 0.12420  0.88540  0.96380  Biso   1.000  H
  H10      1.0000 0.38760  0.89280  0.87660  Biso   1.000  H
  H11      1.0000 0.22640  0.91220  0.77720  Biso   1.000  H
  H12      1.0000 0.26630  0.90190  0.68360  Biso   1.000  H
  H13      1.0000 0.92890  0.72830  0.49480  Biso   1.000  H
  H14      1.0000 0.68780  0.62280  0.66360  Biso   1.000  H
  H15      1.0000 0.84920  0.58800  0.53620  Biso   1.000  H
  H16      1.0000 0.76940  0.76420  0.62340  Biso   1.000  H
  H17      1.0000 0.68940  0.50360  0.72280  Biso   1.000  H
  H18      1.0000 0.58550  0.44990  0.81640  Biso   1.000  H
  H19      1.0000 0.57630  0.27690  0.49480  Biso   1.000  H
  H20      1.0000 0.64860  0.21360  0.66360  Biso   1.000  H
  H21      1.0000 0.61460  0.37580  0.53620  Biso   1.000  H
  H22      1.0000 0.60720  0.11240  0.62340  Biso   1.000  H
  H23      1.0000 0.58780  0.27360  0.72280  Biso   1.000  H
  H24      1.0000 0.59810  0.23370  0.81640  Biso   1.000  H
  H25      1.0000 0.22830  0.42890  0.99480  Biso   1.000  H
  H26      1.0000 0.12280  0.18780  0.16360  Biso   1.000  H
  H27      1.0000 0.08800  0.34920  0.03620  Biso   1.000  H
  H28      1.0000 0.26420  0.26940  0.12340  Biso   1.000  H
  H29      1.0000 0.00360  0.18940  0.22280  Biso   1.000  H
  H30      1.0000 0.94990  0.08550  0.31640  Biso   1.000  H
  H31      1.0000 0.77690  0.07630  0.99480  Biso   1.000  H
  H32      1.0000 0.71360  0.14860  0.16360  Biso   1.000  H
  H33      1.0000 0.87580  0.11460  0.03620  Biso   1.000  H
  H34      1.0000 0.61240  0.10720  0.12340  Biso   1.000  H
  H35      1.0000 0.77360  0.08780  0.22280  Biso   1.000  H
  H36      1.0000 0.73370  0.09810  0.31640  Biso   1.000  H
  H37      1.0000 0.07110  0.27170  0.50520  Biso   1.000  H
  H38      1.0000 0.31220  0.37720  0.33640  Biso   1.000  H
  H39      1.0000 0.15080  0.41200  0.46380  Biso   1.000  H
  H40      1.0000 0.23060  0.23580  0.37660  Biso   1.000  H
  H41      1.0000 0.31060  0.49640  0.27720  Biso   1.000  H
  H42      1.0000 0.41450  0.55010  0.18360  Biso   1.000  H
  H43      1.0000 0.42370  0.72310  0.50520  Biso   1.000  H
  H44      1.0000 0.35140  0.78640  0.33640  Biso   1.000  H
  H45      1.0000 0.38540  0.62420  0.46380  Biso   1.000  H
  H46      1.0000 0.39280  0.88760  0.37660  Biso   1.000  H
  H47      1.0000 0.41220  0.72640  0.27720  Biso   1.000  H
  H48      1.0000 0.40190  0.76630  0.18360  Biso   1.000  H
  H49      1.0000 0.03290  0.78290  0.93420  Biso   1.000  H
  H50      1.0000 0.23770  0.98770  0.52460  Biso   1.000  H
  H51      1.0000 0.71710  0.46710  0.56580  Biso   1.000  H
  H52      1.0000 0.51230  0.26230  0.97540  Biso   1.000  H
  H53      1.0000 0.96710  0.21710  0.06580  Biso   1.000  H
  H54      1.0000 0.76230  0.01230  0.47540  Biso   1.000  H
  H55      1.0000 0.28290  0.53290  0.43420  Biso   1.000  H
  H56      1.0000 0.48770  0.73770  0.02460  Biso   1.000  H
  C1       1.0000 0.74275  0.64255  0.94190  Biso   1.000  C
  C2       1.0000 0.79355  0.61875  0.97010  Biso   1.000  C
  C3       1.0000 0.85626  0.76226  0.86948  Biso   1.000  C
  C4       1.0000 0.90877  0.73697  0.89406  Biso   1.000  C
  C5       1.0000 0.87693  0.66633  0.94554  Biso   1.000  C
  C6       1.0000 0.77149  0.71389  0.89362  Biso   1.000  C
  C7       1.0000 0.00197  0.78997  0.86026  Biso   1.000  C
  C8       1.0000 0.03193  0.82053  0.79794  Biso   1.000  C
  C9       1.0000 0.10420  0.92080  0.66360  Biso   1.000  C
  C10      1.0000 0.13476  0.94936  0.60068  Biso   1.000  C
  C11      1.0000 0.64863  0.58783  0.96474  Biso   1.000  C
  C12      1.0000 0.08115  0.96535  0.56630  Biso   1.000  C
  C13      1.0000 0.31535  0.91555  0.94190  Biso   1.000  C
  C14      1.0000 0.23635  0.91115  0.97010  Biso   1.000  C
  C15      1.0000 0.27426  0.86826  0.86948  Biso   1.000  C
  C16      1.0000 0.19717  0.86897  0.89406  Biso   1.000  C
  C17      1.0000 0.17753  0.88813  0.94554  Biso   1.000  C
  C18      1.0000 0.33489  0.89249  0.89362  Biso   1.000  C
  C19      1.0000 0.13777  0.84977  0.86026  Biso   1.000  C
  C20      1.0000 0.17013  0.88153  0.79794  Biso   1.000  C
  C21      1.0000 0.23220  0.91560  0.66360  Biso   1.000  C
  C22      1.0000 0.26456  0.94996  0.60068  Biso   1.000  C
  C23      1.0000 0.38663  0.94743  0.96474  Biso   1.000  C
  C24      1.0000 0.35255  0.96835  0.56630  Biso   1.000  C
  C25      1.0000 0.85745  0.75725  0.55810  Biso   1.000  C
  C26      1.0000 0.88125  0.70645  0.52990  Biso   1.000  C
  C27      1.0000 0.73774  0.64374  0.63052  Biso   1.000  C
  C28      1.0000 0.76303  0.59123  0.60594  Biso   1.000  C
  C29      1.0000 0.83367  0.62307  0.55446  Biso   1.000  C
  C30      1.0000 0.78611  0.72851  0.60638  Biso   1.000  C
  C31      1.0000 0.71003  0.49803  0.63974  Biso   1.000  C
  C32      1.0000 0.67947  0.46807  0.70206  Biso   1.000  C
  C33      1.0000 0.57920  0.39580  0.83640  Biso   1.000  C
  C34      1.0000 0.55064  0.36524  0.89932  Biso   1.000  C
  C35      1.0000 0.91217  0.85137  0.53526  Biso   1.000  C
  C36      1.0000 0.53465  0.41885  0.93370  Biso   1.000  C
  C37      1.0000 0.58445  0.18465  0.55810  Biso   1.000  C
  C38      1.0000 0.58885  0.26365  0.52990  Biso   1.000  C
  C39      1.0000 0.63174  0.22574  0.63052  Biso   1.000  C
  C40      1.0000 0.63103  0.30283  0.60594  Biso   1.000  C
  C41      1.0000 0.61187  0.32247  0.55446  Biso   1.000  C
  C42      1.0000 0.60751  0.16511  0.60638  Biso   1.000  C
  C43      1.0000 0.65023  0.36223  0.63974  Biso   1.000  C
  C44      1.0000 0.61847  0.32987  0.70206  Biso   1.000  C
  C45      1.0000 0.58440  0.26780  0.83640  Biso   1.000  C
  C46      1.0000 0.55004  0.23544  0.89932  Biso   1.000  C
  C47      1.0000 0.55257  0.11337  0.53526  Biso   1.000  C
  C48      1.0000 0.53165  0.14745  0.93370  Biso   1.000  C
  C49      1.0000 0.25725  0.35745  0.05810  Biso   1.000  C
  C50      1.0000 0.20645  0.38125  0.02990  Biso   1.000  C
  C51      1.0000 0.14374  0.23774  0.13052  Biso   1.000  C
  C52      1.0000 0.09123  0.26303  0.10594  Biso   1.000  C
  C53      1.0000 0.12307  0.33367  0.05446  Biso   1.000  C
  C54      1.0000 0.22851  0.28611  0.10638  Biso   1.000  C
  C55      1.0000 0.99803  0.21003  0.13974  Biso   1.000  C
  C56      1.0000 0.96807  0.17947  0.20206  Biso   1.000  C
  C57      1.0000 0.89580  0.07920  0.33640  Biso   1.000  C
  C58      1.0000 0.86524  0.05064  0.39932  Biso   1.000  C
  C59      1.0000 0.35137  0.41217  0.03526  Biso   1.000  C
  C60      1.0000 0.91885  0.03465  0.43370  Biso   1.000  C
  C61      1.0000 0.68465  0.08445  0.05810  Biso   1.000  C
  C62      1.0000 0.76365  0.08885  0.02990  Biso   1.000  C
  C63      1.0000 0.72574  0.13174  0.13052  Biso   1.000  C
  C64      1.0000 0.80283  0.13103  0.10594  Biso   1.000  C
  C65      1.0000 0.82247  0.11187  0.05446  Biso   1.000  C
  C66      1.0000 0.66511  0.10751  0.10638  Biso   1.000  C
  C67      1.0000 0.86223  0.15023  0.13974  Biso   1.000  C
  C68      1.0000 0.82987  0.11847  0.20206  Biso   1.000  C
  C69      1.0000 0.76780  0.08440  0.33640  Biso   1.000  C
  C70      1.0000 0.73544  0.05004  0.39932  Biso   1.000  C
  C71      1.0000 0.61337  0.05257  0.03526  Biso   1.000  C
  C72      1.0000 0.64745  0.03165  0.43370  Biso   1.000  C
  C73      1.0000 0.14255  0.24275  0.44190  Biso   1.000  C
  C74      1.0000 0.11875  0.29355  0.47010  Biso   1.000  C
  C75      1.0000 0.26226  0.35626  0.36948  Biso   1.000  C
  C76      1.0000 0.23697  0.40877  0.39406  Biso   1.000  C
  C77      1.0000 0.16633  0.37693  0.44554  Biso   1.000  C
  C78      1.0000 0.21389  0.27149  0.39362  Biso   1.000  C
  C79      1.0000 0.28997  0.50197  0.36026  Biso   1.000  C
  C80      1.0000 0.32053  0.53193  0.29794  Biso   1.000  C
  C81      1.0000 0.42080  0.60420  0.16360  Biso   1.000  C
  C82      1.0000 0.44936  0.63476  0.10068  Biso   1.000  C
  C83      1.0000 0.08783  0.14863  0.46474  Biso   1.000  C
  C84      1.0000 0.46535  0.58115  0.06630  Biso   1.000  C
  C85      1.0000 0.41555  0.81535  0.44190  Biso   1.000  C
  C86      1.0000 0.41115  0.73635  0.47010  Biso   1.000  C
  C87      1.0000 0.36826  0.77426  0.36948  Biso   1.000  C
  C88      1.0000 0.36897  0.69717  0.39406  Biso   1.000  C
  C89      1.0000 0.38813  0.67753  0.44554  Biso   1.000  C
  C90      1.0000 0.39249  0.83489  0.39362  Biso   1.000  C
  C91      1.0000 0.34977  0.63777  0.36026  Biso   1.000  C
  C92      1.0000 0.38153  0.67013  0.29794  Biso   1.000  C
  C93      1.0000 0.41560  0.73220  0.16360  Biso   1.000  C
  C94      1.0000 0.44996  0.76456  0.10068  Biso   1.000  C
  C95      1.0000 0.44743  0.88663  0.46474  Biso   1.000  C
  C96      1.0000 0.46835  0.85255  0.06630  Biso   1.000  C
  C97      1.0000 0.05415  0.80415  0.89170  Biso   1.000  C
  C98      1.0000 0.11750  0.86750  0.76500  Biso   1.000  C
  C99      1.0000 0.15010  0.90010  0.69980  Biso   1.000  C
  C100     1.0000 0.21646  0.96646  0.56708  Biso   1.000  C
  C101     1.0000 0.69585  0.44585  0.60830  Biso   1.000  C
  C102     1.0000 0.63250  0.38250  0.73500  Biso   1.000  C
  C103     1.0000 0.59990  0.34990  0.80020  Biso   1.000  C
  C104     1.0000 0.53354  0.28354  0.93292  Biso   1.000  C
  C105     1.0000 0.94585  0.19585  0.10830  Biso   1.000  C
  C106     1.0000 0.88250  0.13250  0.23500  Biso   1.000  C
  C107     1.0000 0.84990  0.09990  0.30020  Biso   1.000  C
  C108     1.0000 0.78354  0.03354  0.43292  Biso   1.000  C
  C109     1.0000 0.30415  0.55415  0.39170  Biso   1.000  C
  C110     1.0000 0.36750  0.61750  0.26500  Biso   1.000  C
  C111     1.0000 0.40010  0.65010  0.19980  Biso   1.000  C
  C112     1.0000 0.46646  0.71646  0.06708  Biso   1.000  C
  O1       1.0000 0.61023  0.61151  0.93364  Biso   1.000  O
  O2       1.0000 0.01819  0.97741  0.59168  Biso   1.000  O
  O3       1.0000 0.62251  0.52409  0.01370  Biso   1.000  O
  O4       1.0000 0.10413  0.96869  0.51190  Biso   1.000  O
  O5       1.0000 0.45613  0.95485  0.93364  Biso   1.000  O
  O6       1.0000 0.39013  0.93091  0.59168  Biso   1.000  O
  O7       1.0000 0.36379  0.96221  0.01370  Biso   1.000  O
  O8       1.0000 0.38397  0.01941  0.51190  Biso   1.000  O
  O9       1.0000 0.88849  0.88977  0.56636  Biso   1.000  O
  O10      1.0000 0.52259  0.48181  0.90832  Biso   1.000  O
  O11      1.0000 0.97591  0.87749  0.48630  Biso   1.000  O
  O12      1.0000 0.53131  0.39587  0.98810  Biso   1.000  O
  O13      1.0000 0.54515  0.04387  0.56636  Biso   1.000  O
  O14      1.0000 0.56909  0.10987  0.90832  Biso   1.000  O
  O15      1.0000 0.53779  0.13621  0.48630  Biso   1.000  O
  O16      1.0000 0.48059  0.11603  0.98810  Biso   1.000  O
  O17      1.0000 0.38977  0.38849  0.06636  Biso   1.000  O
  O18      1.0000 0.98181  0.02259  0.40832  Biso   1.000  O
  O19      1.0000 0.37749  0.47591  0.98630  Biso   1.000  O
  O20      1.0000 0.89587  0.03131  0.48810  Biso   1.000  O
  O21      1.0000 0.54387  0.04515  0.06636  Biso   1.000  O
  O22      1.0000 0.60987  0.06909  0.40832  Biso   1.000  O
  O23      1.0000 0.63621  0.03779  0.98630  Biso   1.000  O
  O24      1.0000 0.61603  0.98059  0.48810  Biso   1.000  O
  O25      1.0000 0.11151  0.11023  0.43364  Biso   1.000  O
  O26      1.0000 0.47741  0.51819  0.09168  Biso   1.000  O
  O27      1.0000 0.02409  0.12251  0.51370  Biso   1.000  O
  O28      1.0000 0.46869  0.60413  0.01190  Biso   1.000  O
  O29      1.0000 0.45485  0.95613  0.43364  Biso   1.000  O
  O30      1.0000 0.43091  0.89013  0.09168  Biso   1.000  O
  O31      1.0000 0.46221  0.86379  0.51370  Biso   1.000  O
  O32      1.0000 0.51941  0.88397  0.01190  Biso   1.000  O
