data_image0
_cell_length_a       17.5838
_cell_length_b       17.5838
_cell_length_c       17.5838
_cell_angle_alpha    96.8299
_cell_angle_beta     96.8299
_cell_angle_gamma    96.8299

_symmetry_space_group_name_H-M    P 1
_symmetry_int_tables_number       1

loop_
  _symmetry_equiv_pos_as_xyz
  'x, y, z'

loop_
  _atom_site_label
  _atom_site_occupancy
  _atom_site_fract_x
  _atom_site_fract_y
  _atom_site_fract_z
  _atom_site_thermal_displace_type
  _atom_site_B_iso_or_equiv
  _atom_site_type_symbol
  Cu1      1.0000 0.30717  0.90466  0.90466  Biso   1.000  Cu
  Cu2      1.0000 0.90466  0.30717  0.90466  Biso   1.000  Cu
  Cu3      1.0000 0.90466  0.90466  0.30717  Biso   1.000  Cu
  Cu4      1.0000 0.85178  0.16317  0.85178  Biso   1.000  Cu
  Cu5      1.0000 0.85178  0.85178  0.16317  Biso   1.000  Cu
  Cu6      1.0000 0.16317  0.85178  0.85178  Biso   1.000  Cu
  H1       1.0000 0.21310  0.48810  0.83840  Biso   1.000  H
  H2       1.0000 0.18360  0.60860  0.83020  Biso   1.000  H
  H3       1.0000 0.42540  0.56750  0.92710  Biso   1.000  H
  H4       1.0000 0.39530  0.69200  0.92720  Biso   1.000  H
  H5       1.0000 0.23530  0.38650  0.89650  Biso   1.000  H
  H6       1.0000 0.14710  0.29800  0.88810  Biso   1.000  H
  H7       1.0000 0.83840  0.21310  0.48810  Biso   1.000  H
  H8       1.0000 0.83020  0.18360  0.60860  Biso   1.000  H
  H9       1.0000 0.92710  0.42540  0.56750  Biso   1.000  H
  H10      1.0000 0.92720  0.39530  0.69200  Biso   1.000  H
  H11      1.0000 0.89650  0.23530  0.38650  Biso   1.000  H
  H12      1.0000 0.88810  0.14710  0.29800  Biso   1.000  H
  H13      1.0000 0.48810  0.83840  0.21310  Biso   1.000  H
  H14      1.0000 0.60860  0.83020  0.18360  Biso   1.000  H
  H15      1.0000 0.56750  0.92710  0.42540  Biso   1.000  H
  H16      1.0000 0.69200  0.92720  0.39530  Biso   1.000  H
  H17      1.0000 0.38650  0.89650  0.23530  Biso   1.000  H
  H18      1.0000 0.29800  0.88810  0.14710  Biso   1.000  H
  H19      1.0000 0.48810  0.21310  0.83840  Biso   1.000  H
  H20      1.0000 0.60860  0.18360  0.83020  Biso   1.000  H
  H21      1.0000 0.56750  0.42540  0.92710  Biso   1.000  H
  H22      1.0000 0.69200  0.39530  0.92720  Biso   1.000  H
  H23      1.0000 0.38650  0.23530  0.89650  Biso   1.000  H
  H24      1.0000 0.29800  0.14710  0.88810  Biso   1.000  H
  H25      1.0000 0.21310  0.83840  0.48810  Biso   1.000  H
  H26      1.0000 0.18360  0.83020  0.60860  Biso   1.000  H
  H27      1.0000 0.42540  0.92710  0.56750  Biso   1.000  H
  H28      1.0000 0.39530  0.92720  0.69200  Biso   1.000  H
  H29      1.0000 0.23530  0.89650  0.38650  Biso   1.000  H
  H30      1.0000 0.14710  0.88810  0.29800  Biso   1.000  H
  H31      1.0000 0.83840  0.48810  0.21310  Biso   1.000  H
  H32      1.0000 0.83020  0.60860  0.18360  Biso   1.000  H
  H33      1.0000 0.92710  0.56750  0.42540  Biso   1.000  H
  H34      1.0000 0.92720  0.69200  0.39530  Biso   1.000  H
  H35      1.0000 0.89650  0.38650  0.23530  Biso   1.000  H
  H36      1.0000 0.88810  0.29800  0.14710  Biso   1.000  H
  H37      1.0000 0.45385  0.45385  0.88360  Biso   1.000  H
  H38      1.0000 0.07015  0.07015  0.87370  Biso   1.000  H
  H39      1.0000 0.88360  0.45385  0.45385  Biso   1.000  H
  H40      1.0000 0.87370  0.07015  0.07015  Biso   1.000  H
  H41      1.0000 0.45385  0.88360  0.45385  Biso   1.000  H
  H42      1.0000 0.07015  0.87370  0.07015  Biso   1.000  H
  C1       1.0000 0.28730  0.66400  0.88290  Biso   1.000  C
  C2       1.0000 0.25140  0.52950  0.85710  Biso   1.000  C
  C3       1.0000 0.23230  0.60150  0.85280  Biso   1.000  C
  C4       1.0000 0.32380  0.51170  0.88740  Biso   1.000  C
  C5       1.0000 0.37480  0.57400  0.90970  Biso   1.000  C
  C6       1.0000 0.35690  0.65060  0.90890  Biso   1.000  C
  C7       1.0000 0.27100  0.74610  0.88070  Biso   1.000  C
  C8       1.0000 0.01420  0.20350  0.88030  Biso   1.000  C
  C9       1.0000 0.34300  0.43260  0.88670  Biso   1.000  C
  C10      1.0000 0.28480  0.37390  0.89290  Biso   1.000  C
  C11      1.0000 0.09780  0.19100  0.88420  Biso   1.000  C
  C12      1.0000 0.15710  0.24720  0.88810  Biso   1.000  C
  C13      1.0000 0.88290  0.28730  0.66400  Biso   1.000  C
  C14      1.0000 0.85710  0.25140  0.52950  Biso   1.000  C
  C15      1.0000 0.85280  0.23230  0.60150  Biso   1.000  C
  C16      1.0000 0.88740  0.32380  0.51170  Biso   1.000  C
  C17      1.0000 0.90970  0.37480  0.57400  Biso   1.000  C
  C18      1.0000 0.90890  0.35690  0.65060  Biso   1.000  C
  C19      1.0000 0.88070  0.27100  0.74610  Biso   1.000  C
  C20      1.0000 0.88030  0.01420  0.20350  Biso   1.000  C
  C21      1.0000 0.88670  0.34300  0.43260  Biso   1.000  C
  C22      1.0000 0.89290  0.28480  0.37390  Biso   1.000  C
  C23      1.0000 0.88420  0.09780  0.19100  Biso   1.000  C
  C24      1.0000 0.88810  0.15710  0.24720  Biso   1.000  C
  C25      1.0000 0.66400  0.88290  0.28730  Biso   1.000  C
  C26      1.0000 0.52950  0.85710  0.25140  Biso   1.000  C
  C27      1.0000 0.60150  0.85280  0.23230  Biso   1.000  C
  C28      1.0000 0.51170  0.88740  0.32380  Biso   1.000  C
  C29      1.0000 0.57400  0.90970  0.37480  Biso   1.000  C
  C30      1.0000 0.65060  0.90890  0.35690  Biso   1.000  C
  C31      1.0000 0.74610  0.88070  0.27100  Biso   1.000  C
  C32      1.0000 0.20350  0.88030  0.01420  Biso   1.000  C
  C33      1.0000 0.43260  0.88670  0.34300  Biso   1.000  C
  C34      1.0000 0.37390  0.89290  0.28480  Biso   1.000  C
  C35      1.0000 0.19100  0.88420  0.09780  Biso   1.000  C
  C36      1.0000 0.24720  0.88810  0.15710  Biso   1.000  C
  C37      1.0000 0.66400  0.28730  0.88290  Biso   1.000  C
  C38      1.0000 0.52950  0.25140  0.85710  Biso   1.000  C
  C39      1.0000 0.60150  0.23230  0.85280  Biso   1.000  C
  C40      1.0000 0.51170  0.32380  0.88740  Biso   1.000  C
  C41      1.0000 0.57400  0.37480  0.90970  Biso   1.000  C
  C42      1.0000 0.65060  0.35690  0.90890  Biso   1.000  C
  C43      1.0000 0.74610  0.27100  0.88070  Biso   1.000  C
  C44      1.0000 0.20350  0.01420  0.88030  Biso   1.000  C
  C45      1.0000 0.43260  0.34300  0.88670  Biso   1.000  C
  C46      1.0000 0.37390  0.28480  0.89290  Biso   1.000  C
  C47      1.0000 0.19100  0.09780  0.88420  Biso   1.000  C
  C48      1.0000 0.24720  0.15710  0.88810  Biso   1.000  C
  C49      1.0000 0.28730  0.88290  0.66400  Biso   1.000  C
  C50      1.0000 0.25140  0.85710  0.52950  Biso   1.000  C
  C51      1.0000 0.23230  0.85280  0.60150  Biso   1.000  C
  C52      1.0000 0.32380  0.88740  0.51170  Biso   1.000  C
  C53      1.0000 0.37480  0.90970  0.57400  Biso   1.000  C
  C54      1.0000 0.35690  0.90890  0.65060  Biso   1.000  C
  C55      1.0000 0.27100  0.88070  0.74610  Biso   1.000  C
  C56      1.0000 0.01420  0.88030  0.20350  Biso   1.000  C
  C57      1.0000 0.34300  0.88670  0.43260  Biso   1.000  C
  C58      1.0000 0.28480  0.89290  0.37390  Biso   1.000  C
  C59      1.0000 0.09780  0.88420  0.19100  Biso   1.000  C
  C60      1.0000 0.15710  0.88810  0.24720  Biso   1.000  C
  C61      1.0000 0.88290  0.66400  0.28730  Biso   1.000  C
  C62      1.0000 0.85710  0.52950  0.25140  Biso   1.000  C
  C63      1.0000 0.85280  0.60150  0.23230  Biso   1.000  C
  C64      1.0000 0.88740  0.51170  0.32380  Biso   1.000  C
  C65      1.0000 0.90970  0.57400  0.37480  Biso   1.000  C
  C66      1.0000 0.90890  0.65060  0.35690  Biso   1.000  C
  C67      1.0000 0.88070  0.74610  0.27100  Biso   1.000  C
  C68      1.0000 0.88030  0.20350  0.01420  Biso   1.000  C
  C69      1.0000 0.88670  0.43260  0.34300  Biso   1.000  C
  C70      1.0000 0.89290  0.37390  0.28480  Biso   1.000  C
  C71      1.0000 0.88420  0.19100  0.09780  Biso   1.000  C
  C72      1.0000 0.88810  0.24720  0.15710  Biso   1.000  C
  C73      1.0000 0.41425  0.41425  0.88540  Biso   1.000  C
  C74      1.0000 0.29655  0.29655  0.89400  Biso   1.000  C
  C75      1.0000 0.23235  0.23235  0.89220  Biso   1.000  C
  C76      1.0000 0.11049  0.11050  0.87941  Biso   1.000  C
  C77      1.0000 0.88540  0.41425  0.41425  Biso   1.000  C
  C78      1.0000 0.89400  0.29655  0.29655  Biso   1.000  C
  C79      1.0000 0.89220  0.23235  0.23235  Biso   1.000  C
  C80      1.0000 0.87941  0.11049  0.11049  Biso   1.000  C
  C81      1.0000 0.41425  0.88540  0.41425  Biso   1.000  C
  C82      1.0000 0.29655  0.89400  0.29655  Biso   1.000  C
  C83      1.0000 0.23235  0.89220  0.23235  Biso   1.000  C
  C84      1.0000 0.11049  0.87941  0.11049  Biso   1.000  C
  O1       1.0000 0.32330  0.79960  0.90120  Biso   1.000  O
  O2       1.0000 0.95980  0.14910  0.85710  Biso   1.000  O
  O3       1.0000 0.00628  0.27395  0.90072  Biso   1.000  O
  O4       1.0000 0.19869  0.75245  0.85642  Biso   1.000  O
  O5       1.0000 0.90120  0.32330  0.79960  Biso   1.000  O
  O6       1.0000 0.85710  0.95980  0.14910  Biso   1.000  O
  O7       1.0000 0.90072  0.00628  0.27395  Biso   1.000  O
  O8       1.0000 0.85642  0.19869  0.75245  Biso   1.000  O
  O9       1.0000 0.79960  0.90120  0.32330  Biso   1.000  O
  O10      1.0000 0.14910  0.85710  0.95980  Biso   1.000  O
  O11      1.0000 0.27395  0.90072  0.00628  Biso   1.000  O
  O12      1.0000 0.75245  0.85642  0.19869  Biso   1.000  O
  O13      1.0000 0.79960  0.32330  0.90120  Biso   1.000  O
  O14      1.0000 0.14910  0.95980  0.85710  Biso   1.000  O
  O15      1.0000 0.27395  0.00628  0.90072  Biso   1.000  O
  O16      1.0000 0.75245  0.19869  0.85642  Biso   1.000  O
  O17      1.0000 0.32330  0.90120  0.79960  Biso   1.000  O
  O18      1.0000 0.95980  0.85710  0.14910  Biso   1.000  O
  O19      1.0000 0.00628  0.90072  0.27395  Biso   1.000  O
  O20      1.0000 0.19869  0.85642  0.75245  Biso   1.000  O
  O21      1.0000 0.90120  0.79960  0.32330  Biso   1.000  O
  O22      1.0000 0.85710  0.14910  0.95980  Biso   1.000  O
  O23      1.0000 0.90072  0.27395  0.00628  Biso   1.000  O
  O24      1.0000 0.85642  0.75245  0.19869  Biso   1.000  O
  O25      1.0000 0.43160  0.95195  0.95195  Biso   1.000  O
  O26      1.0000 0.95195  0.43160  0.95195  Biso   1.000  O
  O27      1.0000 0.95195  0.95195  0.43160  Biso   1.000  O
  O28      1.0000 0.81341  0.04157  0.81341  Biso   1.000  O
  O29      1.0000 0.81341  0.81341  0.04157  Biso   1.000  O
  O30      1.0000 0.04157  0.81341  0.81341  Biso   1.000  O
