data_image0
_cell_length_a       28.2219
_cell_length_b       28.2219
_cell_length_c       9.7266
_cell_angle_alpha    90
_cell_angle_beta     90
_cell_angle_gamma    90

_symmetry_space_group_name_H-M    "P 1"
_symmetry_int_tables_number       1

loop_
  _symmetry_equiv_pos_as_xyz
  'x, y, z'

loop_
  _atom_site_label
  _atom_site_occupancy
  _atom_site_fract_x
  _atom_site_fract_y
  _atom_site_fract_z
  _atom_site_thermal_displace_type
  _atom_site_B_iso_or_equiv
  _atom_site_type_symbol
  O1       1.0000 0.51445  0.06124  0.66400  Biso   1.000  O
  C1       1.0000 0.48771  0.07823  0.57220  Biso   1.000  C
  O2       1.0000 0.45655  0.05487  0.51120  Biso   1.000  O
  C2       1.0000 0.49495  0.12885  0.53250  Biso   1.000  C
  C3       1.0000 0.53396  0.15410  0.58380  Biso   1.000  C
  C4       1.0000 0.46371  0.15068  0.44460  Biso   1.000  C
  H1       1.0000 0.55560  0.13890  0.64080  Biso   1.000  H
  C5       1.0000 0.54074  0.20151  0.55060  Biso   1.000  C
  C6       1.0000 0.47045  0.19900  0.40990  Biso   1.000  C
  H2       1.0000 0.43830  0.13390  0.40820  Biso   1.000  H
  C7       1.0000 0.50817  0.22366  0.46590  Biso   1.000  C
  C8       1.0000 0.58489  0.22824  0.59590  Biso   1.000  C
  C9       1.0000 0.43750  0.22380  0.31080  Biso   1.000  C
  H3       1.0000 0.51170  0.25570  0.44630  Biso   1.000  H
  C10      1.0000 0.62823  0.20690  0.56520  Biso   1.000  C
  O3       1.0000 0.40542  0.19938  0.25370  Biso   1.000  O
  O4       1.0000 0.44225  0.26567  0.28610  Biso   1.000  O
  H4       1.0000 0.62780  0.17710  0.52440  Biso   1.000  H
  C11      1.0000 0.67152  0.22723  0.59180  Biso   1.000  C
  C12      1.0000 0.71390  0.19980  0.54320  Biso   1.000  C
  O5       1.0000 0.70629  0.16301  0.47950  Biso   1.000  O
  O6       1.0000 0.75537  0.21480  0.55990  Biso   1.000  O
  O7       1.0000 0.01445  0.56124  0.16400  Biso   1.000  O
  C13      1.0000 0.98771  0.57823  0.07220  Biso   1.000  C
  O8       1.0000 0.95655  0.55487  0.01120  Biso   1.000  O
  C14      1.0000 0.99495  0.62885  0.03250  Biso   1.000  C
  C15      1.0000 0.03396  0.65410  0.08380  Biso   1.000  C
  C16      1.0000 0.96371  0.65068  0.94460  Biso   1.000  C
  H5       1.0000 0.05560  0.63890  0.14080  Biso   1.000  H
  C17      1.0000 0.04074  0.70151  0.05060  Biso   1.000  C
  C18      1.0000 0.97045  0.69900  0.90990  Biso   1.000  C
  H6       1.0000 0.93830  0.63390  0.90820  Biso   1.000  H
  C19      1.0000 0.00817  0.72366  0.96590  Biso   1.000  C
  C20      1.0000 0.08489  0.72824  0.09590  Biso   1.000  C
  C21      1.0000 0.93750  0.72380  0.81080  Biso   1.000  C
  H7       1.0000 0.01170  0.75570  0.94630  Biso   1.000  H
  C22      1.0000 0.12823  0.70690  0.06520  Biso   1.000  C
  O9       1.0000 0.90542  0.69938  0.75370  Biso   1.000  O
  O10      1.0000 0.94225  0.76567  0.78610  Biso   1.000  O
  H8       1.0000 0.12780  0.67710  0.02440  Biso   1.000  H
  C23      1.0000 0.17152  0.72723  0.09180  Biso   1.000  C
  C24      1.0000 0.21390  0.69980  0.04320  Biso   1.000  C
  O11      1.0000 0.20629  0.66301  0.97950  Biso   1.000  O
  O12      1.0000 0.25537  0.71480  0.05990  Biso   1.000  O
  O13      1.0000 0.48555  0.93876  0.66400  Biso   1.000  O
  C25      1.0000 0.51229  0.92177  0.57220  Biso   1.000  C
  O14      1.0000 0.54345  0.94513  0.51120  Biso   1.000  O
  C26      1.0000 0.50505  0.87115  0.53250  Biso   1.000  C
  C27      1.0000 0.46604  0.84590  0.58380  Biso   1.000  C
  C28      1.0000 0.53629  0.84932  0.44460  Biso   1.000  C
  H9       1.0000 0.44440  0.86110  0.64080  Biso   1.000  H
  C29      1.0000 0.45926  0.79849  0.55060  Biso   1.000  C
  C30      1.0000 0.52955  0.80100  0.40990  Biso   1.000  C
  H10      1.0000 0.56170  0.86610  0.40820  Biso   1.000  H
  C31      1.0000 0.49183  0.77634  0.46590  Biso   1.000  C
  C32      1.0000 0.41511  0.77176  0.59590  Biso   1.000  C
  C33      1.0000 0.56250  0.77620  0.31080  Biso   1.000  C
  H11      1.0000 0.48830  0.74430  0.44630  Biso   1.000  H
  C34      1.0000 0.37177  0.79310  0.56520  Biso   1.000  C
  O15      1.0000 0.59458  0.80062  0.25370  Biso   1.000  O
  O16      1.0000 0.55775  0.73433  0.28610  Biso   1.000  O
  H12      1.0000 0.37220  0.82290  0.52440  Biso   1.000  H
  C35      1.0000 0.32848  0.77277  0.59180  Biso   1.000  C
  C36      1.0000 0.28610  0.80020  0.54320  Biso   1.000  C
  O17      1.0000 0.29371  0.83699  0.47950  Biso   1.000  O
  O18      1.0000 0.24463  0.78520  0.55990  Biso   1.000  O
  O19      1.0000 0.98555  0.43876  0.16400  Biso   1.000  O
  C37      1.0000 0.01229  0.42177  0.07220  Biso   1.000  C
  O20      1.0000 0.04345  0.44513  0.01120  Biso   1.000  O
  C38      1.0000 0.00505  0.37115  0.03250  Biso   1.000  C
  C39      1.0000 0.96604  0.34590  0.08380  Biso   1.000  C
  C40      1.0000 0.03629  0.34932  0.94460  Biso   1.000  C
  H13      1.0000 0.94440  0.36110  0.14080  Biso   1.000  H
  C41      1.0000 0.95926  0.29849  0.05060  Biso   1.000  C
  C42      1.0000 0.02955  0.30100  0.90990  Biso   1.000  C
  H14      1.0000 0.06170  0.36610  0.90820  Biso   1.000  H
  C43      1.0000 0.99183  0.27634  0.96590  Biso   1.000  C
  C44      1.0000 0.91511  0.27176  0.09590  Biso   1.000  C
  C45      1.0000 0.06250  0.27620  0.81080  Biso   1.000  C
  H15      1.0000 0.98830  0.24430  0.94630  Biso   1.000  H
  C46      1.0000 0.87177  0.29310  0.06520  Biso   1.000  C
  O21      1.0000 0.09458  0.30062  0.75370  Biso   1.000  O
  O22      1.0000 0.05775  0.23433  0.78610  Biso   1.000  O
  H16      1.0000 0.87220  0.32290  0.02440  Biso   1.000  H
  C47      1.0000 0.82848  0.27277  0.09180  Biso   1.000  C
  C48      1.0000 0.78610  0.30020  0.04320  Biso   1.000  C
  O23      1.0000 0.79371  0.33699  0.97950  Biso   1.000  O
  O24      1.0000 0.74463  0.28520  0.05990  Biso   1.000  O
  O25      1.0000 0.06124  0.48555  0.33600  Biso   1.000  O
  C49      1.0000 0.07823  0.51229  0.42780  Biso   1.000  C
  O26      1.0000 0.05487  0.54345  0.48880  Biso   1.000  O
  C50      1.0000 0.12885  0.50505  0.46750  Biso   1.000  C
  C51      1.0000 0.15410  0.46604  0.41620  Biso   1.000  C
  C52      1.0000 0.15068  0.53629  0.55540  Biso   1.000  C
  H17      1.0000 0.13890  0.44440  0.35920  Biso   1.000  H
  C53      1.0000 0.20151  0.45926  0.44940  Biso   1.000  C
  C54      1.0000 0.19900  0.52955  0.59010  Biso   1.000  C
  H18      1.0000 0.13390  0.56170  0.59180  Biso   1.000  H
  C55      1.0000 0.22366  0.49183  0.53410  Biso   1.000  C
  C56      1.0000 0.22824  0.41511  0.40410  Biso   1.000  C
  C57      1.0000 0.22380  0.56250  0.68920  Biso   1.000  C
  H19      1.0000 0.25570  0.48830  0.55370  Biso   1.000  H
  C58      1.0000 0.20690  0.37177  0.43480  Biso   1.000  C
  O27      1.0000 0.19938  0.59458  0.74630  Biso   1.000  O
  O28      1.0000 0.26567  0.55775  0.71390  Biso   1.000  O
  H20      1.0000 0.17710  0.37220  0.47560  Biso   1.000  H
  C59      1.0000 0.22723  0.32848  0.40820  Biso   1.000  C
  C60      1.0000 0.19980  0.28610  0.45680  Biso   1.000  C
  O29      1.0000 0.16301  0.29371  0.52050  Biso   1.000  O
  O30      1.0000 0.21480  0.24463  0.44010  Biso   1.000  O
  O31      1.0000 0.56124  0.98555  0.83600  Biso   1.000  O
  C61      1.0000 0.57823  0.01229  0.92780  Biso   1.000  C
  O32      1.0000 0.55487  0.04345  0.98880  Biso   1.000  O
  C62      1.0000 0.62885  0.00505  0.96750  Biso   1.000  C
  C63      1.0000 0.65410  0.96604  0.91620  Biso   1.000  C
  C64      1.0000 0.65068  0.03629  0.05540  Biso   1.000  C
  H21      1.0000 0.63890  0.94440  0.85920  Biso   1.000  H
  C65      1.0000 0.70151  0.95926  0.94940  Biso   1.000  C
  C66      1.0000 0.69900  0.02955  0.09010  Biso   1.000  C
  H22      1.0000 0.63390  0.06170  0.09180  Biso   1.000  H
  C67      1.0000 0.72366  0.99183  0.03410  Biso   1.000  C
  C68      1.0000 0.72824  0.91511  0.90410  Biso   1.000  C
  C69      1.0000 0.72380  0.06250  0.18920  Biso   1.000  C
  H23      1.0000 0.75570  0.98830  0.05370  Biso   1.000  H
  C70      1.0000 0.70690  0.87177  0.93480  Biso   1.000  C
  O33      1.0000 0.69938  0.09458  0.24630  Biso   1.000  O
  O34      1.0000 0.76567  0.05775  0.21390  Biso   1.000  O
  H24      1.0000 0.67710  0.87220  0.97560  Biso   1.000  H
  C71      1.0000 0.72723  0.82848  0.90820  Biso   1.000  C
  C72      1.0000 0.69980  0.78610  0.95680  Biso   1.000  C
  O35      1.0000 0.66301  0.79371  0.02050  Biso   1.000  O
  O36      1.0000 0.71480  0.74463  0.94010  Biso   1.000  O
  O37      1.0000 0.93876  0.51445  0.33600  Biso   1.000  O
  C73      1.0000 0.92177  0.48771  0.42780  Biso   1.000  C
  O38      1.0000 0.94513  0.45655  0.48880  Biso   1.000  O
  C74      1.0000 0.87115  0.49495  0.46750  Biso   1.000  C
  C75      1.0000 0.84590  0.53396  0.41620  Biso   1.000  C
  C76      1.0000 0.84932  0.46371  0.55540  Biso   1.000  C
  H25      1.0000 0.86110  0.55560  0.35920  Biso   1.000  H
  C77      1.0000 0.79849  0.54074  0.44940  Biso   1.000  C
  C78      1.0000 0.80100  0.47045  0.59010  Biso   1.000  C
  H26      1.0000 0.86610  0.43830  0.59180  Biso   1.000  H
  C79      1.0000 0.77634  0.50817  0.53410  Biso   1.000  C
  C80      1.0000 0.77176  0.58489  0.40410  Biso   1.000  C
  C81      1.0000 0.77620  0.43750  0.68920  Biso   1.000  C
  H27      1.0000 0.74430  0.51170  0.55370  Biso   1.000  H
  C82      1.0000 0.79310  0.62823  0.43480  Biso   1.000  C
  O39      1.0000 0.80062  0.40542  0.74630  Biso   1.000  O
  O40      1.0000 0.73433  0.44225  0.71390  Biso   1.000  O
  H28      1.0000 0.82290  0.62780  0.47560  Biso   1.000  H
  C83      1.0000 0.77277  0.67152  0.40820  Biso   1.000  C
  C84      1.0000 0.80020  0.71390  0.45680  Biso   1.000  C
  O41      1.0000 0.83699  0.70629  0.52050  Biso   1.000  O
  O42      1.0000 0.78520  0.75537  0.44010  Biso   1.000  O
  O43      1.0000 0.43876  0.01445  0.83600  Biso   1.000  O
  C85      1.0000 0.42177  0.98771  0.92780  Biso   1.000  C
  O44      1.0000 0.44513  0.95655  0.98880  Biso   1.000  O
  C86      1.0000 0.37115  0.99495  0.96750  Biso   1.000  C
  C87      1.0000 0.34590  0.03396  0.91620  Biso   1.000  C
  C88      1.0000 0.34932  0.96371  0.05540  Biso   1.000  C
  H29      1.0000 0.36110  0.05560  0.85920  Biso   1.000  H
  C89      1.0000 0.29849  0.04074  0.94940  Biso   1.000  C
  C90      1.0000 0.30100  0.97045  0.09010  Biso   1.000  C
  H30      1.0000 0.36610  0.93830  0.09180  Biso   1.000  H
  C91      1.0000 0.27634  0.00817  0.03410  Biso   1.000  C
  C92      1.0000 0.27176  0.08489  0.90410  Biso   1.000  C
  C93      1.0000 0.27620  0.93750  0.18920  Biso   1.000  C
  H31      1.0000 0.24430  0.01170  0.05370  Biso   1.000  H
  C94      1.0000 0.29310  0.12823  0.93480  Biso   1.000  C
  O45      1.0000 0.30062  0.90542  0.24630  Biso   1.000  O
  O46      1.0000 0.23433  0.94225  0.21390  Biso   1.000  O
  H32      1.0000 0.32290  0.12780  0.97560  Biso   1.000  H
  C95      1.0000 0.27277  0.17152  0.90820  Biso   1.000  C
  C96      1.0000 0.30020  0.21390  0.95680  Biso   1.000  C
  O47      1.0000 0.33699  0.20629  0.02050  Biso   1.000  O
  O48      1.0000 0.28520  0.25537  0.94010  Biso   1.000  O
  O49      1.0000 0.98555  0.06124  0.08600  Biso   1.000  O
  C97      1.0000 0.01229  0.07823  0.17780  Biso   1.000  C
  O50      1.0000 0.04345  0.05487  0.23880  Biso   1.000  O
  C98      1.0000 0.00505  0.12885  0.21750  Biso   1.000  C
  C99      1.0000 0.96604  0.15410  0.16620  Biso   1.000  C
  C100     1.0000 0.03629  0.15068  0.30540  Biso   1.000  C
  H33      1.0000 0.94440  0.13890  0.10920  Biso   1.000  H
  C101     1.0000 0.95926  0.20151  0.19940  Biso   1.000  C
  C102     1.0000 0.02955  0.19900  0.34010  Biso   1.000  C
  H34      1.0000 0.06170  0.13390  0.34180  Biso   1.000  H
  C103     1.0000 0.99183  0.22366  0.28410  Biso   1.000  C
  C104     1.0000 0.91511  0.22824  0.15410  Biso   1.000  C
  C105     1.0000 0.06250  0.22380  0.43920  Biso   1.000  C
  H35      1.0000 0.98830  0.25570  0.30370  Biso   1.000  H
  C106     1.0000 0.87177  0.20690  0.18480  Biso   1.000  C
  O51      1.0000 0.09458  0.19938  0.49630  Biso   1.000  O
  O52      1.0000 0.05775  0.26567  0.46390  Biso   1.000  O
  H36      1.0000 0.87220  0.17710  0.22560  Biso   1.000  H
  C107     1.0000 0.82848  0.22723  0.15820  Biso   1.000  C
  C108     1.0000 0.78610  0.19980  0.20680  Biso   1.000  C
  O53      1.0000 0.79371  0.16301  0.27050  Biso   1.000  O
  O54      1.0000 0.74463  0.21480  0.19010  Biso   1.000  O
  O55      1.0000 0.48555  0.56124  0.58600  Biso   1.000  O
  C109     1.0000 0.51229  0.57823  0.67780  Biso   1.000  C
  O56      1.0000 0.54345  0.55487  0.73880  Biso   1.000  O
  C110     1.0000 0.50505  0.62885  0.71750  Biso   1.000  C
  C111     1.0000 0.46604  0.65410  0.66620  Biso   1.000  C
  C112     1.0000 0.53629  0.65068  0.80540  Biso   1.000  C
  H37      1.0000 0.44440  0.63890  0.60920  Biso   1.000  H
  C113     1.0000 0.45926  0.70151  0.69940  Biso   1.000  C
  C114     1.0000 0.52955  0.69900  0.84010  Biso   1.000  C
  H38      1.0000 0.56170  0.63390  0.84180  Biso   1.000  H
  C115     1.0000 0.49183  0.72366  0.78410  Biso   1.000  C
  C116     1.0000 0.41511  0.72824  0.65410  Biso   1.000  C
  C117     1.0000 0.56250  0.72380  0.93920  Biso   1.000  C
  H39      1.0000 0.48830  0.75570  0.80370  Biso   1.000  H
  C118     1.0000 0.37177  0.70690  0.68480  Biso   1.000  C
  O57      1.0000 0.59458  0.69938  0.99630  Biso   1.000  O
  O58      1.0000 0.55775  0.76567  0.96390  Biso   1.000  O
  H40      1.0000 0.37220  0.67710  0.72560  Biso   1.000  H
  C119     1.0000 0.32848  0.72723  0.65820  Biso   1.000  C
  C120     1.0000 0.28610  0.69980  0.70680  Biso   1.000  C
  O59      1.0000 0.29371  0.66301  0.77050  Biso   1.000  O
  O60      1.0000 0.24463  0.71480  0.69010  Biso   1.000  O
  O61      1.0000 0.01445  0.93876  0.08600  Biso   1.000  O
  C121     1.0000 0.98771  0.92177  0.17780  Biso   1.000  C
  O62      1.0000 0.95655  0.94513  0.23880  Biso   1.000  O
  C122     1.0000 0.99495  0.87115  0.21750  Biso   1.000  C
  C123     1.0000 0.03396  0.84590  0.16620  Biso   1.000  C
  C124     1.0000 0.96371  0.84932  0.30540  Biso   1.000  C
  H41      1.0000 0.05560  0.86110  0.10920  Biso   1.000  H
  C125     1.0000 0.04074  0.79849  0.19940  Biso   1.000  C
  C126     1.0000 0.97045  0.80100  0.34010  Biso   1.000  C
  H42      1.0000 0.93830  0.86610  0.34180  Biso   1.000  H
  C127     1.0000 0.00817  0.77634  0.28410  Biso   1.000  C
  C128     1.0000 0.08489  0.77176  0.15410  Biso   1.000  C
  C129     1.0000 0.93750  0.77620  0.43920  Biso   1.000  C
  H43      1.0000 0.01170  0.74430  0.30370  Biso   1.000  H
  C130     1.0000 0.12823  0.79310  0.18480  Biso   1.000  C
  O63      1.0000 0.90542  0.80062  0.49630  Biso   1.000  O
  O64      1.0000 0.94225  0.73433  0.46390  Biso   1.000  O
  H44      1.0000 0.12780  0.82290  0.22560  Biso   1.000  H
  C131     1.0000 0.17152  0.77277  0.15820  Biso   1.000  C
  C132     1.0000 0.21390  0.80020  0.20680  Biso   1.000  C
  O65      1.0000 0.20629  0.83699  0.27050  Biso   1.000  O
  O66      1.0000 0.25537  0.78520  0.19010  Biso   1.000  O
  O67      1.0000 0.51445  0.43876  0.58600  Biso   1.000  O
  C133     1.0000 0.48771  0.42177  0.67780  Biso   1.000  C
  O68      1.0000 0.45655  0.44513  0.73880  Biso   1.000  O
  C134     1.0000 0.49495  0.37115  0.71750  Biso   1.000  C
  C135     1.0000 0.53396  0.34590  0.66620  Biso   1.000  C
  C136     1.0000 0.46371  0.34932  0.80540  Biso   1.000  C
  H45      1.0000 0.55560  0.36110  0.60920  Biso   1.000  H
  C137     1.0000 0.54074  0.29849  0.69940  Biso   1.000  C
  C138     1.0000 0.47045  0.30100  0.84010  Biso   1.000  C
  H46      1.0000 0.43830  0.36610  0.84180  Biso   1.000  H
  C139     1.0000 0.50817  0.27634  0.78410  Biso   1.000  C
  C140     1.0000 0.58489  0.27176  0.65410  Biso   1.000  C
  C141     1.0000 0.43750  0.27620  0.93920  Biso   1.000  C
  H47      1.0000 0.51170  0.24430  0.80370  Biso   1.000  H
  C142     1.0000 0.62823  0.29310  0.68480  Biso   1.000  C
  O69      1.0000 0.40542  0.30062  0.99630  Biso   1.000  O
  O70      1.0000 0.44225  0.23433  0.96390  Biso   1.000  O
  H48      1.0000 0.62780  0.32290  0.72560  Biso   1.000  H
  C143     1.0000 0.67152  0.27277  0.65820  Biso   1.000  C
  C144     1.0000 0.71390  0.30020  0.70680  Biso   1.000  C
  O71      1.0000 0.70629  0.33699  0.77050  Biso   1.000  O
  O72      1.0000 0.75537  0.28520  0.69010  Biso   1.000  O
  O73      1.0000 0.43876  0.48555  0.41400  Biso   1.000  O
  C145     1.0000 0.42177  0.51229  0.32220  Biso   1.000  C
  O74      1.0000 0.44513  0.54345  0.26120  Biso   1.000  O
  C146     1.0000 0.37115  0.50505  0.28250  Biso   1.000  C
  C147     1.0000 0.34590  0.46604  0.33380  Biso   1.000  C
  C148     1.0000 0.34932  0.53629  0.19460  Biso   1.000  C
  H49      1.0000 0.36110  0.44440  0.39080  Biso   1.000  H
  C149     1.0000 0.29849  0.45926  0.30060  Biso   1.000  C
  C150     1.0000 0.30100  0.52955  0.15990  Biso   1.000  C
  H50      1.0000 0.36610  0.56170  0.15820  Biso   1.000  H
  C151     1.0000 0.27634  0.49183  0.21590  Biso   1.000  C
  C152     1.0000 0.27176  0.41511  0.34590  Biso   1.000  C
  C153     1.0000 0.27620  0.56250  0.06080  Biso   1.000  C
  H51      1.0000 0.24430  0.48830  0.19630  Biso   1.000  H
  C154     1.0000 0.29310  0.37177  0.31520  Biso   1.000  C
  O75      1.0000 0.30062  0.59458  0.00370  Biso   1.000  O
  O76      1.0000 0.23433  0.55775  0.03610  Biso   1.000  O
  H52      1.0000 0.32290  0.37220  0.27440  Biso   1.000  H
  C155     1.0000 0.27277  0.32848  0.34180  Biso   1.000  C
  C156     1.0000 0.30020  0.28610  0.29320  Biso   1.000  C
  O77      1.0000 0.33699  0.29371  0.22950  Biso   1.000  O
  O78      1.0000 0.28520  0.24463  0.30990  Biso   1.000  O
  O79      1.0000 0.93876  0.98555  0.91400  Biso   1.000  O
  C157     1.0000 0.92177  0.01229  0.82220  Biso   1.000  C
  O80      1.0000 0.94513  0.04345  0.76120  Biso   1.000  O
  C158     1.0000 0.87115  0.00505  0.78250  Biso   1.000  C
  C159     1.0000 0.84590  0.96604  0.83380  Biso   1.000  C
  C160     1.0000 0.84932  0.03629  0.69460  Biso   1.000  C
  H53      1.0000 0.86110  0.94440  0.89080  Biso   1.000  H
  C161     1.0000 0.79849  0.95926  0.80060  Biso   1.000  C
  C162     1.0000 0.80100  0.02955  0.65990  Biso   1.000  C
  H54      1.0000 0.86610  0.06170  0.65820  Biso   1.000  H
  C163     1.0000 0.77634  0.99183  0.71590  Biso   1.000  C
  C164     1.0000 0.77176  0.91511  0.84590  Biso   1.000  C
  C165     1.0000 0.77620  0.06250  0.56080  Biso   1.000  C
  H55      1.0000 0.74430  0.98830  0.69630  Biso   1.000  H
  C166     1.0000 0.79310  0.87177  0.81520  Biso   1.000  C
  O81      1.0000 0.80062  0.09458  0.50370  Biso   1.000  O
  O82      1.0000 0.73433  0.05775  0.53610  Biso   1.000  O
  H56      1.0000 0.82290  0.87220  0.77440  Biso   1.000  H
  C167     1.0000 0.77277  0.82848  0.84180  Biso   1.000  C
  C168     1.0000 0.80020  0.78610  0.79320  Biso   1.000  C
  O83      1.0000 0.83699  0.79371  0.72950  Biso   1.000  O
  O84      1.0000 0.78520  0.74463  0.80990  Biso   1.000  O
  O85      1.0000 0.56124  0.51445  0.41400  Biso   1.000  O
  C169     1.0000 0.57823  0.48771  0.32220  Biso   1.000  C
  O86      1.0000 0.55487  0.45655  0.26120  Biso   1.000  O
  C170     1.0000 0.62885  0.49495  0.28250  Biso   1.000  C
  C171     1.0000 0.65410  0.53396  0.33380  Biso   1.000  C
  C172     1.0000 0.65068  0.46371  0.19460  Biso   1.000  C
  H57      1.0000 0.63890  0.55560  0.39080  Biso   1.000  H
  C173     1.0000 0.70151  0.54074  0.30060  Biso   1.000  C
  C174     1.0000 0.69900  0.47045  0.15990  Biso   1.000  C
  H58      1.0000 0.63390  0.43830  0.15820  Biso   1.000  H
  C175     1.0000 0.72366  0.50817  0.21590  Biso   1.000  C
  C176     1.0000 0.72824  0.58489  0.34590  Biso   1.000  C
  C177     1.0000 0.72380  0.43750  0.06080  Biso   1.000  C
  H59      1.0000 0.75570  0.51170  0.19630  Biso   1.000  H
  C178     1.0000 0.70690  0.62823  0.31520  Biso   1.000  C
  O87      1.0000 0.69938  0.40542  0.00370  Biso   1.000  O
  O88      1.0000 0.76567  0.44225  0.03610  Biso   1.000  O
  H60      1.0000 0.67710  0.62780  0.27440  Biso   1.000  H
  C179     1.0000 0.72723  0.67152  0.34180  Biso   1.000  C
  C180     1.0000 0.69980  0.71390  0.29320  Biso   1.000  C
  O89      1.0000 0.66301  0.70629  0.22950  Biso   1.000  O
  O90      1.0000 0.71480  0.75537  0.30990  Biso   1.000  O
  O91      1.0000 0.06124  0.01445  0.91400  Biso   1.000  O
  C181     1.0000 0.07823  0.98771  0.82220  Biso   1.000  C
  O92      1.0000 0.05487  0.95655  0.76120  Biso   1.000  O
  C182     1.0000 0.12885  0.99495  0.78250  Biso   1.000  C
  C183     1.0000 0.15410  0.03396  0.83380  Biso   1.000  C
  C184     1.0000 0.15068  0.96371  0.69460  Biso   1.000  C
  H61      1.0000 0.13890  0.05560  0.89080  Biso   1.000  H
  C185     1.0000 0.20151  0.04074  0.80060  Biso   1.000  C
  C186     1.0000 0.19900  0.97045  0.65990  Biso   1.000  C
  H62      1.0000 0.13390  0.93830  0.65820  Biso   1.000  H
  C187     1.0000 0.22366  0.00817  0.71590  Biso   1.000  C
  C188     1.0000 0.22824  0.08489  0.84590  Biso   1.000  C
  C189     1.0000 0.22380  0.93750  0.56080  Biso   1.000  C
  H63      1.0000 0.25570  0.01170  0.69630  Biso   1.000  H
  C190     1.0000 0.20690  0.12823  0.81520  Biso   1.000  C
  O93      1.0000 0.19938  0.90542  0.50370  Biso   1.000  O
  O94      1.0000 0.26567  0.94225  0.53610  Biso   1.000  O
  H64      1.0000 0.17710  0.12780  0.77440  Biso   1.000  H
  C191     1.0000 0.22723  0.17152  0.84180  Biso   1.000  C
  C192     1.0000 0.19980  0.21390  0.79320  Biso   1.000  C
  O95      1.0000 0.16301  0.20629  0.72950  Biso   1.000  O
  O96      1.0000 0.21480  0.25537  0.80990  Biso   1.000  O
  Zn1      1.0000 0.50000  0.00000  0.75000  Biso   1.000  Zn
  Zn2      1.0000 0.00000  0.50000  0.25000  Biso   1.000  Zn
  Zn3      1.0000 0.00000  0.00000  0.00000  Biso   1.000  Zn
  Zn4      1.0000 0.50000  0.50000  0.50000  Biso   1.000  Zn
  Zn5      1.0000 0.37941  0.25000  0.12500  Biso   1.000  Zn
  Zn6      1.0000 0.62059  0.75000  0.12500  Biso   1.000  Zn
  Zn7      1.0000 0.12059  0.25000  0.62500  Biso   1.000  Zn
  Zn8      1.0000 0.25000  0.62059  0.87500  Biso   1.000  Zn
  Zn9      1.0000 0.75000  0.12059  0.37500  Biso   1.000  Zn
  Zn10     1.0000 0.75000  0.37941  0.87500  Biso   1.000  Zn
  Zn11     1.0000 0.25000  0.87941  0.37500  Biso   1.000  Zn
  Zn12     1.0000 0.87941  0.75000  0.62500  Biso   1.000  Zn
  H65      1.0000 0.75200  0.25000  0.62500  Biso   1.000  H
  H66      1.0000 0.24800  0.75000  0.62500  Biso   1.000  H
  H67      1.0000 0.25000  0.24800  0.37500  Biso   1.000  H
  H68      1.0000 0.75000  0.74800  0.87500  Biso   1.000  H
  H69      1.0000 0.75000  0.75200  0.37500  Biso   1.000  H
  H70      1.0000 0.25000  0.25200  0.87500  Biso   1.000  H
  H71      1.0000 0.74800  0.25000  0.12500  Biso   1.000  H
  H72      1.0000 0.25200  0.75000  0.12500  Biso   1.000  H
