data_image0
_cell_length_a       19.7665
_cell_length_b       15.8012
_cell_length_c       16.968
_cell_angle_alpha    90
_cell_angle_beta     90
_cell_angle_gamma    90

_symmetry_space_group_name_H-M    "P 1"
_symmetry_int_tables_number       1

loop_
  _symmetry_equiv_pos_as_xyz
  'x, y, z'

loop_
  _atom_site_label
  _atom_site_occupancy
  _atom_site_fract_x
  _atom_site_fract_y
  _atom_site_fract_z
  _atom_site_thermal_displace_type
  _atom_site_B_iso_or_equiv
  _atom_site_type_symbol
  C1       1.0000 0.14700  0.42480  0.20370  Biso   1.000  C
  H1       1.0000 0.11720  0.41980  0.24590  Biso   1.000  H
  C2       1.0000 0.22970  0.40090  0.12590  Biso   1.000  C
  H2       1.0000 0.26790  0.37770  0.10240  Biso   1.000  H
  C3       1.0000 0.21780  0.29750  0.23470  Biso   1.000  C
  C4       1.0000 0.21370  0.29870  0.31620  Biso   1.000  C
  H3       1.0000 0.20240  0.34840  0.34250  Biso   1.000  H
  C5       1.0000 0.22650  0.22560  0.35800  Biso   1.000  C
  H4       1.0000 0.22300  0.22560  0.41260  Biso   1.000  H
  C6       1.0000 0.24480  0.15180  0.31870  Biso   1.000  C
  C7       1.0000 0.24940  0.15130  0.23720  Biso   1.000  C
  H5       1.0000 0.26180  0.10200  0.21100  Biso   1.000  H
  C8       1.0000 0.23550  0.22510  0.19420  Biso   1.000  C
  H6       1.0000 0.23810  0.22520  0.13950  Biso   1.000  H
  C9       1.0000 0.25980  0.07200  0.36460  Biso   1.000  C
  C10      1.0000 0.09390  0.64220  0.98160  Biso   1.000  C
  H7       1.0000 0.11470  0.68730  0.00720  Biso   1.000  H
  C11      1.0000 0.02040  0.56410  0.92200  Biso   1.000  C
  H8       1.0000 0.98020  0.54570  0.89910  Biso   1.000  H
  C12      1.0000 0.97840  0.70600  0.96370  Biso   1.000  C
  C13      1.0000 0.91340  0.68390  0.98070  Biso   1.000  C
  H9       1.0000 0.90150  0.62740  0.98710  Biso   1.000  H
  C14      1.0000 0.86560  0.74730  0.98810  Biso   1.000  C
  H10      1.0000 0.82120  0.73310  0.00090  Biso   1.000  H
  C15      1.0000 0.88240  0.83070  0.97700  Biso   1.000  C
  C16      1.0000 0.94880  0.85260  0.95880  Biso   1.000  C
  H11      1.0000 0.96050  0.90920  0.95200  Biso   1.000  H
  C17      1.0000 0.99730  0.79020  0.95090  Biso   1.000  C
  H12      1.0000 0.04150  0.80390  0.93730  Biso   1.000  H
  C18      1.0000 0.82990  0.89970  0.98310  Biso   1.000  C
  N1       1.0000 0.14310  0.48270  0.15080  Biso   1.000  N
  N2       1.0000 0.19720  0.46730  0.10000  Biso   1.000  N
  N3       1.0000 0.20020  0.37140  0.19080  Biso   1.000  N
  N4       1.0000 0.07600  0.51890  0.92630  Biso   1.000  N
  N5       1.0000 0.12290  0.56950  0.96550  Biso   1.000  N
  N6       1.0000 0.02910  0.64150  0.95550  Biso   1.000  N
  O1       1.0000 0.26330  0.00360  0.33070  Biso   1.000  O
  O2       1.0000 0.26890  0.08260  0.43800  Biso   1.000  O
  O3       1.0000 0.77000  0.87530  0.99810  Biso   1.000  O
  O4       1.0000 0.84530  0.97450  0.97560  Biso   1.000  O
  Zn1      1.0000 0.21462  0.52288  0.99343  Biso   1.000  Zn
  C19      1.0000 0.35300  0.07520  0.70370  Biso   1.000  C
  H13      1.0000 0.38280  0.08020  0.74590  Biso   1.000  H
  C20      1.0000 0.27030  0.09910  0.62590  Biso   1.000  C
  H14      1.0000 0.23210  0.12230  0.60240  Biso   1.000  H
  C21      1.0000 0.28220  0.20250  0.73470  Biso   1.000  C
  C22      1.0000 0.28630  0.20130  0.81620  Biso   1.000  C
  H15      1.0000 0.29760  0.15160  0.84250  Biso   1.000  H
  C23      1.0000 0.27350  0.27440  0.85800  Biso   1.000  C
  H16      1.0000 0.27700  0.27440  0.91260  Biso   1.000  H
  C24      1.0000 0.25520  0.34820  0.81870  Biso   1.000  C
  C25      1.0000 0.25060  0.34870  0.73720  Biso   1.000  C
  H17      1.0000 0.23820  0.39800  0.71100  Biso   1.000  H
  C26      1.0000 0.26450  0.27490  0.69420  Biso   1.000  C
  H18      1.0000 0.26190  0.27480  0.63950  Biso   1.000  H
  C27      1.0000 0.24020  0.42800  0.86460  Biso   1.000  C
  C28      1.0000 0.40610  0.85780  0.48160  Biso   1.000  C
  H19      1.0000 0.38530  0.81270  0.50720  Biso   1.000  H
  C29      1.0000 0.47960  0.93590  0.42200  Biso   1.000  C
  H20      1.0000 0.51980  0.95430  0.39910  Biso   1.000  H
  C30      1.0000 0.52160  0.79400  0.46370  Biso   1.000  C
  C31      1.0000 0.58660  0.81610  0.48070  Biso   1.000  C
  H21      1.0000 0.59850  0.87260  0.48710  Biso   1.000  H
  C32      1.0000 0.63440  0.75270  0.48810  Biso   1.000  C
  H22      1.0000 0.67880  0.76690  0.50090  Biso   1.000  H
  C33      1.0000 0.61760  0.66930  0.47700  Biso   1.000  C
  C34      1.0000 0.55120  0.64740  0.45880  Biso   1.000  C
  H23      1.0000 0.53950  0.59080  0.45200  Biso   1.000  H
  C35      1.0000 0.50270  0.70980  0.45090  Biso   1.000  C
  H24      1.0000 0.45850  0.69610  0.43730  Biso   1.000  H
  C36      1.0000 0.67010  0.60030  0.48310  Biso   1.000  C
  N7       1.0000 0.35690  0.01730  0.65080  Biso   1.000  N
  N8       1.0000 0.30280  0.03270  0.60000  Biso   1.000  N
  N9       1.0000 0.29980  0.12860  0.69080  Biso   1.000  N
  N10      1.0000 0.42400  0.98110  0.42630  Biso   1.000  N
  N11      1.0000 0.37710  0.93050  0.46550  Biso   1.000  N
  N12      1.0000 0.47090  0.85850  0.45550  Biso   1.000  N
  O5       1.0000 0.23670  0.49640  0.83070  Biso   1.000  O
  O6       1.0000 0.23110  0.41740  0.93800  Biso   1.000  O
  O7       1.0000 0.73000  0.62470  0.49810  Biso   1.000  O
  O8       1.0000 0.65470  0.52550  0.47560  Biso   1.000  O
  Zn2      1.0000 0.28538  0.97712  0.49343  Biso   1.000  Zn
  C37      1.0000 0.85300  0.42480  0.29630  Biso   1.000  C
  H25      1.0000 0.88280  0.41980  0.25410  Biso   1.000  H
  C38      1.0000 0.77030  0.40090  0.37410  Biso   1.000  C
  H26      1.0000 0.73210  0.37770  0.39760  Biso   1.000  H
  C39      1.0000 0.78220  0.29750  0.26530  Biso   1.000  C
  C40      1.0000 0.78630  0.29870  0.18380  Biso   1.000  C
  H27      1.0000 0.79760  0.34840  0.15750  Biso   1.000  H
  C41      1.0000 0.77350  0.22560  0.14200  Biso   1.000  C
  H28      1.0000 0.77700  0.22560  0.08740  Biso   1.000  H
  C42      1.0000 0.75520  0.15180  0.18130  Biso   1.000  C
  C43      1.0000 0.75060  0.15130  0.26280  Biso   1.000  C
  H29      1.0000 0.73820  0.10200  0.28900  Biso   1.000  H
  C44      1.0000 0.76450  0.22510  0.30580  Biso   1.000  C
  H30      1.0000 0.76190  0.22520  0.36050  Biso   1.000  H
  C45      1.0000 0.74020  0.07200  0.13540  Biso   1.000  C
  C46      1.0000 0.90610  0.64220  0.51840  Biso   1.000  C
  H31      1.0000 0.88530  0.68730  0.49280  Biso   1.000  H
  C47      1.0000 0.97960  0.56410  0.57800  Biso   1.000  C
  H32      1.0000 0.01980  0.54570  0.60090  Biso   1.000  H
  C48      1.0000 0.02160  0.70600  0.53630  Biso   1.000  C
  C49      1.0000 0.08660  0.68390  0.51930  Biso   1.000  C
  H33      1.0000 0.09850  0.62740  0.51290  Biso   1.000  H
  C50      1.0000 0.13440  0.74730  0.51190  Biso   1.000  C
  H34      1.0000 0.17880  0.73310  0.49910  Biso   1.000  H
  C51      1.0000 0.11760  0.83070  0.52300  Biso   1.000  C
  C52      1.0000 0.05120  0.85260  0.54120  Biso   1.000  C
  H35      1.0000 0.03950  0.90920  0.54800  Biso   1.000  H
  C53      1.0000 0.00270  0.79020  0.54910  Biso   1.000  C
  H36      1.0000 0.95850  0.80390  0.56270  Biso   1.000  H
  C54      1.0000 0.17010  0.89970  0.51690  Biso   1.000  C
  N13      1.0000 0.85690  0.48270  0.34920  Biso   1.000  N
  N14      1.0000 0.80280  0.46730  0.40000  Biso   1.000  N
  N15      1.0000 0.79980  0.37140  0.30920  Biso   1.000  N
  N16      1.0000 0.92400  0.51890  0.57370  Biso   1.000  N
  N17      1.0000 0.87710  0.56950  0.53450  Biso   1.000  N
  N18      1.0000 0.97090  0.64150  0.54450  Biso   1.000  N
  O9       1.0000 0.73670  0.00360  0.16930  Biso   1.000  O
  O10      1.0000 0.73110  0.08260  0.06200  Biso   1.000  O
  O11      1.0000 0.23000  0.87530  0.50190  Biso   1.000  O
  O12      1.0000 0.15470  0.97450  0.52440  Biso   1.000  O
  Zn3      1.0000 0.78538  0.52288  0.50657  Biso   1.000  Zn
  C55      1.0000 0.64700  0.07520  0.79630  Biso   1.000  C
  H37      1.0000 0.61720  0.08020  0.75410  Biso   1.000  H
  C56      1.0000 0.72970  0.09910  0.87410  Biso   1.000  C
  H38      1.0000 0.76790  0.12230  0.89760  Biso   1.000  H
  C57      1.0000 0.71780  0.20250  0.76530  Biso   1.000  C
  C58      1.0000 0.71370  0.20130  0.68380  Biso   1.000  C
  H39      1.0000 0.70240  0.15160  0.65750  Biso   1.000  H
  C59      1.0000 0.72650  0.27440  0.64200  Biso   1.000  C
  H40      1.0000 0.72300  0.27440  0.58740  Biso   1.000  H
  C60      1.0000 0.74480  0.34820  0.68130  Biso   1.000  C
  C61      1.0000 0.74940  0.34870  0.76280  Biso   1.000  C
  H41      1.0000 0.76180  0.39800  0.78900  Biso   1.000  H
  C62      1.0000 0.73550  0.27490  0.80580  Biso   1.000  C
  H42      1.0000 0.73810  0.27480  0.86050  Biso   1.000  H
  C63      1.0000 0.75980  0.42800  0.63540  Biso   1.000  C
  C64      1.0000 0.59390  0.85780  0.01840  Biso   1.000  C
  H43      1.0000 0.61470  0.81270  0.99280  Biso   1.000  H
  C65      1.0000 0.52040  0.93590  0.07800  Biso   1.000  C
  H44      1.0000 0.48020  0.95430  0.10090  Biso   1.000  H
  C66      1.0000 0.47840  0.79400  0.03630  Biso   1.000  C
  C67      1.0000 0.41340  0.81610  0.01930  Biso   1.000  C
  H45      1.0000 0.40150  0.87260  0.01290  Biso   1.000  H
  C68      1.0000 0.36560  0.75270  0.01190  Biso   1.000  C
  H46      1.0000 0.32120  0.76690  0.99910  Biso   1.000  H
  C69      1.0000 0.38240  0.66930  0.02300  Biso   1.000  C
  C70      1.0000 0.44880  0.64740  0.04120  Biso   1.000  C
  H47      1.0000 0.46050  0.59080  0.04800  Biso   1.000  H
  C71      1.0000 0.49730  0.70980  0.04910  Biso   1.000  C
  H48      1.0000 0.54150  0.69610  0.06270  Biso   1.000  H
  C72      1.0000 0.32990  0.60030  0.01690  Biso   1.000  C
  N19      1.0000 0.64310  0.01730  0.84920  Biso   1.000  N
  N20      1.0000 0.69720  0.03270  0.90000  Biso   1.000  N
  N21      1.0000 0.70020  0.12860  0.80920  Biso   1.000  N
  N22      1.0000 0.57600  0.98110  0.07370  Biso   1.000  N
  N23      1.0000 0.62290  0.93050  0.03450  Biso   1.000  N
  N24      1.0000 0.52910  0.85850  0.04450  Biso   1.000  N
  O13      1.0000 0.76330  0.49640  0.66930  Biso   1.000  O
  O14      1.0000 0.76890  0.41740  0.56200  Biso   1.000  O
  O15      1.0000 0.27000  0.62470  0.00190  Biso   1.000  O
  O16      1.0000 0.34530  0.52550  0.02440  Biso   1.000  O
  Zn4      1.0000 0.71462  0.97712  0.00657  Biso   1.000  Zn
  C73      1.0000 0.85300  0.57520  0.79630  Biso   1.000  C
  H49      1.0000 0.88280  0.58020  0.75410  Biso   1.000  H
  C74      1.0000 0.77030  0.59910  0.87410  Biso   1.000  C
  H50      1.0000 0.73210  0.62230  0.89760  Biso   1.000  H
  C75      1.0000 0.78220  0.70250  0.76530  Biso   1.000  C
  C76      1.0000 0.78630  0.70130  0.68380  Biso   1.000  C
  H51      1.0000 0.79760  0.65160  0.65750  Biso   1.000  H
  C77      1.0000 0.77350  0.77440  0.64200  Biso   1.000  C
  H52      1.0000 0.77700  0.77440  0.58740  Biso   1.000  H
  C78      1.0000 0.75520  0.84820  0.68130  Biso   1.000  C
  C79      1.0000 0.75060  0.84870  0.76280  Biso   1.000  C
  H53      1.0000 0.73820  0.89800  0.78900  Biso   1.000  H
  C80      1.0000 0.76450  0.77490  0.80580  Biso   1.000  C
  H54      1.0000 0.76190  0.77480  0.86050  Biso   1.000  H
  C81      1.0000 0.74020  0.92800  0.63540  Biso   1.000  C
  C82      1.0000 0.90610  0.35780  0.01840  Biso   1.000  C
  H55      1.0000 0.88530  0.31270  0.99280  Biso   1.000  H
  C83      1.0000 0.97960  0.43590  0.07800  Biso   1.000  C
  H56      1.0000 0.01980  0.45430  0.10090  Biso   1.000  H
  C84      1.0000 0.02160  0.29400  0.03630  Biso   1.000  C
  C85      1.0000 0.08660  0.31610  0.01930  Biso   1.000  C
  H57      1.0000 0.09850  0.37260  0.01290  Biso   1.000  H
  C86      1.0000 0.13440  0.25270  0.01190  Biso   1.000  C
  H58      1.0000 0.17880  0.26690  0.99910  Biso   1.000  H
  C87      1.0000 0.11760  0.16930  0.02300  Biso   1.000  C
  C88      1.0000 0.05120  0.14740  0.04120  Biso   1.000  C
  H59      1.0000 0.03950  0.09080  0.04800  Biso   1.000  H
  C89      1.0000 0.00270  0.20980  0.04910  Biso   1.000  C
  H60      1.0000 0.95850  0.19610  0.06270  Biso   1.000  H
  C90      1.0000 0.17010  0.10030  0.01690  Biso   1.000  C
  N25      1.0000 0.85690  0.51730  0.84920  Biso   1.000  N
  N26      1.0000 0.80280  0.53270  0.90000  Biso   1.000  N
  N27      1.0000 0.79980  0.62860  0.80920  Biso   1.000  N
  N28      1.0000 0.92400  0.48110  0.07370  Biso   1.000  N
  N29      1.0000 0.87710  0.43050  0.03450  Biso   1.000  N
  N30      1.0000 0.97090  0.35850  0.04450  Biso   1.000  N
  O17      1.0000 0.73670  0.99640  0.66930  Biso   1.000  O
  O18      1.0000 0.73110  0.91740  0.56200  Biso   1.000  O
  O19      1.0000 0.23000  0.12470  0.00190  Biso   1.000  O
  O20      1.0000 0.15470  0.02550  0.02440  Biso   1.000  O
  Zn5      1.0000 0.78538  0.47712  0.00657  Biso   1.000  Zn
  C91      1.0000 0.64700  0.92480  0.29630  Biso   1.000  C
  H61      1.0000 0.61720  0.91980  0.25410  Biso   1.000  H
  C92      1.0000 0.72970  0.90090  0.37410  Biso   1.000  C
  H62      1.0000 0.76790  0.87770  0.39760  Biso   1.000  H
  C93      1.0000 0.71780  0.79750  0.26530  Biso   1.000  C
  C94      1.0000 0.71370  0.79870  0.18380  Biso   1.000  C
  H63      1.0000 0.70240  0.84840  0.15750  Biso   1.000  H
  C95      1.0000 0.72650  0.72560  0.14200  Biso   1.000  C
  H64      1.0000 0.72300  0.72560  0.08740  Biso   1.000  H
  C96      1.0000 0.74480  0.65180  0.18130  Biso   1.000  C
  C97      1.0000 0.74940  0.65130  0.26280  Biso   1.000  C
  H65      1.0000 0.76180  0.60200  0.28900  Biso   1.000  H
  C98      1.0000 0.73550  0.72510  0.30580  Biso   1.000  C
  H66      1.0000 0.73810  0.72520  0.36050  Biso   1.000  H
  C99      1.0000 0.75980  0.57200  0.13540  Biso   1.000  C
  C100     1.0000 0.59390  0.14220  0.51840  Biso   1.000  C
  H67      1.0000 0.61470  0.18730  0.49280  Biso   1.000  H
  C101     1.0000 0.52040  0.06410  0.57800  Biso   1.000  C
  H68      1.0000 0.48020  0.04570  0.60090  Biso   1.000  H
  C102     1.0000 0.47840  0.20600  0.53630  Biso   1.000  C
  C103     1.0000 0.41340  0.18390  0.51930  Biso   1.000  C
  H69      1.0000 0.40150  0.12740  0.51290  Biso   1.000  H
  C104     1.0000 0.36560  0.24730  0.51190  Biso   1.000  C
  H70      1.0000 0.32120  0.23310  0.49910  Biso   1.000  H
  C105     1.0000 0.38240  0.33070  0.52300  Biso   1.000  C
  C106     1.0000 0.44880  0.35260  0.54120  Biso   1.000  C
  H71      1.0000 0.46050  0.40920  0.54800  Biso   1.000  H
  C107     1.0000 0.49730  0.29020  0.54910  Biso   1.000  C
  H72      1.0000 0.54150  0.30390  0.56270  Biso   1.000  H
  C108     1.0000 0.32990  0.39970  0.51690  Biso   1.000  C
  N31      1.0000 0.64310  0.98270  0.34920  Biso   1.000  N
  N32      1.0000 0.69720  0.96730  0.40000  Biso   1.000  N
  N33      1.0000 0.70020  0.87140  0.30920  Biso   1.000  N
  N34      1.0000 0.57600  0.01890  0.57370  Biso   1.000  N
  N35      1.0000 0.62290  0.06950  0.53450  Biso   1.000  N
  N36      1.0000 0.52910  0.14150  0.54450  Biso   1.000  N
  O21      1.0000 0.76330  0.50360  0.16930  Biso   1.000  O
  O22      1.0000 0.76890  0.58260  0.06200  Biso   1.000  O
  O23      1.0000 0.27000  0.37530  0.50190  Biso   1.000  O
  O24      1.0000 0.34530  0.47450  0.52440  Biso   1.000  O
  Zn6      1.0000 0.71462  0.02288  0.50657  Biso   1.000  Zn
  C109     1.0000 0.14700  0.57520  0.70370  Biso   1.000  C
  H73      1.0000 0.11720  0.58020  0.74590  Biso   1.000  H
  C110     1.0000 0.22970  0.59910  0.62590  Biso   1.000  C
  H74      1.0000 0.26790  0.62230  0.60240  Biso   1.000  H
  C111     1.0000 0.21780  0.70250  0.73470  Biso   1.000  C
  C112     1.0000 0.21370  0.70130  0.81620  Biso   1.000  C
  H75      1.0000 0.20240  0.65160  0.84250  Biso   1.000  H
  C113     1.0000 0.22650  0.77440  0.85800  Biso   1.000  C
  H76      1.0000 0.22300  0.77440  0.91260  Biso   1.000  H
  C114     1.0000 0.24480  0.84820  0.81870  Biso   1.000  C
  C115     1.0000 0.24940  0.84870  0.73720  Biso   1.000  C
  H77      1.0000 0.26180  0.89800  0.71100  Biso   1.000  H
  C116     1.0000 0.23550  0.77490  0.69420  Biso   1.000  C
  H78      1.0000 0.23810  0.77480  0.63950  Biso   1.000  H
  C117     1.0000 0.25980  0.92800  0.86460  Biso   1.000  C
  C118     1.0000 0.09390  0.35780  0.48160  Biso   1.000  C
  H79      1.0000 0.11470  0.31270  0.50720  Biso   1.000  H
  C119     1.0000 0.02040  0.43590  0.42200  Biso   1.000  C
  H80      1.0000 0.98020  0.45430  0.39910  Biso   1.000  H
  C120     1.0000 0.97840  0.29400  0.46370  Biso   1.000  C
  C121     1.0000 0.91340  0.31610  0.48070  Biso   1.000  C
  H81      1.0000 0.90150  0.37260  0.48710  Biso   1.000  H
  C122     1.0000 0.86560  0.25270  0.48810  Biso   1.000  C
  H82      1.0000 0.82120  0.26690  0.50090  Biso   1.000  H
  C123     1.0000 0.88240  0.16930  0.47700  Biso   1.000  C
  C124     1.0000 0.94880  0.14740  0.45880  Biso   1.000  C
  H83      1.0000 0.96050  0.09080  0.45200  Biso   1.000  H
  C125     1.0000 0.99730  0.20980  0.45090  Biso   1.000  C
  H84      1.0000 0.04150  0.19610  0.43730  Biso   1.000  H
  C126     1.0000 0.82990  0.10030  0.48310  Biso   1.000  C
  N37      1.0000 0.14310  0.51730  0.65080  Biso   1.000  N
  N38      1.0000 0.19720  0.53270  0.60000  Biso   1.000  N
  N39      1.0000 0.20020  0.62860  0.69080  Biso   1.000  N
  N40      1.0000 0.07600  0.48110  0.42630  Biso   1.000  N
  N41      1.0000 0.12290  0.43050  0.46550  Biso   1.000  N
  N42      1.0000 0.02910  0.35850  0.45550  Biso   1.000  N
  O25      1.0000 0.26330  0.99640  0.83070  Biso   1.000  O
  O26      1.0000 0.26890  0.91740  0.93800  Biso   1.000  O
  O27      1.0000 0.77000  0.12470  0.49810  Biso   1.000  O
  O28      1.0000 0.84530  0.02550  0.47560  Biso   1.000  O
  Zn7      1.0000 0.21462  0.47712  0.49343  Biso   1.000  Zn
  C127     1.0000 0.35300  0.92480  0.20370  Biso   1.000  C
  H85      1.0000 0.38280  0.91980  0.24590  Biso   1.000  H
  C128     1.0000 0.27030  0.90090  0.12590  Biso   1.000  C
  H86      1.0000 0.23210  0.87770  0.10240  Biso   1.000  H
  C129     1.0000 0.28220  0.79750  0.23470  Biso   1.000  C
  C130     1.0000 0.28630  0.79870  0.31620  Biso   1.000  C
  H87      1.0000 0.29760  0.84840  0.34250  Biso   1.000  H
  C131     1.0000 0.27350  0.72560  0.35800  Biso   1.000  C
  H88      1.0000 0.27700  0.72560  0.41260  Biso   1.000  H
  C132     1.0000 0.25520  0.65180  0.31870  Biso   1.000  C
  C133     1.0000 0.25060  0.65130  0.23720  Biso   1.000  C
  H89      1.0000 0.23820  0.60200  0.21100  Biso   1.000  H
  C134     1.0000 0.26450  0.72510  0.19420  Biso   1.000  C
  H90      1.0000 0.26190  0.72520  0.13950  Biso   1.000  H
  C135     1.0000 0.24020  0.57200  0.36460  Biso   1.000  C
  C136     1.0000 0.40610  0.14220  0.98160  Biso   1.000  C
  H91      1.0000 0.38530  0.18730  0.00720  Biso   1.000  H
  C137     1.0000 0.47960  0.06410  0.92200  Biso   1.000  C
  H92      1.0000 0.51980  0.04570  0.89910  Biso   1.000  H
  C138     1.0000 0.52160  0.20600  0.96370  Biso   1.000  C
  C139     1.0000 0.58660  0.18390  0.98070  Biso   1.000  C
  H93      1.0000 0.59850  0.12740  0.98710  Biso   1.000  H
  C140     1.0000 0.63440  0.24730  0.98810  Biso   1.000  C
  H94      1.0000 0.67880  0.23310  0.00090  Biso   1.000  H
  C141     1.0000 0.61760  0.33070  0.97700  Biso   1.000  C
  C142     1.0000 0.55120  0.35260  0.95880  Biso   1.000  C
  H95      1.0000 0.53950  0.40920  0.95200  Biso   1.000  H
  C143     1.0000 0.50270  0.29020  0.95090  Biso   1.000  C
  H96      1.0000 0.45850  0.30390  0.93730  Biso   1.000  H
  C144     1.0000 0.67010  0.39970  0.98310  Biso   1.000  C
  N43      1.0000 0.35690  0.98270  0.15080  Biso   1.000  N
  N44      1.0000 0.30280  0.96730  0.10000  Biso   1.000  N
  N45      1.0000 0.29980  0.87140  0.19080  Biso   1.000  N
  N46      1.0000 0.42400  0.01890  0.92630  Biso   1.000  N
  N47      1.0000 0.37710  0.06950  0.96550  Biso   1.000  N
  N48      1.0000 0.47090  0.14150  0.95550  Biso   1.000  N
  O29      1.0000 0.23670  0.50360  0.33070  Biso   1.000  O
  O30      1.0000 0.23110  0.58260  0.43800  Biso   1.000  O
  O31      1.0000 0.73000  0.37530  0.99810  Biso   1.000  O
  O32      1.0000 0.65470  0.47450  0.97560  Biso   1.000  O
  Zn8      1.0000 0.28538  0.02288  0.99343  Biso   1.000  Zn
