data_image0
_cell_length_a       6.442
_cell_length_b       8.91
_cell_length_c       24.416
_cell_angle_alpha    90
_cell_angle_beta     97.291
_cell_angle_gamma    90

_symmetry_space_group_name_H-M    P 1
_symmetry_int_tables_number       1

loop_
  _symmetry_equiv_pos_as_xyz
  'x, y, z'

loop_
  _atom_site_label
  _atom_site_occupancy
  _atom_site_fract_x
  _atom_site_fract_y
  _atom_site_fract_z
  _atom_site_thermal_displace_type
  _atom_site_B_iso_or_equiv
  _atom_site_type_symbol
  Ag1      1.0000 0.22426  0.50257  0.69422  Biso   1.000  Ag
  Ag2      1.0000 0.77574  0.00257  0.80578  Biso   1.000  Ag
  Ag3      1.0000 0.77574  0.49743  0.30578  Biso   1.000  Ag
  Ag4      1.0000 0.22426  0.99743  0.19422  Biso   1.000  Ag
  H1       1.0000 0.57700  0.70130  0.76350  Biso   1.000  H
  H2       1.0000 0.42930  0.81020  0.72620  Biso   1.000  H
  H3       1.0000 0.74550  0.49360  0.72200  Biso   1.000  H
  H4       1.0000 0.70560  0.46880  0.65790  Biso   1.000  H
  H5       1.0000 0.53800  0.19390  0.49440  Biso   1.000  H
  H6       1.0000 0.36890  0.77410  0.62780  Biso   1.000  H
  H7       1.0000 0.47750  0.64140  0.60020  Biso   1.000  H
  H8       1.0000 0.63710  0.01690  0.43570  Biso   1.000  H
  H9       1.0000 0.84780  0.64820  0.59600  Biso   1.000  H
  H10      1.0000 0.98050  0.78520  0.62100  Biso   1.000  H
  H11      1.0000 0.95310  0.70720  0.75910  Biso   1.000  H
  H12      1.0000 0.04270  0.82040  0.71890  Biso   1.000  H
  H13      1.0000 0.76030  0.26420  0.57370  Biso   1.000  H
  H14      1.0000 0.81860  0.98540  0.66250  Biso   1.000  H
  H15      1.0000 0.57640  0.98540  0.66480  Biso   1.000  H
  H16      1.0000 0.42300  0.20130  0.73650  Biso   1.000  H
  H17      1.0000 0.57070  0.31020  0.77380  Biso   1.000  H
  H18      1.0000 0.25450  0.99360  0.77800  Biso   1.000  H
  H19      1.0000 0.29440  0.96880  0.84210  Biso   1.000  H
  H20      1.0000 0.46200  0.69390  0.00560  Biso   1.000  H
  H21      1.0000 0.63110  0.27410  0.87220  Biso   1.000  H
  H22      1.0000 0.52250  0.14140  0.89980  Biso   1.000  H
  H23      1.0000 0.36290  0.51690  0.06430  Biso   1.000  H
  H24      1.0000 0.15220  0.14820  0.90400  Biso   1.000  H
  H25      1.0000 0.01950  0.28520  0.87900  Biso   1.000  H
  H26      1.0000 0.04690  0.20720  0.74090  Biso   1.000  H
  H27      1.0000 0.95730  0.32040  0.78110  Biso   1.000  H
  H28      1.0000 0.23970  0.76420  0.92630  Biso   1.000  H
  H29      1.0000 0.18140  0.48540  0.83750  Biso   1.000  H
  H30      1.0000 0.42360  0.48540  0.83520  Biso   1.000  H
  H31      1.0000 0.42300  0.29870  0.23650  Biso   1.000  H
  H32      1.0000 0.57070  0.18980  0.27380  Biso   1.000  H
  H33      1.0000 0.25450  0.50640  0.27800  Biso   1.000  H
  H34      1.0000 0.29440  0.53120  0.34210  Biso   1.000  H
  H35      1.0000 0.46200  0.80610  0.50560  Biso   1.000  H
  H36      1.0000 0.63110  0.22590  0.37220  Biso   1.000  H
  H37      1.0000 0.52250  0.35860  0.39980  Biso   1.000  H
  H38      1.0000 0.36290  0.98310  0.56430  Biso   1.000  H
  H39      1.0000 0.15220  0.35180  0.40400  Biso   1.000  H
  H40      1.0000 0.01950  0.21480  0.37900  Biso   1.000  H
  H41      1.0000 0.04690  0.29280  0.24090  Biso   1.000  H
  H42      1.0000 0.95730  0.17960  0.28110  Biso   1.000  H
  H43      1.0000 0.23970  0.73580  0.42630  Biso   1.000  H
  H44      1.0000 0.18140  0.01460  0.33750  Biso   1.000  H
  H45      1.0000 0.42360  0.01460  0.33520  Biso   1.000  H
  H46      1.0000 0.57700  0.79870  0.26350  Biso   1.000  H
  H47      1.0000 0.42930  0.68980  0.22620  Biso   1.000  H
  H48      1.0000 0.74550  0.00640  0.22200  Biso   1.000  H
  H49      1.0000 0.70560  0.03120  0.15790  Biso   1.000  H
  H50      1.0000 0.53800  0.30610  0.99440  Biso   1.000  H
  H51      1.0000 0.36890  0.72590  0.12780  Biso   1.000  H
  H52      1.0000 0.47750  0.85860  0.10020  Biso   1.000  H
  H53      1.0000 0.63710  0.48310  0.93570  Biso   1.000  H
  H54      1.0000 0.84780  0.85180  0.09600  Biso   1.000  H
  H55      1.0000 0.98050  0.71480  0.12100  Biso   1.000  H
  H56      1.0000 0.95310  0.79280  0.25910  Biso   1.000  H
  H57      1.0000 0.04270  0.67960  0.21890  Biso   1.000  H
  H58      1.0000 0.76030  0.23580  0.07370  Biso   1.000  H
  H59      1.0000 0.81860  0.51460  0.16250  Biso   1.000  H
  H60      1.0000 0.57640  0.51460  0.16480  Biso   1.000  H
  C1       1.0000 0.55560  0.75020  0.72780  Biso   1.000  C
  C2       1.0000 0.99590  0.13160  0.56010  Biso   1.000  C
  C3       1.0000 0.72140  0.54460  0.68660  Biso   1.000  C
  C4       1.0000 0.66950  0.14990  0.50170  Biso   1.000  C
  C5       1.0000 0.49560  0.71440  0.62990  Biso   1.000  C
  C6       1.0000 0.72940  0.04500  0.46640  Biso   1.000  C
  C7       1.0000 0.86240  0.72100  0.62580  Biso   1.000  C
  C8       1.0000 0.93050  0.97770  0.47560  Biso   1.000  C
  C9       1.0000 0.92470  0.75590  0.72340  Biso   1.000  C
  C10      1.0000 0.80420  0.19340  0.54960  Biso   1.000  C
  C11      1.0000 0.69960  0.92200  0.66700  Biso   1.000  C
  C12      1.0000 0.44440  0.25020  0.77220  Biso   1.000  C
  C13      1.0000 0.00410  0.63160  0.93990  Biso   1.000  C
  C14      1.0000 0.27860  0.04460  0.81340  Biso   1.000  C
  C15      1.0000 0.33050  0.64990  0.99830  Biso   1.000  C
  C16      1.0000 0.50440  0.21440  0.87010  Biso   1.000  C
  C17      1.0000 0.27060  0.54500  0.03360  Biso   1.000  C
  C18      1.0000 0.13760  0.22100  0.87420  Biso   1.000  C
  C19      1.0000 0.06950  0.47770  0.02440  Biso   1.000  C
  C20      1.0000 0.07530  0.25590  0.77660  Biso   1.000  C
  C21      1.0000 0.19580  0.69340  0.95040  Biso   1.000  C
  C22      1.0000 0.30040  0.42200  0.83300  Biso   1.000  C
  C23      1.0000 0.44440  0.24980  0.27220  Biso   1.000  C
  C24      1.0000 0.00410  0.86840  0.43990  Biso   1.000  C
  C25      1.0000 0.27860  0.45540  0.31340  Biso   1.000  C
  C26      1.0000 0.33050  0.85010  0.49830  Biso   1.000  C
  C27      1.0000 0.50440  0.28560  0.37010  Biso   1.000  C
  C28      1.0000 0.27060  0.95500  0.53360  Biso   1.000  C
  C29      1.0000 0.13760  0.27900  0.37420  Biso   1.000  C
  C30      1.0000 0.06950  0.02230  0.52440  Biso   1.000  C
  C31      1.0000 0.07530  0.24410  0.27660  Biso   1.000  C
  C32      1.0000 0.19580  0.80660  0.45040  Biso   1.000  C
  C33      1.0000 0.30040  0.07800  0.33300  Biso   1.000  C
  C34      1.0000 0.55560  0.74980  0.22780  Biso   1.000  C
  C35      1.0000 0.99590  0.36840  0.06010  Biso   1.000  C
  C36      1.0000 0.72140  0.95540  0.18660  Biso   1.000  C
  C37      1.0000 0.66950  0.35010  0.00170  Biso   1.000  C
  C38      1.0000 0.49560  0.78560  0.12990  Biso   1.000  C
  C39      1.0000 0.72940  0.45500  0.96640  Biso   1.000  C
  C40      1.0000 0.86240  0.77900  0.12580  Biso   1.000  C
  C41      1.0000 0.93050  0.52230  0.97560  Biso   1.000  C
  C42      1.0000 0.92470  0.74410  0.22340  Biso   1.000  C
  C43      1.0000 0.80420  0.30660  0.04960  Biso   1.000  C
  C44      1.0000 0.69960  0.57800  0.16700  Biso   1.000  C
  S1       1.0000 0.15810  0.18750  0.62145  Biso   1.000  S
  S2       1.0000 0.84190  0.68750  0.87855  Biso   1.000  S
  S3       1.0000 0.84190  0.81250  0.37855  Biso   1.000  S
  S4       1.0000 0.15810  0.31250  0.12145  Biso   1.000  S
  N1       1.0000 0.52660  0.63410  0.68390  Biso   1.000  N
  N2       1.0000 0.73370  0.84900  0.72240  Biso   1.000  N
  N3       1.0000 0.90450  0.64080  0.67970  Biso   1.000  N
  N4       1.0000 0.67210  0.81220  0.62260  Biso   1.000  N
  N5       1.0000 0.47340  0.13410  0.81610  Biso   1.000  N
  N6       1.0000 0.26630  0.34900  0.77760  Biso   1.000  N
  N7       1.0000 0.09550  0.14080  0.82030  Biso   1.000  N
  N8       1.0000 0.32790  0.31220  0.87740  Biso   1.000  N
  N9       1.0000 0.47340  0.36590  0.31610  Biso   1.000  N
  N10      1.0000 0.26630  0.15100  0.27760  Biso   1.000  N
  N11      1.0000 0.09550  0.35920  0.32030  Biso   1.000  N
  N12      1.0000 0.32790  0.18780  0.37740  Biso   1.000  N
  N13      1.0000 0.52660  0.86590  0.18390  Biso   1.000  N
  N14      1.0000 0.73370  0.65100  0.22240  Biso   1.000  N
  N15      1.0000 0.90450  0.85920  0.17970  Biso   1.000  N
  N16      1.0000 0.67210  0.68780  0.12260  Biso   1.000  N
  O1       1.0000 0.03430  0.29850  0.64680  Biso   1.000  O
  O2       1.0000 0.19850  0.05500  0.65560  Biso   1.000  O
  O3       1.0000 0.34770  0.25180  0.60510  Biso   1.000  O
  O4       1.0000 0.96570  0.79850  0.85320  Biso   1.000  O
  O5       1.0000 0.80150  0.55500  0.84440  Biso   1.000  O
  O6       1.0000 0.65230  0.75180  0.89490  Biso   1.000  O
  O7       1.0000 0.96570  0.70150  0.35320  Biso   1.000  O
  O8       1.0000 0.80150  0.94500  0.34440  Biso   1.000  O
  O9       1.0000 0.65230  0.74820  0.39490  Biso   1.000  O
  O10      1.0000 0.03430  0.20150  0.14680  Biso   1.000  O
  O11      1.0000 0.19850  0.44500  0.15560  Biso   1.000  O
  O12      1.0000 0.34770  0.24820  0.10510  Biso   1.000  O
