data_image0
_cell_length_a       25.7611
_cell_length_b       25.7611
_cell_length_c       6.7565
_cell_angle_alpha    90
_cell_angle_beta     90
_cell_angle_gamma    120

_symmetry_space_group_name_H-M    "P 1"
_symmetry_int_tables_number       1

loop_
  _symmetry_equiv_pos_as_xyz
  'x, y, z'

loop_
  _atom_site_label
  _atom_site_occupancy
  _atom_site_fract_x
  _atom_site_fract_y
  _atom_site_fract_z
  _atom_site_thermal_displace_type
  _atom_site_B_iso_or_equiv
  _atom_site_type_symbol
  Ni1      1.0000 0.61749  0.64832  0.35370  Biso   1.000  Ni
  O1       1.0000 0.43692  0.40746  0.43097  Biso   1.000  O
  O2       1.0000 0.36788  0.36529  0.21197  Biso   1.000  O
  O3       1.0000 0.61137  0.58552  0.15552  Biso   1.000  O
  C1       1.0000 0.41661  0.40737  0.24968  Biso   1.000  C
  C2       1.0000 0.46076  0.45409  0.11412  Biso   1.000  C
  C3       1.0000 0.55692  0.55036  0.07689  Biso   1.000  C
  C4       1.0000 0.51575  0.49831  0.19087  Biso   1.000  C
  H1       1.0000 0.52650  0.49396  0.32337  Biso   1.000  H
  Ni2      1.0000 0.28416  0.98165  0.68703  Biso   1.000  Ni
  O4       1.0000 0.10359  0.74079  0.76430  Biso   1.000  O
  O5       1.0000 0.03455  0.69862  0.54530  Biso   1.000  O
  O6       1.0000 0.27804  0.91885  0.48885  Biso   1.000  O
  C5       1.0000 0.08328  0.74070  0.58301  Biso   1.000  C
  C6       1.0000 0.12743  0.78742  0.44745  Biso   1.000  C
  C7       1.0000 0.22359  0.88369  0.41022  Biso   1.000  C
  C8       1.0000 0.18242  0.83164  0.52420  Biso   1.000  C
  H2       1.0000 0.19317  0.82729  0.65670  Biso   1.000  H
  Ni3      1.0000 0.95082  0.31499  0.02037  Biso   1.000  Ni
  O7       1.0000 0.77025  0.07413  0.09764  Biso   1.000  O
  O8       1.0000 0.70121  0.03196  0.87864  Biso   1.000  O
  O9       1.0000 0.94470  0.25219  0.82219  Biso   1.000  O
  C9       1.0000 0.74994  0.07404  0.91635  Biso   1.000  C
  C10      1.0000 0.79409  0.12076  0.78079  Biso   1.000  C
  C11      1.0000 0.89025  0.21703  0.74356  Biso   1.000  C
  C12      1.0000 0.84908  0.16498  0.85754  Biso   1.000  C
  H3       1.0000 0.85983  0.16063  0.99004  Biso   1.000  H
  Ni4      1.0000 0.35168  0.96917  0.35370  Biso   1.000  Ni
  O10      1.0000 0.59254  0.02946  0.43097  Biso   1.000  O
  O11      1.0000 0.63471  0.00259  0.21197  Biso   1.000  O
  O12      1.0000 0.41448  0.02585  0.15552  Biso   1.000  O
  C13      1.0000 0.59263  0.00924  0.24968  Biso   1.000  C
  C14      1.0000 0.54591  0.00667  0.11412  Biso   1.000  C
  C15      1.0000 0.44964  0.00656  0.07689  Biso   1.000  C
  C16      1.0000 0.50169  0.01744  0.19087  Biso   1.000  C
  H4       1.0000 0.50604  0.03254  0.32337  Biso   1.000  H
  Ni5      1.0000 0.01835  0.30250  0.68703  Biso   1.000  Ni
  O13      1.0000 0.25921  0.36279  0.76430  Biso   1.000  O
  O14      1.0000 0.30138  0.33592  0.54530  Biso   1.000  O
  O15      1.0000 0.08115  0.35918  0.48885  Biso   1.000  O
  C17      1.0000 0.25930  0.34257  0.58301  Biso   1.000  C
  C18      1.0000 0.21258  0.34000  0.44745  Biso   1.000  C
  C19      1.0000 0.11631  0.33989  0.41022  Biso   1.000  C
  C20      1.0000 0.16836  0.35077  0.52420  Biso   1.000  C
  H5       1.0000 0.17271  0.36587  0.65670  Biso   1.000  H
  Ni6      1.0000 0.68501  0.63584  0.02037  Biso   1.000  Ni
  O16      1.0000 0.92587  0.69613  0.09764  Biso   1.000  O
  O17      1.0000 0.96804  0.66926  0.87864  Biso   1.000  O
  O18      1.0000 0.74781  0.69252  0.82219  Biso   1.000  O
  C21      1.0000 0.92596  0.67591  0.91635  Biso   1.000  C
  C22      1.0000 0.87924  0.67334  0.78079  Biso   1.000  C
  C23      1.0000 0.78297  0.67323  0.74356  Biso   1.000  C
  C24      1.0000 0.83502  0.68411  0.85754  Biso   1.000  C
  H6       1.0000 0.83937  0.69921  0.99004  Biso   1.000  H
  Ni7      1.0000 0.03083  0.38251  0.35370  Biso   1.000  Ni
  O19      1.0000 0.97054  0.56308  0.43097  Biso   1.000  O
  O20      1.0000 0.99741  0.63212  0.21197  Biso   1.000  O
  O21      1.0000 0.97415  0.38863  0.15552  Biso   1.000  O
  C25      1.0000 0.99076  0.58339  0.24968  Biso   1.000  C
  C26      1.0000 0.99333  0.53924  0.11412  Biso   1.000  C
  C27      1.0000 0.99344  0.44308  0.07689  Biso   1.000  C
  C28      1.0000 0.98256  0.48425  0.19087  Biso   1.000  C
  H7       1.0000 0.96746  0.47350  0.32337  Biso   1.000  H
  Ni8      1.0000 0.69750  0.71584  0.68703  Biso   1.000  Ni
  O22      1.0000 0.63721  0.89641  0.76430  Biso   1.000  O
  O23      1.0000 0.66408  0.96545  0.54530  Biso   1.000  O
  O24      1.0000 0.64082  0.72196  0.48885  Biso   1.000  O
  C29      1.0000 0.65743  0.91672  0.58301  Biso   1.000  C
  C30      1.0000 0.66000  0.87257  0.44745  Biso   1.000  C
  C31      1.0000 0.66011  0.77641  0.41022  Biso   1.000  C
  C32      1.0000 0.64923  0.81758  0.52420  Biso   1.000  C
  H8       1.0000 0.63413  0.80683  0.65670  Biso   1.000  H
  Ni9      1.0000 0.36416  0.04918  0.02037  Biso   1.000  Ni
  O25      1.0000 0.30387  0.22975  0.09764  Biso   1.000  O
  O26      1.0000 0.33074  0.29879  0.87864  Biso   1.000  O
  O27      1.0000 0.30748  0.05530  0.82219  Biso   1.000  O
  C33      1.0000 0.32409  0.25006  0.91635  Biso   1.000  C
  C34      1.0000 0.32666  0.20591  0.78079  Biso   1.000  C
  C35      1.0000 0.32677  0.10975  0.74356  Biso   1.000  C
  C36      1.0000 0.31589  0.15092  0.85754  Biso   1.000  C
  H9       1.0000 0.30079  0.14017  0.99004  Biso   1.000  H
  Ni10     1.0000 0.38251  0.35168  0.64630  Biso   1.000  Ni
  O28      1.0000 0.56308  0.59254  0.56903  Biso   1.000  O
  O29      1.0000 0.63212  0.63471  0.78803  Biso   1.000  O
  O30      1.0000 0.38863  0.41448  0.84448  Biso   1.000  O
  C37      1.0000 0.58339  0.59263  0.75032  Biso   1.000  C
  C38      1.0000 0.53924  0.54591  0.88588  Biso   1.000  C
  C39      1.0000 0.44308  0.44964  0.92311  Biso   1.000  C
  C40      1.0000 0.48425  0.50169  0.80913  Biso   1.000  C
  H10      1.0000 0.47350  0.50604  0.67663  Biso   1.000  H
  Ni11     1.0000 0.04918  0.68501  0.97963  Biso   1.000  Ni
  O31      1.0000 0.22975  0.92587  0.90236  Biso   1.000  O
  O32      1.0000 0.29879  0.96804  0.12136  Biso   1.000  O
  O33      1.0000 0.05530  0.74781  0.17781  Biso   1.000  O
  C41      1.0000 0.25006  0.92596  0.08365  Biso   1.000  C
  C42      1.0000 0.20591  0.87924  0.21921  Biso   1.000  C
  C43      1.0000 0.10975  0.78297  0.25644  Biso   1.000  C
  C44      1.0000 0.15092  0.83502  0.14246  Biso   1.000  C
  H11      1.0000 0.14017  0.83937  0.00996  Biso   1.000  H
  Ni12     1.0000 0.71584  0.01835  0.31297  Biso   1.000  Ni
  O34      1.0000 0.89641  0.25921  0.23570  Biso   1.000  O
  O35      1.0000 0.96545  0.30138  0.45470  Biso   1.000  O
  O36      1.0000 0.72196  0.08115  0.51115  Biso   1.000  O
  C45      1.0000 0.91672  0.25930  0.41699  Biso   1.000  C
  C46      1.0000 0.87257  0.21258  0.55255  Biso   1.000  C
  C47      1.0000 0.77641  0.11631  0.58978  Biso   1.000  C
  C48      1.0000 0.81758  0.16836  0.47580  Biso   1.000  C
  H12      1.0000 0.80683  0.17271  0.34330  Biso   1.000  H
  Ni13     1.0000 0.64832  0.03083  0.64630  Biso   1.000  Ni
  O37      1.0000 0.40746  0.97054  0.56903  Biso   1.000  O
  O38      1.0000 0.36529  0.99741  0.78803  Biso   1.000  O
  O39      1.0000 0.58552  0.97415  0.84448  Biso   1.000  O
  C49      1.0000 0.40737  0.99076  0.75032  Biso   1.000  C
  C50      1.0000 0.45409  0.99333  0.88588  Biso   1.000  C
  C51      1.0000 0.55036  0.99344  0.92311  Biso   1.000  C
  C52      1.0000 0.49831  0.98256  0.80913  Biso   1.000  C
  H13      1.0000 0.49396  0.96746  0.67663  Biso   1.000  H
  Ni14     1.0000 0.31499  0.36416  0.97963  Biso   1.000  Ni
  O40      1.0000 0.07413  0.30387  0.90236  Biso   1.000  O
  O41      1.0000 0.03196  0.33074  0.12136  Biso   1.000  O
  O42      1.0000 0.25219  0.30748  0.17781  Biso   1.000  O
  C53      1.0000 0.07404  0.32409  0.08365  Biso   1.000  C
  C54      1.0000 0.12076  0.32666  0.21921  Biso   1.000  C
  C55      1.0000 0.21703  0.32677  0.25644  Biso   1.000  C
  C56      1.0000 0.16498  0.31589  0.14246  Biso   1.000  C
  H14      1.0000 0.16063  0.30079  0.00996  Biso   1.000  H
  Ni15     1.0000 0.98165  0.69750  0.31297  Biso   1.000  Ni
  O43      1.0000 0.74079  0.63721  0.23570  Biso   1.000  O
  O44      1.0000 0.69862  0.66408  0.45470  Biso   1.000  O
  O45      1.0000 0.91885  0.64082  0.51115  Biso   1.000  O
  C57      1.0000 0.74070  0.65743  0.41699  Biso   1.000  C
  C58      1.0000 0.78742  0.66000  0.55255  Biso   1.000  C
  C59      1.0000 0.88369  0.66011  0.58978  Biso   1.000  C
  C60      1.0000 0.83164  0.64923  0.47580  Biso   1.000  C
  H15      1.0000 0.82729  0.63413  0.34330  Biso   1.000  H
  Ni16     1.0000 0.96917  0.61749  0.64630  Biso   1.000  Ni
  O46      1.0000 0.02946  0.43692  0.56903  Biso   1.000  O
  O47      1.0000 0.00259  0.36788  0.78803  Biso   1.000  O
  O48      1.0000 0.02585  0.61137  0.84448  Biso   1.000  O
  C61      1.0000 0.00924  0.41661  0.75032  Biso   1.000  C
  C62      1.0000 0.00667  0.46076  0.88588  Biso   1.000  C
  C63      1.0000 0.00656  0.55692  0.92311  Biso   1.000  C
  C64      1.0000 0.01744  0.51575  0.80913  Biso   1.000  C
  H16      1.0000 0.03254  0.52650  0.67663  Biso   1.000  H
  Ni17     1.0000 0.63584  0.95082  0.97963  Biso   1.000  Ni
  O49      1.0000 0.69613  0.77025  0.90236  Biso   1.000  O
  O50      1.0000 0.66926  0.70121  0.12136  Biso   1.000  O
  O51      1.0000 0.69252  0.94470  0.17781  Biso   1.000  O
  C65      1.0000 0.67591  0.74994  0.08365  Biso   1.000  C
  C66      1.0000 0.67334  0.79409  0.21921  Biso   1.000  C
  C67      1.0000 0.67323  0.89025  0.25644  Biso   1.000  C
  C68      1.0000 0.68411  0.84908  0.14246  Biso   1.000  C
  H17      1.0000 0.69921  0.85983  0.00996  Biso   1.000  H
  Ni18     1.0000 0.30250  0.28416  0.31297  Biso   1.000  Ni
  O52      1.0000 0.36279  0.10359  0.23570  Biso   1.000  O
  O53      1.0000 0.33592  0.03455  0.45470  Biso   1.000  O
  O54      1.0000 0.35918  0.27804  0.51115  Biso   1.000  O
  C69      1.0000 0.34257  0.08328  0.41699  Biso   1.000  C
  C70      1.0000 0.34000  0.12743  0.55255  Biso   1.000  C
  C71      1.0000 0.33989  0.22359  0.58978  Biso   1.000  C
  C72      1.0000 0.35077  0.18242  0.47580  Biso   1.000  C
  H18      1.0000 0.36587  0.19317  0.34330  Biso   1.000  H
