data_image0
_cell_length_a       25.7522
_cell_length_b       25.7522
_cell_length_c       6.7576
_cell_angle_alpha    90
_cell_angle_beta     90
_cell_angle_gamma    120

_symmetry_space_group_name_H-M    "P 1"
_symmetry_int_tables_number       1

loop_
  _symmetry_equiv_pos_as_xyz
  'x, y, z'

loop_
  _atom_site_label
  _atom_site_occupancy
  _atom_site_fract_x
  _atom_site_fract_y
  _atom_site_fract_z
  _atom_site_thermal_displace_type
  _atom_site_B_iso_or_equiv
  _atom_site_type_symbol
  Ni1      1.0000 0.61899  0.64771  0.35320  Biso   1.000  Ni
  O1       1.0000 0.43861  0.40624  0.43423  Biso   1.000  O
  O2       1.0000 0.36897  0.36544  0.21657  Biso   1.000  O
  O3       1.0000 0.61444  0.58281  0.15798  Biso   1.000  O
  C1       1.0000 0.41815  0.40686  0.25376  Biso   1.000  C
  C2       1.0000 0.46256  0.45330  0.11806  Biso   1.000  C
  C3       1.0000 0.55967  0.54857  0.08032  Biso   1.000  C
  C4       1.0000 0.51805  0.49670  0.19414  Biso   1.000  C
  H1       1.0000 0.52884  0.49191  0.32607  Biso   1.000  H
  Ni2      1.0000 0.28566  0.98104  0.68653  Biso   1.000  Ni
  O4       1.0000 0.10528  0.73957  0.76756  Biso   1.000  O
  O5       1.0000 0.03564  0.69877  0.54990  Biso   1.000  O
  O6       1.0000 0.28111  0.91614  0.49131  Biso   1.000  O
  C5       1.0000 0.08482  0.74019  0.58709  Biso   1.000  C
  C6       1.0000 0.12923  0.78663  0.45139  Biso   1.000  C
  C7       1.0000 0.22634  0.88190  0.41365  Biso   1.000  C
  C8       1.0000 0.18472  0.83003  0.52747  Biso   1.000  C
  H2       1.0000 0.19551  0.82524  0.65940  Biso   1.000  H
  Ni3      1.0000 0.95232  0.31438  0.01987  Biso   1.000  Ni
  O7       1.0000 0.77194  0.07291  0.10090  Biso   1.000  O
  O8       1.0000 0.70230  0.03211  0.88324  Biso   1.000  O
  O9       1.0000 0.94777  0.24948  0.82465  Biso   1.000  O
  C9       1.0000 0.75148  0.07353  0.92043  Biso   1.000  C
  C10      1.0000 0.79589  0.11997  0.78473  Biso   1.000  C
  C11      1.0000 0.89300  0.21524  0.74699  Biso   1.000  C
  C12      1.0000 0.85138  0.16337  0.86081  Biso   1.000  C
  H3       1.0000 0.86217  0.15858  0.99274  Biso   1.000  H
  Ni4      1.0000 0.35229  0.97128  0.35320  Biso   1.000  Ni
  O10      1.0000 0.59376  0.03237  0.43423  Biso   1.000  O
  O11      1.0000 0.63456  0.00353  0.21657  Biso   1.000  O
  O12      1.0000 0.41719  0.03163  0.15798  Biso   1.000  O
  C13      1.0000 0.59314  0.01129  0.25376  Biso   1.000  C
  C14      1.0000 0.54670  0.00926  0.11806  Biso   1.000  C
  C15      1.0000 0.45143  0.01110  0.08032  Biso   1.000  C
  C16      1.0000 0.50330  0.02135  0.19414  Biso   1.000  C
  H4       1.0000 0.50809  0.03693  0.32607  Biso   1.000  H
  Ni5      1.0000 0.01896  0.30461  0.68653  Biso   1.000  Ni
  O13      1.0000 0.26043  0.36570  0.76756  Biso   1.000  O
  O14      1.0000 0.30123  0.33686  0.54990  Biso   1.000  O
  O15      1.0000 0.08386  0.36496  0.49131  Biso   1.000  O
  C17      1.0000 0.25981  0.34462  0.58709  Biso   1.000  C
  C18      1.0000 0.21337  0.34259  0.45139  Biso   1.000  C
  C19      1.0000 0.11810  0.34443  0.41365  Biso   1.000  C
  C20      1.0000 0.16997  0.35468  0.52747  Biso   1.000  C
  H5       1.0000 0.17476  0.37026  0.65940  Biso   1.000  H
  Ni6      1.0000 0.68562  0.63795  0.01987  Biso   1.000  Ni
  O16      1.0000 0.92709  0.69904  0.10090  Biso   1.000  O
  O17      1.0000 0.96789  0.67020  0.88324  Biso   1.000  O
  O18      1.0000 0.75052  0.69830  0.82465  Biso   1.000  O
  C21      1.0000 0.92647  0.67796  0.92043  Biso   1.000  C
  C22      1.0000 0.88003  0.67593  0.78473  Biso   1.000  C
  C23      1.0000 0.78476  0.67777  0.74699  Biso   1.000  C
  C24      1.0000 0.83663  0.68802  0.86081  Biso   1.000  C
  H6       1.0000 0.84142  0.70360  0.99274  Biso   1.000  H
  Ni7      1.0000 0.02872  0.38101  0.35320  Biso   1.000  Ni
  O19      1.0000 0.96763  0.56139  0.43423  Biso   1.000  O
  O20      1.0000 0.99647  0.63103  0.21657  Biso   1.000  O
  O21      1.0000 0.96837  0.38556  0.15798  Biso   1.000  O
  C25      1.0000 0.98871  0.58185  0.25376  Biso   1.000  C
  C26      1.0000 0.99074  0.53744  0.11806  Biso   1.000  C
  C27      1.0000 0.98890  0.44033  0.08032  Biso   1.000  C
  C28      1.0000 0.97865  0.48195  0.19414  Biso   1.000  C
  H7       1.0000 0.96307  0.47116  0.32607  Biso   1.000  H
  Ni8      1.0000 0.69539  0.71434  0.68653  Biso   1.000  Ni
  O22      1.0000 0.63430  0.89472  0.76756  Biso   1.000  O
  O23      1.0000 0.66314  0.96436  0.54990  Biso   1.000  O
  O24      1.0000 0.63504  0.71889  0.49131  Biso   1.000  O
  C29      1.0000 0.65538  0.91518  0.58709  Biso   1.000  C
  C30      1.0000 0.65741  0.87077  0.45139  Biso   1.000  C
  C31      1.0000 0.65557  0.77366  0.41365  Biso   1.000  C
  C32      1.0000 0.64532  0.81528  0.52747  Biso   1.000  C
  H8       1.0000 0.62974  0.80449  0.65940  Biso   1.000  H
  Ni9      1.0000 0.36205  0.04768  0.01987  Biso   1.000  Ni
  O25      1.0000 0.30096  0.22806  0.10090  Biso   1.000  O
  O26      1.0000 0.32980  0.29770  0.88324  Biso   1.000  O
  O27      1.0000 0.30170  0.05223  0.82465  Biso   1.000  O
  C33      1.0000 0.32204  0.24852  0.92043  Biso   1.000  C
  C34      1.0000 0.32407  0.20411  0.78473  Biso   1.000  C
  C35      1.0000 0.32223  0.10700  0.74699  Biso   1.000  C
  C36      1.0000 0.31198  0.14862  0.86081  Biso   1.000  C
  H9       1.0000 0.29640  0.13783  0.99274  Biso   1.000  H
  Ni10     1.0000 0.38101  0.35229  0.64680  Biso   1.000  Ni
  O28      1.0000 0.56139  0.59376  0.56577  Biso   1.000  O
  O29      1.0000 0.63103  0.63456  0.78343  Biso   1.000  O
  O30      1.0000 0.38556  0.41719  0.84202  Biso   1.000  O
  C37      1.0000 0.58185  0.59314  0.74624  Biso   1.000  C
  C38      1.0000 0.53744  0.54670  0.88194  Biso   1.000  C
  C39      1.0000 0.44033  0.45143  0.91968  Biso   1.000  C
  C40      1.0000 0.48195  0.50330  0.80586  Biso   1.000  C
  H10      1.0000 0.47116  0.50809  0.67393  Biso   1.000  H
  Ni11     1.0000 0.04768  0.68562  0.98013  Biso   1.000  Ni
  O31      1.0000 0.22806  0.92709  0.89910  Biso   1.000  O
  O32      1.0000 0.29770  0.96789  0.11676  Biso   1.000  O
  O33      1.0000 0.05223  0.75052  0.17535  Biso   1.000  O
  C41      1.0000 0.24852  0.92647  0.07957  Biso   1.000  C
  C42      1.0000 0.20411  0.88003  0.21527  Biso   1.000  C
  C43      1.0000 0.10700  0.78476  0.25301  Biso   1.000  C
  C44      1.0000 0.14862  0.83663  0.13919  Biso   1.000  C
  H11      1.0000 0.13783  0.84142  0.00726  Biso   1.000  H
  Ni12     1.0000 0.71434  0.01896  0.31347  Biso   1.000  Ni
  O34      1.0000 0.89472  0.26043  0.23244  Biso   1.000  O
  O35      1.0000 0.96436  0.30123  0.45010  Biso   1.000  O
  O36      1.0000 0.71889  0.08386  0.50869  Biso   1.000  O
  C45      1.0000 0.91518  0.25981  0.41291  Biso   1.000  C
  C46      1.0000 0.87077  0.21337  0.54861  Biso   1.000  C
  C47      1.0000 0.77366  0.11810  0.58635  Biso   1.000  C
  C48      1.0000 0.81528  0.16997  0.47253  Biso   1.000  C
  H12      1.0000 0.80449  0.17476  0.34060  Biso   1.000  H
  Ni13     1.0000 0.64771  0.02872  0.64680  Biso   1.000  Ni
  O37      1.0000 0.40624  0.96763  0.56577  Biso   1.000  O
  O38      1.0000 0.36544  0.99647  0.78343  Biso   1.000  O
  O39      1.0000 0.58281  0.96837  0.84202  Biso   1.000  O
  C49      1.0000 0.40686  0.98871  0.74624  Biso   1.000  C
  C50      1.0000 0.45330  0.99074  0.88194  Biso   1.000  C
  C51      1.0000 0.54857  0.98890  0.91968  Biso   1.000  C
  C52      1.0000 0.49670  0.97865  0.80586  Biso   1.000  C
  H13      1.0000 0.49191  0.96307  0.67393  Biso   1.000  H
  Ni14     1.0000 0.31438  0.36205  0.98013  Biso   1.000  Ni
  O40      1.0000 0.07291  0.30096  0.89910  Biso   1.000  O
  O41      1.0000 0.03211  0.32980  0.11676  Biso   1.000  O
  O42      1.0000 0.24948  0.30170  0.17535  Biso   1.000  O
  C53      1.0000 0.07353  0.32204  0.07957  Biso   1.000  C
  C54      1.0000 0.11997  0.32407  0.21527  Biso   1.000  C
  C55      1.0000 0.21524  0.32223  0.25301  Biso   1.000  C
  C56      1.0000 0.16337  0.31198  0.13919  Biso   1.000  C
  H14      1.0000 0.15858  0.29640  0.00726  Biso   1.000  H
  Ni15     1.0000 0.98104  0.69539  0.31347  Biso   1.000  Ni
  O43      1.0000 0.73957  0.63430  0.23244  Biso   1.000  O
  O44      1.0000 0.69877  0.66314  0.45010  Biso   1.000  O
  O45      1.0000 0.91614  0.63504  0.50869  Biso   1.000  O
  C57      1.0000 0.74019  0.65538  0.41291  Biso   1.000  C
  C58      1.0000 0.78663  0.65741  0.54861  Biso   1.000  C
  C59      1.0000 0.88190  0.65557  0.58635  Biso   1.000  C
  C60      1.0000 0.83003  0.64532  0.47253  Biso   1.000  C
  H15      1.0000 0.82524  0.62974  0.34060  Biso   1.000  H
  Ni16     1.0000 0.97128  0.61899  0.64680  Biso   1.000  Ni
  O46      1.0000 0.03237  0.43861  0.56577  Biso   1.000  O
  O47      1.0000 0.00353  0.36897  0.78343  Biso   1.000  O
  O48      1.0000 0.03163  0.61444  0.84202  Biso   1.000  O
  C61      1.0000 0.01129  0.41815  0.74624  Biso   1.000  C
  C62      1.0000 0.00926  0.46256  0.88194  Biso   1.000  C
  C63      1.0000 0.01110  0.55967  0.91968  Biso   1.000  C
  C64      1.0000 0.02135  0.51805  0.80586  Biso   1.000  C
  H16      1.0000 0.03693  0.52884  0.67393  Biso   1.000  H
  Ni17     1.0000 0.63795  0.95232  0.98013  Biso   1.000  Ni
  O49      1.0000 0.69904  0.77194  0.89910  Biso   1.000  O
  O50      1.0000 0.67020  0.70230  0.11676  Biso   1.000  O
  O51      1.0000 0.69830  0.94777  0.17535  Biso   1.000  O
  C65      1.0000 0.67796  0.75148  0.07957  Biso   1.000  C
  C66      1.0000 0.67593  0.79589  0.21527  Biso   1.000  C
  C67      1.0000 0.67777  0.89300  0.25301  Biso   1.000  C
  C68      1.0000 0.68802  0.85138  0.13919  Biso   1.000  C
  H17      1.0000 0.70360  0.86217  0.00726  Biso   1.000  H
  Ni18     1.0000 0.30461  0.28566  0.31347  Biso   1.000  Ni
  O52      1.0000 0.36570  0.10528  0.23244  Biso   1.000  O
  O53      1.0000 0.33686  0.03564  0.45010  Biso   1.000  O
  O54      1.0000 0.36496  0.28111  0.50869  Biso   1.000  O
  C69      1.0000 0.34462  0.08482  0.41291  Biso   1.000  C
  C70      1.0000 0.34259  0.12923  0.54861  Biso   1.000  C
  C71      1.0000 0.34443  0.22634  0.58635  Biso   1.000  C
  C72      1.0000 0.35468  0.18472  0.47253  Biso   1.000  C
  H18      1.0000 0.37026  0.19551  0.34060  Biso   1.000  H
