data_image0
_cell_length_a       28.7444
_cell_length_b       9.2672
_cell_length_c       9.3295
_cell_angle_alpha    90
_cell_angle_beta     116.097
_cell_angle_gamma    90

_symmetry_space_group_name_H-M    "P 1"
_symmetry_int_tables_number       1

loop_
  _symmetry_equiv_pos_as_xyz
  'x, y, z'

loop_
  _atom_site_label
  _atom_site_occupancy
  _atom_site_fract_x
  _atom_site_fract_y
  _atom_site_fract_z
  _atom_site_thermal_displace_type
  _atom_site_B_iso_or_equiv
  _atom_site_type_symbol
  Cu1      1.0000 0.18782  0.83070  0.31370  Biso   1.000  Cu
  O1       1.0000 0.12820  0.07300  0.34490  Biso   1.000  O
  O2       1.0000 0.13900  0.17990  0.57420  Biso   1.000  O
  N1       1.0000 0.21960  0.00880  0.73980  Biso   1.000  N
  N2       1.0000 0.25590  0.90530  0.79280  Biso   1.000  N
  N3       1.0000 0.25050  0.82580  0.66850  Biso   1.000  N
  N4       1.0000 0.21140  0.87660  0.53770  Biso   1.000  N
  N5       1.0000 0.14300  0.66080  0.33080  Biso   1.000  N
  C1       1.0000 0.14930  0.08860  0.49060  Biso   1.000  C
  C2       1.0000 0.19300  0.98870  0.58400  Biso   1.000  C
  C3       1.0000 0.11080  0.71960  0.38470  Biso   1.000  C
  C4       1.0000 0.07300  0.64390  0.40800  Biso   1.000  C
  C5       1.0000 0.06843  0.49730  0.37250  Biso   1.000  C
  C6       1.0000 0.10100  0.43300  0.31680  Biso   1.000  C
  C7       1.0000 0.13760  0.51860  0.29760  Biso   1.000  C
  C8       1.0000 0.02817  0.40780  0.39506  Biso   1.000  C
  H1       1.0000 0.11428  0.82093  0.40872  Biso   1.000  H
  H2       1.0000 0.05095  0.69064  0.44685  Biso   1.000  H
  H3       1.0000 0.09831  0.33191  0.29205  Biso   1.000  H
  H4       1.0000 0.16012  0.47428  0.25894  Biso   1.000  H
  H5       1.0000 0.04484  0.34810  0.48794  Biso   1.000  H
  H6       1.0000 0.00382  0.47056  0.40866  Biso   1.000  H
  H7       1.0000 0.02454  0.25390  0.23380  Biso   1.000  H
  Cu2      1.0000 0.68782  0.33070  0.31370  Biso   1.000  Cu
  O3       1.0000 0.62820  0.57300  0.34490  Biso   1.000  O
  O4       1.0000 0.63900  0.67990  0.57420  Biso   1.000  O
  N6       1.0000 0.71960  0.50880  0.73980  Biso   1.000  N
  N7       1.0000 0.75590  0.40530  0.79280  Biso   1.000  N
  N8       1.0000 0.75050  0.32580  0.66850  Biso   1.000  N
  N9       1.0000 0.71140  0.37660  0.53770  Biso   1.000  N
  N10      1.0000 0.64300  0.16080  0.33080  Biso   1.000  N
  C9       1.0000 0.64930  0.58860  0.49060  Biso   1.000  C
  C10      1.0000 0.69300  0.48870  0.58400  Biso   1.000  C
  C11      1.0000 0.61080  0.21960  0.38470  Biso   1.000  C
  C12      1.0000 0.57300  0.14390  0.40800  Biso   1.000  C
  C13      1.0000 0.56843  0.99730  0.37250  Biso   1.000  C
  C14      1.0000 0.60100  0.93300  0.31680  Biso   1.000  C
  C15      1.0000 0.63760  0.01860  0.29760  Biso   1.000  C
  C16      1.0000 0.52817  0.90780  0.39506  Biso   1.000  C
  H8       1.0000 0.61428  0.32093  0.40872  Biso   1.000  H
  H9       1.0000 0.55095  0.19064  0.44685  Biso   1.000  H
  H10      1.0000 0.59831  0.83191  0.29205  Biso   1.000  H
  H11      1.0000 0.66012  0.97428  0.25894  Biso   1.000  H
  H12      1.0000 0.54484  0.84810  0.48794  Biso   1.000  H
  H13      1.0000 0.50382  0.97056  0.40866  Biso   1.000  H
  H14      1.0000 0.52454  0.75390  0.23380  Biso   1.000  H
  Cu3      1.0000 0.81218  0.83070  0.18630  Biso   1.000  Cu
  O5       1.0000 0.87180  0.07300  0.15510  Biso   1.000  O
  O6       1.0000 0.86100  0.17990  0.92580  Biso   1.000  O
  N11      1.0000 0.78040  0.00880  0.76020  Biso   1.000  N
  N12      1.0000 0.74410  0.90530  0.70720  Biso   1.000  N
  N13      1.0000 0.74950  0.82580  0.83150  Biso   1.000  N
  N14      1.0000 0.78860  0.87660  0.96230  Biso   1.000  N
  N15      1.0000 0.85700  0.66080  0.16920  Biso   1.000  N
  C17      1.0000 0.85070  0.08860  0.00940  Biso   1.000  C
  C18      1.0000 0.80700  0.98870  0.91600  Biso   1.000  C
  C19      1.0000 0.88920  0.71960  0.11530  Biso   1.000  C
  C20      1.0000 0.92700  0.64390  0.09200  Biso   1.000  C
  C21      1.0000 0.93157  0.49730  0.12750  Biso   1.000  C
  C22      1.0000 0.89900  0.43300  0.18320  Biso   1.000  C
  C23      1.0000 0.86240  0.51860  0.20240  Biso   1.000  C
  C24      1.0000 0.97183  0.40780  0.10494  Biso   1.000  C
  H15      1.0000 0.88572  0.82093  0.09128  Biso   1.000  H
  H16      1.0000 0.94905  0.69064  0.05315  Biso   1.000  H
  H17      1.0000 0.90169  0.33191  0.20795  Biso   1.000  H
  H18      1.0000 0.83988  0.47428  0.24106  Biso   1.000  H
  H19      1.0000 0.95516  0.34810  0.01206  Biso   1.000  H
  H20      1.0000 0.99618  0.47056  0.09134  Biso   1.000  H
  H21      1.0000 0.97546  0.25390  0.26620  Biso   1.000  H
  Cu4      1.0000 0.31218  0.33070  0.18630  Biso   1.000  Cu
  O7       1.0000 0.37180  0.57300  0.15510  Biso   1.000  O
  O8       1.0000 0.36100  0.67990  0.92580  Biso   1.000  O
  N16      1.0000 0.28040  0.50880  0.76020  Biso   1.000  N
  N17      1.0000 0.24410  0.40530  0.70720  Biso   1.000  N
  N18      1.0000 0.24950  0.32580  0.83150  Biso   1.000  N
  N19      1.0000 0.28860  0.37660  0.96230  Biso   1.000  N
  N20      1.0000 0.35700  0.16080  0.16920  Biso   1.000  N
  C25      1.0000 0.35070  0.58860  0.00940  Biso   1.000  C
  C26      1.0000 0.30700  0.48870  0.91600  Biso   1.000  C
  C27      1.0000 0.38920  0.21960  0.11530  Biso   1.000  C
  C28      1.0000 0.42700  0.14390  0.09200  Biso   1.000  C
  C29      1.0000 0.43157  0.99730  0.12750  Biso   1.000  C
  C30      1.0000 0.39900  0.93300  0.18320  Biso   1.000  C
  C31      1.0000 0.36240  0.01860  0.20240  Biso   1.000  C
  C32      1.0000 0.47183  0.90780  0.10494  Biso   1.000  C
  H22      1.0000 0.38572  0.32093  0.09128  Biso   1.000  H
  H23      1.0000 0.44905  0.19064  0.05315  Biso   1.000  H
  H24      1.0000 0.40169  0.83191  0.20795  Biso   1.000  H
  H25      1.0000 0.33988  0.97428  0.24106  Biso   1.000  H
  H26      1.0000 0.45516  0.84810  0.01206  Biso   1.000  H
  H27      1.0000 0.49618  0.97056  0.09134  Biso   1.000  H
  H28      1.0000 0.47546  0.75390  0.26620  Biso   1.000  H
  Cu5      1.0000 0.81218  0.16930  0.68630  Biso   1.000  Cu
  O9       1.0000 0.87180  0.92700  0.65510  Biso   1.000  O
  O10      1.0000 0.86100  0.82010  0.42580  Biso   1.000  O
  N21      1.0000 0.78040  0.99120  0.26020  Biso   1.000  N
  N22      1.0000 0.74410  0.09470  0.20720  Biso   1.000  N
  N23      1.0000 0.74950  0.17420  0.33150  Biso   1.000  N
  N24      1.0000 0.78860  0.12340  0.46230  Biso   1.000  N
  N25      1.0000 0.85700  0.33920  0.66920  Biso   1.000  N
  C33      1.0000 0.85070  0.91140  0.50940  Biso   1.000  C
  C34      1.0000 0.80700  0.01130  0.41600  Biso   1.000  C
  C35      1.0000 0.88920  0.28040  0.61530  Biso   1.000  C
  C36      1.0000 0.92700  0.35610  0.59200  Biso   1.000  C
  C37      1.0000 0.93157  0.50270  0.62750  Biso   1.000  C
  C38      1.0000 0.89900  0.56700  0.68320  Biso   1.000  C
  C39      1.0000 0.86240  0.48140  0.70240  Biso   1.000  C
  C40      1.0000 0.97183  0.59220  0.60494  Biso   1.000  C
  H29      1.0000 0.88572  0.17907  0.59128  Biso   1.000  H
  H30      1.0000 0.94905  0.30936  0.55315  Biso   1.000  H
  H31      1.0000 0.90169  0.66809  0.70795  Biso   1.000  H
  H32      1.0000 0.83988  0.52572  0.74106  Biso   1.000  H
  H33      1.0000 0.95516  0.65190  0.51206  Biso   1.000  H
  H34      1.0000 0.99618  0.52944  0.59134  Biso   1.000  H
  H35      1.0000 0.97546  0.74610  0.76620  Biso   1.000  H
  Cu6      1.0000 0.31218  0.66930  0.68630  Biso   1.000  Cu
  O11      1.0000 0.37180  0.42700  0.65510  Biso   1.000  O
  O12      1.0000 0.36100  0.32010  0.42580  Biso   1.000  O
  N26      1.0000 0.28040  0.49120  0.26020  Biso   1.000  N
  N27      1.0000 0.24410  0.59470  0.20720  Biso   1.000  N
  N28      1.0000 0.24950  0.67420  0.33150  Biso   1.000  N
  N29      1.0000 0.28860  0.62340  0.46230  Biso   1.000  N
  N30      1.0000 0.35700  0.83920  0.66920  Biso   1.000  N
  C41      1.0000 0.35070  0.41140  0.50940  Biso   1.000  C
  C42      1.0000 0.30700  0.51130  0.41600  Biso   1.000  C
  C43      1.0000 0.38920  0.78040  0.61530  Biso   1.000  C
  C44      1.0000 0.42700  0.85610  0.59200  Biso   1.000  C
  C45      1.0000 0.43157  0.00270  0.62750  Biso   1.000  C
  C46      1.0000 0.39900  0.06700  0.68320  Biso   1.000  C
  C47      1.0000 0.36240  0.98140  0.70240  Biso   1.000  C
  C48      1.0000 0.47183  0.09220  0.60494  Biso   1.000  C
  H36      1.0000 0.38572  0.67907  0.59128  Biso   1.000  H
  H37      1.0000 0.44905  0.80936  0.55315  Biso   1.000  H
  H38      1.0000 0.40169  0.16809  0.70795  Biso   1.000  H
  H39      1.0000 0.33988  0.02572  0.74106  Biso   1.000  H
  H40      1.0000 0.45516  0.15190  0.51206  Biso   1.000  H
  H41      1.0000 0.49618  0.02944  0.59134  Biso   1.000  H
  H42      1.0000 0.47546  0.24610  0.76620  Biso   1.000  H
  Cu7      1.0000 0.18782  0.16930  0.81370  Biso   1.000  Cu
  O13      1.0000 0.12820  0.92700  0.84490  Biso   1.000  O
  O14      1.0000 0.13900  0.82010  0.07420  Biso   1.000  O
  N31      1.0000 0.21960  0.99120  0.23980  Biso   1.000  N
  N32      1.0000 0.25590  0.09470  0.29280  Biso   1.000  N
  N33      1.0000 0.25050  0.17420  0.16850  Biso   1.000  N
  N34      1.0000 0.21140  0.12340  0.03770  Biso   1.000  N
  N35      1.0000 0.14300  0.33920  0.83080  Biso   1.000  N
  C49      1.0000 0.14930  0.91140  0.99060  Biso   1.000  C
  C50      1.0000 0.19300  0.01130  0.08400  Biso   1.000  C
  C51      1.0000 0.11080  0.28040  0.88470  Biso   1.000  C
  C52      1.0000 0.07300  0.35610  0.90800  Biso   1.000  C
  C53      1.0000 0.06843  0.50270  0.87250  Biso   1.000  C
  C54      1.0000 0.10100  0.56700  0.81680  Biso   1.000  C
  C55      1.0000 0.13760  0.48140  0.79760  Biso   1.000  C
  C56      1.0000 0.02817  0.59220  0.89506  Biso   1.000  C
  H43      1.0000 0.11428  0.17907  0.90872  Biso   1.000  H
  H44      1.0000 0.05095  0.30936  0.94685  Biso   1.000  H
  H45      1.0000 0.09831  0.66809  0.79205  Biso   1.000  H
  H46      1.0000 0.16012  0.52572  0.75894  Biso   1.000  H
  H47      1.0000 0.04484  0.65190  0.98794  Biso   1.000  H
  H48      1.0000 0.00382  0.52944  0.90866  Biso   1.000  H
  H49      1.0000 0.02454  0.74610  0.73380  Biso   1.000  H
  Cu8      1.0000 0.68782  0.66930  0.81370  Biso   1.000  Cu
  O15      1.0000 0.62820  0.42700  0.84490  Biso   1.000  O
  O16      1.0000 0.63900  0.32010  0.07420  Biso   1.000  O
  N36      1.0000 0.71960  0.49120  0.23980  Biso   1.000  N
  N37      1.0000 0.75590  0.59470  0.29280  Biso   1.000  N
  N38      1.0000 0.75050  0.67420  0.16850  Biso   1.000  N
  N39      1.0000 0.71140  0.62340  0.03770  Biso   1.000  N
  N40      1.0000 0.64300  0.83920  0.83080  Biso   1.000  N
  C57      1.0000 0.64930  0.41140  0.99060  Biso   1.000  C
  C58      1.0000 0.69300  0.51130  0.08400  Biso   1.000  C
  C59      1.0000 0.61080  0.78040  0.88470  Biso   1.000  C
  C60      1.0000 0.57300  0.85610  0.90800  Biso   1.000  C
  C61      1.0000 0.56843  0.00270  0.87250  Biso   1.000  C
  C62      1.0000 0.60100  0.06700  0.81680  Biso   1.000  C
  C63      1.0000 0.63760  0.98140  0.79760  Biso   1.000  C
  C64      1.0000 0.52817  0.09220  0.89506  Biso   1.000  C
  H50      1.0000 0.61428  0.67907  0.90872  Biso   1.000  H
  H51      1.0000 0.55095  0.80936  0.94685  Biso   1.000  H
  H52      1.0000 0.59831  0.16809  0.79205  Biso   1.000  H
  H53      1.0000 0.66012  0.02572  0.75894  Biso   1.000  H
  H54      1.0000 0.54484  0.15190  0.98794  Biso   1.000  H
  H55      1.0000 0.50382  0.02944  0.90866  Biso   1.000  H
  H56      1.0000 0.52454  0.24610  0.73380  Biso   1.000  H
  C65      1.0000 0.00000  0.31370  0.25000  Biso   1.000  C
  C66      1.0000 0.50000  0.81370  0.25000  Biso   1.000  C
  C67      1.0000 0.00000  0.68630  0.75000  Biso   1.000  C
  C68      1.0000 0.50000  0.18630  0.75000  Biso   1.000  C
