data_image0
_cell_length_a       24.561
_cell_length_b       6.986
_cell_length_c       9.1333
_cell_angle_alpha    90
_cell_angle_beta     90
_cell_angle_gamma    90

_symmetry_space_group_name_H-M    "P 1"
_symmetry_int_tables_number       1

loop_
  _symmetry_equiv_pos_as_xyz
  'x, y, z'

loop_
  _atom_site_label
  _atom_site_occupancy
  _atom_site_fract_x
  _atom_site_fract_y
  _atom_site_fract_z
  _atom_site_thermal_displace_type
  _atom_site_B_iso_or_equiv
  _atom_site_type_symbol
  N1       1.0000 0.44234  0.15430  0.59820  Biso   1.000  N
  H1       1.0000 0.38320  0.96460  0.65910  Biso   1.000  H
  C1       1.0000 0.39417  0.09410  0.64730  Biso   1.000  C
  C2       1.0000 0.27770  0.08600  0.73410  Biso   1.000  C
  H2       1.0000 0.29600  0.96710  0.72390  Biso   1.000  H
  N2       1.0000 0.39417  0.40590  0.64730  Biso   1.000  N
  N3       1.0000 0.94234  0.65430  0.09820  Biso   1.000  N
  H3       1.0000 0.88320  0.46460  0.15910  Biso   1.000  H
  C3       1.0000 0.89417  0.59410  0.14730  Biso   1.000  C
  C4       1.0000 0.77770  0.58600  0.23410  Biso   1.000  C
  H4       1.0000 0.79600  0.46710  0.22390  Biso   1.000  H
  N4       1.0000 0.89417  0.90590  0.14730  Biso   1.000  N
  N5       1.0000 0.55766  0.34570  0.59820  Biso   1.000  N
  H5       1.0000 0.61680  0.53540  0.65910  Biso   1.000  H
  C5       1.0000 0.60583  0.40590  0.64730  Biso   1.000  C
  C6       1.0000 0.72230  0.41400  0.73410  Biso   1.000  C
  H6       1.0000 0.70400  0.53290  0.72390  Biso   1.000  H
  N6       1.0000 0.60583  0.09410  0.64730  Biso   1.000  N
  N7       1.0000 0.05766  0.84570  0.09820  Biso   1.000  N
  H7       1.0000 0.11680  0.03540  0.15910  Biso   1.000  H
  C7       1.0000 0.10583  0.90590  0.14730  Biso   1.000  C
  C8       1.0000 0.22230  0.91400  0.23410  Biso   1.000  C
  H8       1.0000 0.20400  0.03290  0.22390  Biso   1.000  H
  N8       1.0000 0.10583  0.59410  0.14730  Biso   1.000  N
  N9       1.0000 0.55766  0.65430  0.40180  Biso   1.000  N
  H9       1.0000 0.61680  0.46460  0.34090  Biso   1.000  H
  C9       1.0000 0.60583  0.59410  0.35270  Biso   1.000  C
  C10      1.0000 0.72230  0.58600  0.26590  Biso   1.000  C
  H10      1.0000 0.70400  0.46710  0.27610  Biso   1.000  H
  N10      1.0000 0.60583  0.90590  0.35270  Biso   1.000  N
  N11      1.0000 0.05766  0.15430  0.90180  Biso   1.000  N
  H11      1.0000 0.11680  0.96460  0.84090  Biso   1.000  H
  C11      1.0000 0.10583  0.09410  0.85270  Biso   1.000  C
  C12      1.0000 0.22230  0.08600  0.76590  Biso   1.000  C
  H12      1.0000 0.20400  0.96710  0.77610  Biso   1.000  H
  N12      1.0000 0.10583  0.40590  0.85270  Biso   1.000  N
  N13      1.0000 0.44234  0.84570  0.40180  Biso   1.000  N
  H13      1.0000 0.38320  0.03540  0.34090  Biso   1.000  H
  C13      1.0000 0.39417  0.90590  0.35270  Biso   1.000  C
  C14      1.0000 0.27770  0.91400  0.26590  Biso   1.000  C
  H14      1.0000 0.29600  0.03290  0.27610  Biso   1.000  H
  N14      1.0000 0.39417  0.59410  0.35270  Biso   1.000  N
  N15      1.0000 0.94234  0.34570  0.90180  Biso   1.000  N
  H15      1.0000 0.88320  0.53540  0.84090  Biso   1.000  H
  C15      1.0000 0.89417  0.40590  0.85270  Biso   1.000  C
  C16      1.0000 0.77770  0.41400  0.76590  Biso   1.000  C
  H16      1.0000 0.79600  0.53290  0.77610  Biso   1.000  H
  N16      1.0000 0.89417  0.09410  0.85270  Biso   1.000  N
  N17      1.0000 0.55766  0.84570  0.40180  Biso   1.000  N
  H17      1.0000 0.61680  0.03540  0.34090  Biso   1.000  H
  C17      1.0000 0.72230  0.91400  0.26590  Biso   1.000  C
  H18      1.0000 0.70400  0.03290  0.27610  Biso   1.000  H
  N18      1.0000 0.05766  0.34570  0.90180  Biso   1.000  N
  H19      1.0000 0.11680  0.53540  0.84090  Biso   1.000  H
  C18      1.0000 0.22230  0.41400  0.76590  Biso   1.000  C
  H20      1.0000 0.20400  0.53290  0.77610  Biso   1.000  H
  N19      1.0000 0.44234  0.65430  0.40180  Biso   1.000  N
  H21      1.0000 0.38320  0.46460  0.34090  Biso   1.000  H
  C19      1.0000 0.27770  0.58600  0.26590  Biso   1.000  C
  H22      1.0000 0.29600  0.46710  0.27610  Biso   1.000  H
  N20      1.0000 0.94234  0.15430  0.90180  Biso   1.000  N
  H23      1.0000 0.88320  0.96460  0.84090  Biso   1.000  H
  C20      1.0000 0.77770  0.08600  0.76590  Biso   1.000  C
  H24      1.0000 0.79600  0.96710  0.77610  Biso   1.000  H
  N21      1.0000 0.44234  0.34570  0.59820  Biso   1.000  N
  H25      1.0000 0.38320  0.53540  0.65910  Biso   1.000  H
  C21      1.0000 0.27770  0.41400  0.73410  Biso   1.000  C
  H26      1.0000 0.29600  0.53290  0.72390  Biso   1.000  H
  N22      1.0000 0.94234  0.84570  0.09820  Biso   1.000  N
  H27      1.0000 0.88320  0.03540  0.15910  Biso   1.000  H
  C22      1.0000 0.77770  0.91400  0.23410  Biso   1.000  C
  H28      1.0000 0.79600  0.03290  0.22390  Biso   1.000  H
  N23      1.0000 0.55766  0.15430  0.59820  Biso   1.000  N
  H29      1.0000 0.61680  0.96460  0.65910  Biso   1.000  H
  C23      1.0000 0.72230  0.08600  0.73410  Biso   1.000  C
  H30      1.0000 0.70400  0.96710  0.72390  Biso   1.000  H
  N24      1.0000 0.05766  0.65430  0.09820  Biso   1.000  N
  H31      1.0000 0.11680  0.46460  0.15910  Biso   1.000  H
  C24      1.0000 0.22230  0.58600  0.23410  Biso   1.000  C
  H32      1.0000 0.20400  0.46710  0.22390  Biso   1.000  H
  Cu1      1.0000 0.50000  0.00000  0.50000  Biso   1.000  Cu
  Cu2      1.0000 0.00000  0.50000  0.00000  Biso   1.000  Cu
  Cu3      1.0000 0.50000  0.50000  0.50000  Biso   1.000  Cu
  Cu4      1.0000 0.00000  0.00000  0.00000  Biso   1.000  Cu
  C25      1.0000 0.36390  0.25000  0.67720  Biso   1.000  C
  C26      1.0000 0.30600  0.25000  0.71740  Biso   1.000  C
  C27      1.0000 0.86390  0.75000  0.17720  Biso   1.000  C
  C28      1.0000 0.80600  0.75000  0.21740  Biso   1.000  C
  C29      1.0000 0.63610  0.25000  0.67720  Biso   1.000  C
  C30      1.0000 0.69400  0.25000  0.71740  Biso   1.000  C
  C31      1.0000 0.13610  0.75000  0.17720  Biso   1.000  C
  C32      1.0000 0.19400  0.75000  0.21740  Biso   1.000  C
  C33      1.0000 0.63610  0.75000  0.32280  Biso   1.000  C
  C34      1.0000 0.69400  0.75000  0.28260  Biso   1.000  C
  C35      1.0000 0.13610  0.25000  0.82280  Biso   1.000  C
  C36      1.0000 0.19400  0.25000  0.78260  Biso   1.000  C
  C37      1.0000 0.36390  0.75000  0.32280  Biso   1.000  C
  C38      1.0000 0.30600  0.75000  0.28260  Biso   1.000  C
  C39      1.0000 0.86390  0.25000  0.82280  Biso   1.000  C
  C40      1.0000 0.80600  0.25000  0.78260  Biso   1.000  C
