data_image0
_cell_length_a       23.739
_cell_length_b       7.0724
_cell_length_c       11.5405
_cell_angle_alpha    90
_cell_angle_beta     90
_cell_angle_gamma    90

_symmetry_space_group_name_H-M    "P 1"
_symmetry_int_tables_number       1

loop_
  _symmetry_equiv_pos_as_xyz
  'x, y, z'

loop_
  _atom_site_label
  _atom_site_occupancy
  _atom_site_fract_x
  _atom_site_fract_y
  _atom_site_fract_z
  _atom_site_thermal_displace_type
  _atom_site_B_iso_or_equiv
  _atom_site_type_symbol
  N1       1.0000 0.44039  0.15650  0.42440  Biso   1.000  N
  C1       1.0000 0.39154  0.09680  0.37760  Biso   1.000  C
  H1       1.0000 0.38050  0.96890  0.36660  Biso   1.000  H
  C2       1.0000 0.27760  0.08940  0.27140  Biso   1.000  C
  H2       1.0000 0.29650  0.97240  0.28240  Biso   1.000  H
  N2       1.0000 0.39154  0.40320  0.37760  Biso   1.000  N
  N3       1.0000 0.94039  0.65650  0.92440  Biso   1.000  N
  C3       1.0000 0.89154  0.59680  0.87760  Biso   1.000  C
  H3       1.0000 0.88050  0.46890  0.86660  Biso   1.000  H
  C4       1.0000 0.77760  0.58940  0.77140  Biso   1.000  C
  H4       1.0000 0.79650  0.47240  0.78240  Biso   1.000  H
  N4       1.0000 0.89154  0.90320  0.87760  Biso   1.000  N
  N5       1.0000 0.55961  0.34350  0.42440  Biso   1.000  N
  C5       1.0000 0.60846  0.40320  0.37760  Biso   1.000  C
  H5       1.0000 0.61950  0.53110  0.36660  Biso   1.000  H
  C6       1.0000 0.72240  0.41060  0.27140  Biso   1.000  C
  H6       1.0000 0.70350  0.52760  0.28240  Biso   1.000  H
  N6       1.0000 0.60846  0.09680  0.37760  Biso   1.000  N
  N7       1.0000 0.05961  0.84350  0.92440  Biso   1.000  N
  C7       1.0000 0.10846  0.90320  0.87760  Biso   1.000  C
  H7       1.0000 0.11950  0.03110  0.86660  Biso   1.000  H
  C8       1.0000 0.22240  0.91060  0.77140  Biso   1.000  C
  H8       1.0000 0.20350  0.02760  0.78240  Biso   1.000  H
  N8       1.0000 0.10846  0.59680  0.87760  Biso   1.000  N
  N9       1.0000 0.55961  0.65650  0.57560  Biso   1.000  N
  C9       1.0000 0.60846  0.59680  0.62240  Biso   1.000  C
  H9       1.0000 0.61950  0.46890  0.63340  Biso   1.000  H
  C10      1.0000 0.72240  0.58940  0.72860  Biso   1.000  C
  H10      1.0000 0.70350  0.47240  0.71760  Biso   1.000  H
  N10      1.0000 0.60846  0.90320  0.62240  Biso   1.000  N
  N11      1.0000 0.05961  0.15650  0.07560  Biso   1.000  N
  C11      1.0000 0.10846  0.09680  0.12240  Biso   1.000  C
  H11      1.0000 0.11950  0.96890  0.13340  Biso   1.000  H
  C12      1.0000 0.22240  0.08940  0.22860  Biso   1.000  C
  H12      1.0000 0.20350  0.97240  0.21760  Biso   1.000  H
  N12      1.0000 0.10846  0.40320  0.12240  Biso   1.000  N
  N13      1.0000 0.44039  0.84350  0.57560  Biso   1.000  N
  C13      1.0000 0.39154  0.90320  0.62240  Biso   1.000  C
  H13      1.0000 0.38050  0.03110  0.63340  Biso   1.000  H
  C14      1.0000 0.27760  0.91060  0.72860  Biso   1.000  C
  H14      1.0000 0.29650  0.02760  0.71760  Biso   1.000  H
  N14      1.0000 0.39154  0.59680  0.62240  Biso   1.000  N
  N15      1.0000 0.94039  0.34350  0.07560  Biso   1.000  N
  C15      1.0000 0.89154  0.40320  0.12240  Biso   1.000  C
  H15      1.0000 0.88050  0.53110  0.13340  Biso   1.000  H
  C16      1.0000 0.77760  0.41060  0.22860  Biso   1.000  C
  H16      1.0000 0.79650  0.52760  0.21760  Biso   1.000  H
  N16      1.0000 0.89154  0.09680  0.12240  Biso   1.000  N
  N17      1.0000 0.55961  0.84350  0.57560  Biso   1.000  N
  H17      1.0000 0.61950  0.03110  0.63340  Biso   1.000  H
  C17      1.0000 0.72240  0.91060  0.72860  Biso   1.000  C
  H18      1.0000 0.70350  0.02760  0.71760  Biso   1.000  H
  N18      1.0000 0.05961  0.34350  0.07560  Biso   1.000  N
  H19      1.0000 0.11950  0.53110  0.13340  Biso   1.000  H
  C18      1.0000 0.22240  0.41060  0.22860  Biso   1.000  C
  H20      1.0000 0.20350  0.52760  0.21760  Biso   1.000  H
  N19      1.0000 0.44039  0.65650  0.57560  Biso   1.000  N
  H21      1.0000 0.38050  0.46890  0.63340  Biso   1.000  H
  C19      1.0000 0.27760  0.58940  0.72860  Biso   1.000  C
  H22      1.0000 0.29650  0.47240  0.71760  Biso   1.000  H
  N20      1.0000 0.94039  0.15650  0.07560  Biso   1.000  N
  H23      1.0000 0.88050  0.96890  0.13340  Biso   1.000  H
  C20      1.0000 0.77760  0.08940  0.22860  Biso   1.000  C
  H24      1.0000 0.79650  0.97240  0.21760  Biso   1.000  H
  N21      1.0000 0.44039  0.34350  0.42440  Biso   1.000  N
  H25      1.0000 0.38050  0.53110  0.36660  Biso   1.000  H
  C21      1.0000 0.27760  0.41060  0.27140  Biso   1.000  C
  H26      1.0000 0.29650  0.52760  0.28240  Biso   1.000  H
  N22      1.0000 0.94039  0.84350  0.92440  Biso   1.000  N
  H27      1.0000 0.88050  0.03110  0.86660  Biso   1.000  H
  C22      1.0000 0.77760  0.91060  0.77140  Biso   1.000  C
  H28      1.0000 0.79650  0.02760  0.78240  Biso   1.000  H
  N23      1.0000 0.55961  0.15650  0.42440  Biso   1.000  N
  H29      1.0000 0.61950  0.96890  0.36660  Biso   1.000  H
  C23      1.0000 0.72240  0.08940  0.27140  Biso   1.000  C
  H30      1.0000 0.70350  0.97240  0.28240  Biso   1.000  H
  N24      1.0000 0.05961  0.65650  0.92440  Biso   1.000  N
  H31      1.0000 0.11950  0.46890  0.86660  Biso   1.000  H
  C24      1.0000 0.22240  0.58940  0.77140  Biso   1.000  C
  H32      1.0000 0.20350  0.47240  0.78240  Biso   1.000  H
  Cu1      1.0000 0.50000  0.00000  0.50000  Biso   1.000  Cu
  Cu2      1.0000 0.00000  0.50000  0.00000  Biso   1.000  Cu
  Cu3      1.0000 0.50000  0.50000  0.50000  Biso   1.000  Cu
  Cu4      1.0000 0.00000  0.00000  0.00000  Biso   1.000  Cu
  C25      1.0000 0.30430  0.25000  0.29700  Biso   1.000  C
  C26      1.0000 0.36140  0.25000  0.34930  Biso   1.000  C
  C27      1.0000 0.80430  0.75000  0.79700  Biso   1.000  C
  C28      1.0000 0.86140  0.75000  0.84930  Biso   1.000  C
  C29      1.0000 0.69570  0.25000  0.29700  Biso   1.000  C
  C30      1.0000 0.63860  0.25000  0.34930  Biso   1.000  C
  C31      1.0000 0.19570  0.75000  0.79700  Biso   1.000  C
  C32      1.0000 0.13860  0.75000  0.84930  Biso   1.000  C
  C33      1.0000 0.69570  0.75000  0.70300  Biso   1.000  C
  C34      1.0000 0.63860  0.75000  0.65070  Biso   1.000  C
  C35      1.0000 0.19570  0.25000  0.20300  Biso   1.000  C
  C36      1.0000 0.13860  0.25000  0.15070  Biso   1.000  C
  C37      1.0000 0.30430  0.75000  0.70300  Biso   1.000  C
  C38      1.0000 0.36140  0.75000  0.65070  Biso   1.000  C
  C39      1.0000 0.80430  0.25000  0.20300  Biso   1.000  C
  C40      1.0000 0.86140  0.25000  0.15070  Biso   1.000  C
