data_image0
_cell_length_a       9.942
_cell_length_b       9.942
_cell_length_c       15.764
_cell_angle_alpha    90
_cell_angle_beta     90
_cell_angle_gamma    90

_symmetry_space_group_name_H-M    "P 1"
_symmetry_int_tables_number       1

loop_
  _symmetry_equiv_pos_as_xyz
  'x, y, z'

loop_
  _atom_site_label
  _atom_site_occupancy
  _atom_site_fract_x
  _atom_site_fract_y
  _atom_site_fract_z
  _atom_site_thermal_displace_type
  _atom_site_B_iso_or_equiv
  _atom_site_type_symbol
  C1       1.0000 0.24210  0.16010  0.31200  Biso   1.000  C
  H1       1.0000 0.23920  0.09850  0.35640  Biso   1.000  H
  C2       1.0000 0.74210  0.66010  0.81200  Biso   1.000  C
  H2       1.0000 0.73920  0.59850  0.85640  Biso   1.000  H
  C3       1.0000 0.75790  0.83990  0.31200  Biso   1.000  C
  H3       1.0000 0.76080  0.90150  0.35640  Biso   1.000  H
  C4       1.0000 0.25790  0.33990  0.81200  Biso   1.000  C
  H4       1.0000 0.26080  0.40150  0.85640  Biso   1.000  H
  C5       1.0000 0.83990  0.24210  0.31200  Biso   1.000  C
  H5       1.0000 0.90150  0.23920  0.35640  Biso   1.000  H
  C6       1.0000 0.33990  0.74210  0.81200  Biso   1.000  C
  H6       1.0000 0.40150  0.73920  0.85640  Biso   1.000  H
  C7       1.0000 0.16010  0.75790  0.31200  Biso   1.000  C
  H7       1.0000 0.09850  0.76080  0.35640  Biso   1.000  H
  C8       1.0000 0.66010  0.25790  0.81200  Biso   1.000  C
  H8       1.0000 0.59850  0.26080  0.85640  Biso   1.000  H
  C9       1.0000 0.75790  0.16010  0.18800  Biso   1.000  C
  H9       1.0000 0.76080  0.09850  0.14360  Biso   1.000  H
  C10      1.0000 0.25790  0.66010  0.68800  Biso   1.000  C
  H10      1.0000 0.26080  0.59850  0.64360  Biso   1.000  H
  C11      1.0000 0.24210  0.83990  0.18800  Biso   1.000  C
  H11      1.0000 0.23920  0.90150  0.14360  Biso   1.000  H
  C12      1.0000 0.74210  0.33990  0.68800  Biso   1.000  C
  H12      1.0000 0.73920  0.40150  0.64360  Biso   1.000  H
  C13      1.0000 0.16010  0.24210  0.18800  Biso   1.000  C
  H13      1.0000 0.09850  0.23920  0.14360  Biso   1.000  H
  C14      1.0000 0.66010  0.74210  0.68800  Biso   1.000  C
  H14      1.0000 0.59850  0.73920  0.64360  Biso   1.000  H
  C15      1.0000 0.83990  0.75790  0.18800  Biso   1.000  C
  H15      1.0000 0.90150  0.76080  0.14360  Biso   1.000  H
  C16      1.0000 0.33990  0.25790  0.68800  Biso   1.000  C
  H16      1.0000 0.40150  0.26080  0.64360  Biso   1.000  H
  C17      1.0000 0.75790  0.83990  0.68800  Biso   1.000  C
  H17      1.0000 0.76080  0.90150  0.64360  Biso   1.000  H
  C18      1.0000 0.25790  0.33990  0.18800  Biso   1.000  C
  H18      1.0000 0.26080  0.40150  0.14360  Biso   1.000  H
  C19      1.0000 0.24210  0.16010  0.68800  Biso   1.000  C
  H19      1.0000 0.23920  0.09850  0.64360  Biso   1.000  H
  C20      1.0000 0.74210  0.66010  0.18800  Biso   1.000  C
  H20      1.0000 0.73920  0.59850  0.14360  Biso   1.000  H
  C21      1.0000 0.16010  0.75790  0.68800  Biso   1.000  C
  H21      1.0000 0.09850  0.76080  0.64360  Biso   1.000  H
  C22      1.0000 0.66010  0.25790  0.18800  Biso   1.000  C
  H22      1.0000 0.59850  0.26080  0.14360  Biso   1.000  H
  C23      1.0000 0.83990  0.24210  0.68800  Biso   1.000  C
  H23      1.0000 0.90150  0.23920  0.64360  Biso   1.000  H
  C24      1.0000 0.33990  0.74210  0.18800  Biso   1.000  C
  H24      1.0000 0.40150  0.73920  0.14360  Biso   1.000  H
  C25      1.0000 0.24210  0.83990  0.81200  Biso   1.000  C
  H25      1.0000 0.23920  0.90150  0.85640  Biso   1.000  H
  C26      1.0000 0.74210  0.33990  0.31200  Biso   1.000  C
  H26      1.0000 0.73920  0.40150  0.35640  Biso   1.000  H
  C27      1.0000 0.75790  0.16010  0.81200  Biso   1.000  C
  H27      1.0000 0.76080  0.09850  0.85640  Biso   1.000  H
  C28      1.0000 0.25790  0.66010  0.31200  Biso   1.000  C
  H28      1.0000 0.26080  0.59850  0.35640  Biso   1.000  H
  C29      1.0000 0.83990  0.75790  0.81200  Biso   1.000  C
  H29      1.0000 0.90150  0.76080  0.85640  Biso   1.000  H
  C30      1.0000 0.33990  0.25790  0.31200  Biso   1.000  C
  H30      1.0000 0.40150  0.26080  0.35640  Biso   1.000  H
  C31      1.0000 0.16010  0.24210  0.81200  Biso   1.000  C
  H31      1.0000 0.09850  0.23920  0.85640  Biso   1.000  H
  C32      1.0000 0.66010  0.74210  0.31200  Biso   1.000  C
  H32      1.0000 0.59850  0.73920  0.35640  Biso   1.000  H
  Nb1      1.0000 0.00000  0.00000  0.00000  Biso   1.000  Nb
  Nb2      1.0000 0.50000  0.50000  0.50000  Biso   1.000  Nb
  Nb3      1.0000 0.00000  0.00000  0.50000  Biso   1.000  Nb
  Nb4      1.0000 0.50000  0.50000  0.00000  Biso   1.000  Nb
  Ni1      1.0000 0.00000  0.00000  0.25000  Biso   1.000  Ni
  Ni2      1.0000 0.50000  0.50000  0.75000  Biso   1.000  Ni
  Ni3      1.0000 0.00000  0.00000  0.75000  Biso   1.000  Ni
  Ni4      1.0000 0.50000  0.50000  0.25000  Biso   1.000  Ni
  O1       1.0000 0.00000  0.00000  0.12310  Biso   1.000  O
  F1       1.0000 0.00000  0.00000  0.37690  Biso   1.000  F
  O2       1.0000 0.50000  0.50000  0.62310  Biso   1.000  O
  F2       1.0000 0.50000  0.50000  0.87690  Biso   1.000  F
  O3       1.0000 0.00000  0.00000  0.87690  Biso   1.000  O
  F3       1.0000 0.00000  0.00000  0.62310  Biso   1.000  F
  O4       1.0000 0.50000  0.50000  0.37690  Biso   1.000  O
  F4       1.0000 0.50000  0.50000  0.12310  Biso   1.000  F
  F5       1.0000 0.00800  0.19080  0.00000  Biso   1.000  F
  F6       1.0000 0.50800  0.69080  0.50000  Biso   1.000  F
  F7       1.0000 0.99200  0.80920  0.00000  Biso   1.000  F
  F8       1.0000 0.49200  0.30920  0.50000  Biso   1.000  F
  F9       1.0000 0.80920  0.00800  0.00000  Biso   1.000  F
  F10      1.0000 0.30920  0.50800  0.50000  Biso   1.000  F
  F11      1.0000 0.19080  0.99200  0.00000  Biso   1.000  F
  F12      1.0000 0.69080  0.49200  0.50000  Biso   1.000  F
  F13      1.0000 0.99200  0.19080  0.50000  Biso   1.000  F
  F14      1.0000 0.49200  0.69080  0.00000  Biso   1.000  F
  F15      1.0000 0.00800  0.80920  0.50000  Biso   1.000  F
  F16      1.0000 0.50800  0.30920  0.00000  Biso   1.000  F
  F17      1.0000 0.19080  0.00800  0.50000  Biso   1.000  F
  F18      1.0000 0.69080  0.50800  0.00000  Biso   1.000  F
  F19      1.0000 0.80920  0.99200  0.50000  Biso   1.000  F
  F20      1.0000 0.30920  0.49200  0.00000  Biso   1.000  F
  N1       1.0000 0.15140  0.15140  0.25000  Biso   1.000  N
  N2       1.0000 0.65140  0.65140  0.75000  Biso   1.000  N
  N3       1.0000 0.84860  0.84860  0.25000  Biso   1.000  N
  N4       1.0000 0.34860  0.34860  0.75000  Biso   1.000  N
  N5       1.0000 0.84860  0.15140  0.25000  Biso   1.000  N
  N6       1.0000 0.34860  0.65140  0.75000  Biso   1.000  N
  N7       1.0000 0.15140  0.84860  0.25000  Biso   1.000  N
  N8       1.0000 0.65140  0.34860  0.75000  Biso   1.000  N
  N9       1.0000 0.84860  0.84860  0.75000  Biso   1.000  N
  N10      1.0000 0.34860  0.34860  0.25000  Biso   1.000  N
  N11      1.0000 0.15140  0.15140  0.75000  Biso   1.000  N
  N12      1.0000 0.65140  0.65140  0.25000  Biso   1.000  N
  N13      1.0000 0.15140  0.84860  0.75000  Biso   1.000  N
  N14      1.0000 0.65140  0.34860  0.25000  Biso   1.000  N
  N15      1.0000 0.84860  0.15140  0.75000  Biso   1.000  N
  N16      1.0000 0.34860  0.65140  0.25000  Biso   1.000  N
