data_image0
_cell_length_a       12.726
_cell_length_b       8.057
_cell_length_c       13.505
_cell_angle_alpha    89.958
_cell_angle_beta     90.123
_cell_angle_gamma    89.928

_symmetry_space_group_name_H-M    "P 1"
_symmetry_int_tables_number       1

loop_
  _symmetry_equiv_pos_as_xyz
  'x, y, z'

loop_
  _atom_site_label
  _atom_site_occupancy
  _atom_site_fract_x
  _atom_site_fract_y
  _atom_site_fract_z
  _atom_site_thermal_displace_type
  _atom_site_B_iso_or_equiv
  _atom_site_type_symbol
  Cu1      1.0000 0.75001  0.25119  0.25004  Biso   1.000  Cu
  C1       1.0000 0.84900  0.65970  0.07710  Biso   1.000  C
  H1       1.0000 0.81230  0.74130  0.04260  Biso   1.000  H
  C2       1.0000 0.95420  0.67060  0.08660  Biso   1.000  C
  C3       1.0000 0.94620  0.41610  0.17650  Biso   1.000  C
  H2       1.0000 0.98160  0.33000  0.20820  Biso   1.000  H
  C4       1.0000 0.00390  0.54210  0.13830  Biso   1.000  C
  H3       1.0000 0.07640  0.54310  0.14650  Biso   1.000  H
  C5       1.0000 0.79520  0.52750  0.11850  Biso   1.000  C
  H4       1.0000 0.72290  0.52100  0.10930  Biso   1.000  H
  C6       1.0000 0.58580  0.83050  0.05150  Biso   1.000  C
  C7       1.0000 0.63880  0.95940  0.00750  Biso   1.000  C
  H5       1.0000 0.64880  0.96140  0.93930  Biso   1.000  H
  C8       1.0000 0.67730  0.08620  0.06640  Biso   1.000  C
  H6       1.0000 0.71400  0.17170  0.03580  Biso   1.000  H
  C9       1.0000 0.57210  0.83760  0.15220  Biso   1.000  C
  H7       1.0000 0.53690  0.75280  0.18500  Biso   1.000  H
  C10      1.0000 0.61080  0.97060  0.20430  Biso   1.000  C
  H8       1.0000 0.59850  0.97520  0.27210  Biso   1.000  H
  N1       1.0000 0.84330  0.40860  0.17140  Biso   1.000  N
  N2       1.0000 0.66510  0.09300  0.16280  Biso   1.000  N
  C11      1.0000 0.54490  0.66870  0.41270  Biso   1.000  C
  C12      1.0000 0.65100  0.65920  0.42300  Biso   1.000  C
  H9       1.0000 0.68720  0.74120  0.45760  Biso   1.000  H
  C13      1.0000 0.49660  0.54310  0.36240  Biso   1.000  C
  H10      1.0000 0.42390  0.54410  0.35480  Biso   1.000  H
  C14      1.0000 0.55370  0.41670  0.32350  Biso   1.000  C
  H11      1.0000 0.51820  0.33200  0.29080  Biso   1.000  H
  C15      1.0000 0.70480  0.52800  0.38220  Biso   1.000  C
  H12      1.0000 0.77710  0.52180  0.39120  Biso   1.000  H
  N3       1.0000 0.65640  0.40810  0.32980  Biso   1.000  N
  N4       1.0000 0.83460  0.09240  0.33710  Biso   1.000  N
  C16      1.0000 0.91390  0.83060  0.44850  Biso   1.000  C
  C17      1.0000 0.86170  0.95790  0.49220  Biso   1.000  C
  H13      1.0000 0.85200  0.95870  0.56050  Biso   1.000  H
  C18      1.0000 0.82280  0.08750  0.43430  Biso   1.000  C
  H14      1.0000 0.78710  0.17380  0.46520  Biso   1.000  H
  C19      1.0000 0.92820  0.83910  0.34720  Biso   1.000  C
  H15      1.0000 0.96410  0.75520  0.31420  Biso   1.000  H
  C20      1.0000 0.88920  0.97150  0.29620  Biso   1.000  C
  H16      1.0000 0.90170  0.97680  0.22850  Biso   1.000  H
  C21      1.0000 0.94960  0.69020  0.50850  Biso   1.000  C
  H17      1.0000 0.94730  0.69560  0.57730  Biso   1.000  H
  C22      1.0000 0.01280  0.81200  0.04680  Biso   1.000  C
  H18      1.0000 0.08560  0.80630  0.04210  Biso   1.000  H
  C23      1.0000 0.48720  0.81190  0.45220  Biso   1.000  C
  H19      1.0000 0.41430  0.80810  0.45490  Biso   1.000  H
  N5       1.0000 0.53420  0.93980  0.48240  Biso   1.000  N
  N6       1.0000 0.96540  0.94120  0.01880  Biso   1.000  N
  C24      1.0000 0.54930  0.69220  0.99210  Biso   1.000  C
  H20      1.0000 0.54940  0.70000  0.92340  Biso   1.000  H
  N7       1.0000 0.51680  0.55950  0.03420  Biso   1.000  N
  N8       1.0000 0.98370  0.56090  0.46550  Biso   1.000  N
  Cu2      1.0000 0.24999  0.74881  0.74996  Biso   1.000  Cu
  C25      1.0000 0.15100  0.34030  0.92290  Biso   1.000  C
  H21      1.0000 0.18770  0.25870  0.95740  Biso   1.000  H
  C26      1.0000 0.04580  0.32940  0.91340  Biso   1.000  C
  C27      1.0000 0.05380  0.58390  0.82350  Biso   1.000  C
  H22      1.0000 0.01840  0.67000  0.79180  Biso   1.000  H
  C28      1.0000 0.99610  0.45790  0.86170  Biso   1.000  C
  H23      1.0000 0.92360  0.45690  0.85350  Biso   1.000  H
  C29      1.0000 0.20480  0.47250  0.88150  Biso   1.000  C
  H24      1.0000 0.27710  0.47900  0.89070  Biso   1.000  H
  C30      1.0000 0.41420  0.16950  0.94850  Biso   1.000  C
  C31      1.0000 0.36120  0.04060  0.99250  Biso   1.000  C
  H25      1.0000 0.35120  0.03860  0.06070  Biso   1.000  H
  C32      1.0000 0.32270  0.91380  0.93360  Biso   1.000  C
  H26      1.0000 0.28600  0.82830  0.96420  Biso   1.000  H
  C33      1.0000 0.42790  0.16240  0.84780  Biso   1.000  C
  H27      1.0000 0.46310  0.24720  0.81500  Biso   1.000  H
  C34      1.0000 0.38920  0.02940  0.79570  Biso   1.000  C
  H28      1.0000 0.40150  0.02480  0.72790  Biso   1.000  H
  N9       1.0000 0.15670  0.59140  0.82860  Biso   1.000  N
  N10      1.0000 0.33490  0.90700  0.83720  Biso   1.000  N
  C35      1.0000 0.45510  0.33130  0.58730  Biso   1.000  C
  C36      1.0000 0.34900  0.34080  0.57700  Biso   1.000  C
  H29      1.0000 0.31280  0.25880  0.54240  Biso   1.000  H
  C37      1.0000 0.50340  0.45690  0.63760  Biso   1.000  C
  H30      1.0000 0.57610  0.45590  0.64520  Biso   1.000  H
  C38      1.0000 0.44630  0.58330  0.67650  Biso   1.000  C
  H31      1.0000 0.48180  0.66800  0.70920  Biso   1.000  H
  C39      1.0000 0.29520  0.47200  0.61780  Biso   1.000  C
  H32      1.0000 0.22290  0.47820  0.60880  Biso   1.000  H
  N11      1.0000 0.34360  0.59190  0.67020  Biso   1.000  N
  N12      1.0000 0.16540  0.90760  0.66290  Biso   1.000  N
  C40      1.0000 0.08610  0.16940  0.55150  Biso   1.000  C
  C41      1.0000 0.13830  0.04210  0.50780  Biso   1.000  C
  H33      1.0000 0.14800  0.04130  0.43950  Biso   1.000  H
  C42      1.0000 0.17720  0.91250  0.56570  Biso   1.000  C
  H34      1.0000 0.21290  0.82620  0.53480  Biso   1.000  H
  C43      1.0000 0.07180  0.16090  0.65280  Biso   1.000  C
  H35      1.0000 0.03590  0.24480  0.68580  Biso   1.000  H
  C44      1.0000 0.11080  0.02850  0.70380  Biso   1.000  C
  H36      1.0000 0.09830  0.02320  0.77150  Biso   1.000  H
  C45      1.0000 0.05040  0.30980  0.49150  Biso   1.000  C
  H37      1.0000 0.05270  0.30440  0.42270  Biso   1.000  H
  C46      1.0000 0.98720  0.18800  0.95320  Biso   1.000  C
  H38      1.0000 0.91440  0.19370  0.95790  Biso   1.000  H
  C47      1.0000 0.51280  0.18810  0.54780  Biso   1.000  C
  H39      1.0000 0.58570  0.19190  0.54510  Biso   1.000  H
  N13      1.0000 0.46580  0.06020  0.51760  Biso   1.000  N
  N14      1.0000 0.03460  0.05880  0.98120  Biso   1.000  N
  C48      1.0000 0.45070  0.30780  0.00790  Biso   1.000  C
  H40      1.0000 0.45060  0.30000  0.07660  Biso   1.000  H
  N15      1.0000 0.48320  0.44050  0.96580  Biso   1.000  N
  N16      1.0000 0.01630  0.43910  0.53450  Biso   1.000  N
