data_image0
_cell_length_a       10.061
_cell_length_b       25.034
_cell_length_c       14.69
_cell_angle_alpha    90
_cell_angle_beta     103.081
_cell_angle_gamma    90

_symmetry_space_group_name_H-M    "P 1"
_symmetry_int_tables_number       1

loop_
  _symmetry_equiv_pos_as_xyz
  'x, y, z'

loop_
  _atom_site_label
  _atom_site_occupancy
  _atom_site_fract_x
  _atom_site_fract_y
  _atom_site_fract_z
  _atom_site_thermal_displace_type
  _atom_site_B_iso_or_equiv
  _atom_site_type_symbol
  Co1      1.0000 0.47290  0.02123  0.35893  Biso   1.000  Co
  C1       1.0000 0.60030  0.91106  0.36210  Biso   1.000  C
  H1       1.0000 0.67800  0.93200  0.36740  Biso   1.000  H
  C2       1.0000 0.61470  0.85673  0.35940  Biso   1.000  C
  H2       1.0000 0.70000  0.84170  0.36200  Biso   1.000  H
  C3       1.0000 0.50120  0.82432  0.35270  Biso   1.000  C
  C4       1.0000 0.37600  0.84945  0.34530  Biso   1.000  C
  H3       1.0000 0.29620  0.82960  0.33830  Biso   1.000  H
  C5       1.0000 0.37280  0.90428  0.34850  Biso   1.000  C
  H4       1.0000 0.28840  0.92060  0.34410  Biso   1.000  H
  C6       1.0000 0.42660  0.73026  0.35530  Biso   1.000  C
  C7       1.0000 0.47130  0.67398  0.34530  Biso   1.000  C
  C8       1.0000 0.60610  0.65923  0.35550  Biso   1.000  C
  H5       1.0000 0.67440  0.68480  0.37190  Biso   1.000  H
  C9       1.0000 0.64080  0.60681  0.34180  Biso   1.000  C
  H6       1.0000 0.73160  0.59700  0.34860  Biso   1.000  H
  C10      1.0000 0.53860  0.56941  0.31790  Biso   1.000  C
  C11      1.0000 0.40460  0.58288  0.30810  Biso   1.000  C
  H7       1.0000 0.33650  0.55720  0.29170  Biso   1.000  H
  C12      1.0000 0.37220  0.63524  0.32290  Biso   1.000  C
  H8       1.0000 0.28130  0.64460  0.31760  Biso   1.000  H
  C13      1.0000 0.52800  0.47191  0.31030  Biso   1.000  C
  C14      1.0000 0.56550  0.43073  0.25970  Biso   1.000  C
  H9       1.0000 0.61520  0.43780  0.21480  Biso   1.000  H
  C15      1.0000 0.53020  0.37931  0.27500  Biso   1.000  C
  H10      1.0000 0.55540  0.35170  0.24010  Biso   1.000  H
  C16      1.0000 0.45730  0.36810  0.34170  Biso   1.000  C
  C17      1.0000 0.41730  0.41039  0.39060  Biso   1.000  C
  H11      1.0000 0.36430  0.40380  0.43370  Biso   1.000  H
  C18      1.0000 0.45550  0.46212  0.37580  Biso   1.000  C
  H12      1.0000 0.43160  0.49010  0.41060  Biso   1.000  H
  C19      1.0000 0.41760  0.31254  0.36330  Biso   1.000  C
  C20      1.0000 0.48530  0.21870  0.34550  Biso   1.000  C
  C21      1.0000 0.56730  0.18660  0.30560  Biso   1.000  C
  H13      1.0000 0.62840  0.20200  0.27430  Biso   1.000  H
  C22      1.0000 0.55960  0.13244  0.31170  Biso   1.000  C
  H14      1.0000 0.61890  0.11210  0.28570  Biso   1.000  H
  C23      1.0000 0.39520  0.13820  0.38970  Biso   1.000  C
  H15      1.0000 0.33280  0.12200  0.41890  Biso   1.000  H
  C24      1.0000 0.39910  0.19310  0.38890  Biso   1.000  C
  H16      1.0000 0.34230  0.21260  0.41830  Biso   1.000  H
  C25      1.0000 0.72210  0.00143  0.52290  Biso   1.000  C
  C26      1.0000 0.86600  0.00036  0.51100  Biso   1.000  C
  C27      1.0000 0.96690  0.97376  0.57440  Biso   1.000  C
  H17      1.0000 0.94490  0.95590  0.62450  Biso   1.000  H
  C28      1.0000 0.09960  0.97345  0.56430  Biso   1.000  C
  H18      1.0000 0.16660  0.95570  0.60780  Biso   1.000  H
  C29      1.0000 0.38410  0.00489  0.92880  Biso   1.000  C
  H19      1.0000 0.30620  0.00830  0.88100  Biso   1.000  H
  C30      1.0000 0.37550  0.01102  0.02070  Biso   1.000  C
  H20      1.0000 0.29180  0.01830  0.03480  Biso   1.000  H
  C31      1.0000 0.49200  0.00628  0.09230  Biso   1.000  C
  C32      1.0000 0.48450  0.01357  0.19200  Biso   1.000  C
  N1       1.0000 0.48160  0.93587  0.35760  Biso   1.000  N
  N2       1.0000 0.52020  0.76920  0.35130  Biso   1.000  N
  H21      1.0000 0.59990  0.75850  0.34740  Biso   1.000  H
  N3       1.0000 0.50050  0.27389  0.34000  Biso   1.000  N
  H22      1.0000 0.56950  0.28490  0.31980  Biso   1.000  H
  N4       1.0000 0.47350  0.10694  0.35190  Biso   1.000  N
  O1       1.0000 0.31200  0.74033  0.36220  Biso   1.000  O
  O2       1.0000 0.58320  0.52056  0.29400  Biso   1.000  O
  O3       1.0000 0.32390  0.30331  0.39830  Biso   1.000  O
  O4       1.0000 0.69870  0.97624  0.59217  Biso   1.000  O
  O5       1.0000 0.63650  0.02744  0.46540  Biso   1.000  O
  O6       1.0000 0.36980  0.01728  0.21199  Biso   1.000  O
  O7       1.0000 0.59290  0.01619  0.25365  Biso   1.000  O
  Co2      1.0000 0.52710  0.97877  0.64107  Biso   1.000  Co
  C33      1.0000 0.39970  0.08894  0.63790  Biso   1.000  C
  H23      1.0000 0.32200  0.06800  0.63260  Biso   1.000  H
  C34      1.0000 0.38530  0.14327  0.64060  Biso   1.000  C
  H24      1.0000 0.30000  0.15830  0.63800  Biso   1.000  H
  C35      1.0000 0.49880  0.17568  0.64730  Biso   1.000  C
  C36      1.0000 0.62400  0.15055  0.65470  Biso   1.000  C
  H25      1.0000 0.70380  0.17040  0.66170  Biso   1.000  H
  C37      1.0000 0.62720  0.09572  0.65150  Biso   1.000  C
  H26      1.0000 0.71160  0.07940  0.65590  Biso   1.000  H
  C38      1.0000 0.57340  0.26974  0.64470  Biso   1.000  C
  C39      1.0000 0.52870  0.32602  0.65470  Biso   1.000  C
  C40      1.0000 0.39390  0.34077  0.64450  Biso   1.000  C
  H27      1.0000 0.32560  0.31520  0.62810  Biso   1.000  H
  C41      1.0000 0.35920  0.39319  0.65820  Biso   1.000  C
  H28      1.0000 0.26840  0.40300  0.65140  Biso   1.000  H
  C42      1.0000 0.46140  0.43059  0.68210  Biso   1.000  C
  C43      1.0000 0.59540  0.41712  0.69190  Biso   1.000  C
  H29      1.0000 0.66350  0.44280  0.70830  Biso   1.000  H
  C44      1.0000 0.62780  0.36476  0.67710  Biso   1.000  C
  H30      1.0000 0.71870  0.35540  0.68240  Biso   1.000  H
  C45      1.0000 0.47200  0.52809  0.68970  Biso   1.000  C
  C46      1.0000 0.43450  0.56927  0.74030  Biso   1.000  C
  H31      1.0000 0.38480  0.56220  0.78520  Biso   1.000  H
  C47      1.0000 0.46980  0.62069  0.72500  Biso   1.000  C
  H32      1.0000 0.44460  0.64830  0.75990  Biso   1.000  H
  C48      1.0000 0.54270  0.63190  0.65830  Biso   1.000  C
  C49      1.0000 0.58270  0.58961  0.60940  Biso   1.000  C
  H33      1.0000 0.63570  0.59620  0.56630  Biso   1.000  H
  C50      1.0000 0.54450  0.53788  0.62420  Biso   1.000  C
  H34      1.0000 0.56840  0.50990  0.58940  Biso   1.000  H
  C51      1.0000 0.58240  0.68746  0.63670  Biso   1.000  C
  C52      1.0000 0.51470  0.78130  0.65450  Biso   1.000  C
  C53      1.0000 0.43270  0.81340  0.69440  Biso   1.000  C
  H35      1.0000 0.37160  0.79800  0.72570  Biso   1.000  H
  C54      1.0000 0.44040  0.86756  0.68830  Biso   1.000  C
  H36      1.0000 0.38110  0.88790  0.71430  Biso   1.000  H
  C55      1.0000 0.60480  0.86180  0.61030  Biso   1.000  C
  H37      1.0000 0.66720  0.87800  0.58110  Biso   1.000  H
  C56      1.0000 0.60090  0.80690  0.61110  Biso   1.000  C
  H38      1.0000 0.65770  0.78740  0.58170  Biso   1.000  H
  C57      1.0000 0.27790  0.99857  0.47710  Biso   1.000  C
  C58      1.0000 0.13400  0.99964  0.48900  Biso   1.000  C
  C59      1.0000 0.03310  0.02624  0.42560  Biso   1.000  C
  H39      1.0000 0.05510  0.04410  0.37550  Biso   1.000  H
  C60      1.0000 0.90040  0.02655  0.43570  Biso   1.000  C
  H40      1.0000 0.83340  0.04430  0.39220  Biso   1.000  H
  C61      1.0000 0.61590  0.99511  0.07120  Biso   1.000  C
  H41      1.0000 0.69380  0.99170  0.11900  Biso   1.000  H
  C62      1.0000 0.62450  0.98898  0.97930  Biso   1.000  C
  H42      1.0000 0.70820  0.98170  0.96520  Biso   1.000  H
  C63      1.0000 0.50800  0.99372  0.90770  Biso   1.000  C
  C64      1.0000 0.51550  0.98643  0.80800  Biso   1.000  C
  N5       1.0000 0.51840  0.06413  0.64240  Biso   1.000  N
  N6       1.0000 0.47980  0.23080  0.64870  Biso   1.000  N
  H43      1.0000 0.40010  0.24150  0.65260  Biso   1.000  H
  N7       1.0000 0.49950  0.72611  0.66000  Biso   1.000  N
  H44      1.0000 0.43050  0.71510  0.68020  Biso   1.000  H
  N8       1.0000 0.52650  0.89306  0.64810  Biso   1.000  N
  O8       1.0000 0.68800  0.25967  0.63780  Biso   1.000  O
  O9       1.0000 0.41680  0.47944  0.70600  Biso   1.000  O
  O10      1.0000 0.67610  0.69669  0.60170  Biso   1.000  O
  O11      1.0000 0.30130  0.02376  0.40783  Biso   1.000  O
  O12      1.0000 0.36350  0.97256  0.53460  Biso   1.000  O
  O13      1.0000 0.63020  0.98272  0.78801  Biso   1.000  O
  O14      1.0000 0.40710  0.98381  0.74635  Biso   1.000  O
  Co3      1.0000 0.02710  0.52123  0.14107  Biso   1.000  Co
  C65      1.0000 0.89970  0.41106  0.13790  Biso   1.000  C
  H45      1.0000 0.82200  0.43200  0.13260  Biso   1.000  H
  C66      1.0000 0.88530  0.35673  0.14060  Biso   1.000  C
  H46      1.0000 0.80000  0.34170  0.13800  Biso   1.000  H
  C67      1.0000 0.99880  0.32432  0.14730  Biso   1.000  C
  C68      1.0000 0.12400  0.34945  0.15470  Biso   1.000  C
  H47      1.0000 0.20380  0.32960  0.16170  Biso   1.000  H
  C69      1.0000 0.12720  0.40428  0.15150  Biso   1.000  C
  H48      1.0000 0.21160  0.42060  0.15590  Biso   1.000  H
  C70      1.0000 0.07340  0.23026  0.14470  Biso   1.000  C
  C71      1.0000 0.02870  0.17398  0.15470  Biso   1.000  C
  C72      1.0000 0.89390  0.15923  0.14450  Biso   1.000  C
  H49      1.0000 0.82560  0.18480  0.12810  Biso   1.000  H
  C73      1.0000 0.85920  0.10681  0.15820  Biso   1.000  C
  H50      1.0000 0.76840  0.09700  0.15140  Biso   1.000  H
  C74      1.0000 0.96140  0.06941  0.18210  Biso   1.000  C
  C75      1.0000 0.09540  0.08288  0.19190  Biso   1.000  C
  H51      1.0000 0.16350  0.05720  0.20830  Biso   1.000  H
  C76      1.0000 0.12780  0.13524  0.17710  Biso   1.000  C
  H52      1.0000 0.21870  0.14460  0.18240  Biso   1.000  H
  C77      1.0000 0.97200  0.97191  0.18970  Biso   1.000  C
  C78      1.0000 0.93450  0.93073  0.24030  Biso   1.000  C
  H53      1.0000 0.88480  0.93780  0.28520  Biso   1.000  H
  C79      1.0000 0.96980  0.87931  0.22500  Biso   1.000  C
  H54      1.0000 0.94460  0.85170  0.25990  Biso   1.000  H
  C80      1.0000 0.04270  0.86810  0.15830  Biso   1.000  C
  C81      1.0000 0.08270  0.91039  0.10940  Biso   1.000  C
  H55      1.0000 0.13570  0.90380  0.06630  Biso   1.000  H
  C82      1.0000 0.04450  0.96212  0.12420  Biso   1.000  C
  H56      1.0000 0.06840  0.99010  0.08940  Biso   1.000  H
  C83      1.0000 0.08240  0.81254  0.13670  Biso   1.000  C
  C84      1.0000 0.01470  0.71870  0.15450  Biso   1.000  C
  C85      1.0000 0.93270  0.68660  0.19440  Biso   1.000  C
  H57      1.0000 0.87160  0.70200  0.22570  Biso   1.000  H
  C86      1.0000 0.94040  0.63244  0.18830  Biso   1.000  C
  H58      1.0000 0.88110  0.61210  0.21430  Biso   1.000  H
  C87      1.0000 0.10480  0.63820  0.11030  Biso   1.000  C
  H59      1.0000 0.16720  0.62200  0.08110  Biso   1.000  H
  C88      1.0000 0.10090  0.69310  0.11110  Biso   1.000  C
  H60      1.0000 0.15770  0.71260  0.08170  Biso   1.000  H
  C89      1.0000 0.77790  0.50143  0.97710  Biso   1.000  C
  C90      1.0000 0.63400  0.50036  0.98900  Biso   1.000  C
  C91      1.0000 0.53310  0.47376  0.92560  Biso   1.000  C
  H61      1.0000 0.55510  0.45590  0.87550  Biso   1.000  H
  C92      1.0000 0.40040  0.47345  0.93570  Biso   1.000  C
  H62      1.0000 0.33340  0.45570  0.89220  Biso   1.000  H
  C93      1.0000 0.11590  0.50489  0.57120  Biso   1.000  C
  H63      1.0000 0.19380  0.50830  0.61900  Biso   1.000  H
  C94      1.0000 0.12450  0.51102  0.47930  Biso   1.000  C
  H64      1.0000 0.20820  0.51830  0.46520  Biso   1.000  H
  C95      1.0000 0.00800  0.50628  0.40770  Biso   1.000  C
  C96      1.0000 0.01550  0.51357  0.30800  Biso   1.000  C
  N9       1.0000 0.01840  0.43587  0.14240  Biso   1.000  N
  N10      1.0000 0.97980  0.26920  0.14870  Biso   1.000  N
  H65      1.0000 0.90010  0.25850  0.15260  Biso   1.000  H
  N11      1.0000 0.99950  0.77389  0.16000  Biso   1.000  N
  H66      1.0000 0.93050  0.78490  0.18020  Biso   1.000  H
  N12      1.0000 0.02650  0.60694  0.14810  Biso   1.000  N
  O15      1.0000 0.18800  0.24033  0.13780  Biso   1.000  O
  O16      1.0000 0.91680  0.02056  0.20600  Biso   1.000  O
  O17      1.0000 0.17610  0.80331  0.10170  Biso   1.000  O
  O18      1.0000 0.80130  0.47624  0.90783  Biso   1.000  O
  O19      1.0000 0.86350  0.52744  0.03460  Biso   1.000  O
  O20      1.0000 0.13020  0.51728  0.28801  Biso   1.000  O
  O21      1.0000 0.90710  0.51619  0.24635  Biso   1.000  O
  Co4      1.0000 0.97290  0.47877  0.85893  Biso   1.000  Co
  C97      1.0000 0.10030  0.58894  0.86210  Biso   1.000  C
  H67      1.0000 0.17800  0.56800  0.86740  Biso   1.000  H
  C98      1.0000 0.11470  0.64327  0.85940  Biso   1.000  C
  H68      1.0000 0.20000  0.65830  0.86200  Biso   1.000  H
  C99      1.0000 0.00120  0.67568  0.85270  Biso   1.000  C
  C100     1.0000 0.87600  0.65055  0.84530  Biso   1.000  C
  H69      1.0000 0.79620  0.67040  0.83830  Biso   1.000  H
  C101     1.0000 0.87280  0.59572  0.84850  Biso   1.000  C
  H70      1.0000 0.78840  0.57940  0.84410  Biso   1.000  H
  C102     1.0000 0.92660  0.76974  0.85530  Biso   1.000  C
  C103     1.0000 0.97130  0.82602  0.84530  Biso   1.000  C
  C104     1.0000 0.10610  0.84077  0.85550  Biso   1.000  C
  H71      1.0000 0.17440  0.81520  0.87190  Biso   1.000  H
  C105     1.0000 0.14080  0.89319  0.84180  Biso   1.000  C
  H72      1.0000 0.23160  0.90300  0.84860  Biso   1.000  H
  C106     1.0000 0.03860  0.93059  0.81790  Biso   1.000  C
  C107     1.0000 0.90460  0.91712  0.80810  Biso   1.000  C
  H73      1.0000 0.83650  0.94280  0.79170  Biso   1.000  H
  C108     1.0000 0.87220  0.86476  0.82290  Biso   1.000  C
  H74      1.0000 0.78130  0.85540  0.81760  Biso   1.000  H
  C109     1.0000 0.02800  0.02809  0.81030  Biso   1.000  C
  C110     1.0000 0.06550  0.06927  0.75970  Biso   1.000  C
  H75      1.0000 0.11520  0.06220  0.71480  Biso   1.000  H
  C111     1.0000 0.03020  0.12069  0.77500  Biso   1.000  C
  H76      1.0000 0.05540  0.14830  0.74010  Biso   1.000  H
  C112     1.0000 0.95730  0.13190  0.84170  Biso   1.000  C
  C113     1.0000 0.91730  0.08961  0.89060  Biso   1.000  C
  H77      1.0000 0.86430  0.09620  0.93370  Biso   1.000  H
  C114     1.0000 0.95550  0.03788  0.87580  Biso   1.000  C
  H78      1.0000 0.93160  0.00990  0.91060  Biso   1.000  H
  C115     1.0000 0.91760  0.18746  0.86330  Biso   1.000  C
  C116     1.0000 0.98530  0.28130  0.84550  Biso   1.000  C
  C117     1.0000 0.06730  0.31340  0.80560  Biso   1.000  C
  H79      1.0000 0.12840  0.29800  0.77430  Biso   1.000  H
  C118     1.0000 0.05960  0.36756  0.81170  Biso   1.000  C
  H80      1.0000 0.11890  0.38790  0.78570  Biso   1.000  H
  C119     1.0000 0.89520  0.36180  0.88970  Biso   1.000  C
  H81      1.0000 0.83280  0.37800  0.91890  Biso   1.000  H
  C120     1.0000 0.89910  0.30690  0.88890  Biso   1.000  C
  H82      1.0000 0.84230  0.28740  0.91830  Biso   1.000  H
  C121     1.0000 0.22210  0.49857  0.02290  Biso   1.000  C
  C122     1.0000 0.36600  0.49964  0.01100  Biso   1.000  C
  C123     1.0000 0.46690  0.52624  0.07440  Biso   1.000  C
  H83      1.0000 0.44490  0.54410  0.12450  Biso   1.000  H
  C124     1.0000 0.59960  0.52655  0.06430  Biso   1.000  C
  H84      1.0000 0.66660  0.54430  0.10780  Biso   1.000  H
  C125     1.0000 0.88410  0.49511  0.42880  Biso   1.000  C
  H85      1.0000 0.80620  0.49170  0.38100  Biso   1.000  H
  C126     1.0000 0.87550  0.48898  0.52070  Biso   1.000  C
  H86      1.0000 0.79180  0.48170  0.53480  Biso   1.000  H
  C127     1.0000 0.99200  0.49372  0.59230  Biso   1.000  C
  C128     1.0000 0.98450  0.48643  0.69200  Biso   1.000  C
  N13      1.0000 0.98160  0.56413  0.85760  Biso   1.000  N
  N14      1.0000 0.02020  0.73080  0.85130  Biso   1.000  N
  H87      1.0000 0.09990  0.74150  0.84740  Biso   1.000  H
  N15      1.0000 0.00050  0.22611  0.84000  Biso   1.000  N
  H88      1.0000 0.06950  0.21510  0.81980  Biso   1.000  H
  N16      1.0000 0.97350  0.39306  0.85190  Biso   1.000  N
  O22      1.0000 0.81200  0.75967  0.86220  Biso   1.000  O
  O23      1.0000 0.08320  0.97944  0.79400  Biso   1.000  O
  O24      1.0000 0.82390  0.19669  0.89830  Biso   1.000  O
  O25      1.0000 0.19870  0.52376  0.09217  Biso   1.000  O
  O26      1.0000 0.13650  0.47256  0.96540  Biso   1.000  O
  O27      1.0000 0.86980  0.48272  0.71199  Biso   1.000  O
  O28      1.0000 0.09290  0.48381  0.75365  Biso   1.000  O
