data_image0
_cell_length_a       10.119
_cell_length_b       13.671
_cell_length_c       15.009
_cell_angle_alpha    111.271
_cell_angle_beta     101.926
_cell_angle_gamma    99.461

_symmetry_space_group_name_H-M    "P 1"
_symmetry_int_tables_number       1

loop_
  _symmetry_equiv_pos_as_xyz
  'x, y, z'

loop_
  _atom_site_label
  _atom_site_occupancy
  _atom_site_fract_x
  _atom_site_fract_y
  _atom_site_fract_z
  _atom_site_thermal_displace_type
  _atom_site_B_iso_or_equiv
  _atom_site_type_symbol
  Co1      1.0000 0.53041  0.51156  0.15017  Biso   1.000  Co
  C1       1.0000 0.74930  0.73480  0.26500  Biso   1.000  C
  H1       1.0000 0.81210  0.69270  0.25140  Biso   1.000  H
  C2       1.0000 0.80390  0.84560  0.32200  Biso   1.000  C
  H2       1.0000 0.90000  0.87660  0.34580  Biso   1.000  H
  C3       1.0000 0.71060  0.90880  0.34240  Biso   1.000  C
  C4       1.0000 0.56770  0.85770  0.30360  Biso   1.000  C
  H3       1.0000 0.50220  0.89770  0.31480  Biso   1.000  H
  C5       1.0000 0.52560  0.74670  0.24840  Biso   1.000  C
  H4       1.0000 0.43000  0.71340  0.22380  Biso   1.000  H
  C6       1.0000 0.87730  0.09120  0.42640  Biso   1.000  C
  C7       1.0000 0.89140  0.20290  0.50150  Biso   1.000  C
  C8       1.0000 0.97410  0.29240  0.49830  Biso   1.000  C
  H5       1.0000 0.02180  0.28210  0.45030  Biso   1.000  H
  C9       1.0000 0.98640  0.39600  0.56500  Biso   1.000  C
  H6       1.0000 0.04090  0.45570  0.56180  Biso   1.000  H
  C10      1.0000 0.91730  0.41060  0.63660  Biso   1.000  C
  C11      1.0000 0.83800  0.32270  0.64180  Biso   1.000  C
  H7       1.0000 0.79280  0.33330  0.69130  Biso   1.000  H
  C12      1.0000 0.82440  0.21940  0.57490  Biso   1.000  C
  H8       1.0000 0.76980  0.16030  0.57890  Biso   1.000  H
  C13      1.0000 0.00260  0.60840  0.73100  Biso   1.000  C
  C14      1.0000 0.14530  0.62270  0.74650  Biso   1.000  C
  H9       1.0000 0.18320  0.56320  0.73160  Biso   1.000  H
  C15      1.0000 0.23000  0.72670  0.78430  Biso   1.000  C
  H10      1.0000 0.32550  0.73720  0.79210  Biso   1.000  H
  C16      1.0000 0.17500  0.81660  0.81120  Biso   1.000  C
  C17      1.0000 0.03220  0.79990  0.79540  Biso   1.000  C
  H11      1.0000 0.99450  0.85950  0.81260  Biso   1.000  H
  C18      1.0000 0.94470  0.69660  0.75470  Biso   1.000  C
  H12      1.0000 0.84850  0.68590  0.74320  Biso   1.000  H
  C19      1.0000 0.27400  0.92680  0.85450  Biso   1.000  C
  C20      1.0000 0.30930  0.11520  0.97500  Biso   1.000  C
  C21      1.0000 0.41550  0.16590  0.95070  Biso   1.000  C
  H13      1.0000 0.44720  0.12560  0.89880  Biso   1.000  H
  C22      1.0000 0.47490  0.27390  0.00160  Biso   1.000  C
  H14      1.0000 0.54850  0.30460  0.98370  Biso   1.000  H
  C23      1.0000 0.33200  0.28990  0.09730  Biso   1.000  C
  H15      1.0000 0.30000  0.33270  0.14790  Biso   1.000  H
  C24      1.0000 0.26850  0.18130  0.05190  Biso   1.000  C
  H16      1.0000 0.19770  0.15190  0.07290  Biso   1.000  H
  C25      1.0000 0.51670  0.50790  0.31310  Biso   1.000  C
  C26      1.0000 0.50940  0.50410  0.41040  Biso   1.000  C
  C27      1.0000 0.61500  0.48240  0.46770  Biso   1.000  C
  H17      1.0000 0.69280  0.47010  0.44600  Biso   1.000  H
  C28      1.0000 0.60710  0.47870  0.55650  Biso   1.000  C
  H18      1.0000 0.68000  0.46460  0.59490  Biso   1.000  H
  C29      1.0000 0.89180  0.48810  0.91960  Biso   1.000  C
  H19      1.0000 0.81980  0.47940  0.86540  Biso   1.000  H
  C30      1.0000 0.02610  0.49130  0.91130  Biso   1.000  C
  H20      1.0000 0.04320  0.48610  0.85150  Biso   1.000  H
  C31      1.0000 0.13540  0.50220  0.98990  Biso   1.000  C
  C32      1.0000 0.27990  0.51020  0.98150  Biso   1.000  C
  N1       1.0000 0.61230  0.68420  0.22810  Biso   1.000  N
  N2       1.0000 0.75010  0.02060  0.40140  Biso   1.000  N
  N3       1.0000 0.23800  0.00560  0.92650  Biso   1.000  N
  N4       1.0000 0.43580  0.33900  0.07490  Biso   1.000  N
  O1       1.0000 0.97090  0.06710  0.39040  Biso   1.000  O
  O2       1.0000 0.90880  0.50860  0.70160  Biso   1.000  O
  O3       1.0000 0.38000  0.94340  0.82990  Biso   1.000  O
  O4       1.0000 0.62360  0.49550  0.28550  Biso   1.000  O
  O5       1.0000 0.41520  0.52440  0.26120  Biso   1.000  O
  O6       1.0000 0.37740  0.53650  0.05880  Biso   1.000  O
  O7       1.0000 0.29550  0.49370  0.89640  Biso   1.000  O
  Co2      1.0000 0.46959  0.48844  0.84983  Biso   1.000  Co
  C33      1.0000 0.25070  0.26520  0.73500  Biso   1.000  C
  H21      1.0000 0.18790  0.30730  0.74860  Biso   1.000  H
  C34      1.0000 0.19610  0.15440  0.67800  Biso   1.000  C
  H22      1.0000 0.10000  0.12340  0.65420  Biso   1.000  H
  C35      1.0000 0.28940  0.09120  0.65760  Biso   1.000  C
  C36      1.0000 0.43230  0.14230  0.69640  Biso   1.000  C
  H23      1.0000 0.49780  0.10230  0.68520  Biso   1.000  H
  C37      1.0000 0.47440  0.25330  0.75160  Biso   1.000  C
  H24      1.0000 0.57000  0.28660  0.77620  Biso   1.000  H
  C38      1.0000 0.12270  0.90880  0.57360  Biso   1.000  C
  C39      1.0000 0.10860  0.79710  0.49850  Biso   1.000  C
  C40      1.0000 0.02590  0.70760  0.50170  Biso   1.000  C
  H25      1.0000 0.97820  0.71790  0.54970  Biso   1.000  H
  C41      1.0000 0.01360  0.60400  0.43500  Biso   1.000  C
  H26      1.0000 0.95910  0.54430  0.43820  Biso   1.000  H
  C42      1.0000 0.08270  0.58940  0.36340  Biso   1.000  C
  C43      1.0000 0.16200  0.67730  0.35820  Biso   1.000  C
  H27      1.0000 0.20720  0.66670  0.30870  Biso   1.000  H
  C44      1.0000 0.17560  0.78060  0.42510  Biso   1.000  C
  H28      1.0000 0.23020  0.83970  0.42110  Biso   1.000  H
  C45      1.0000 0.99740  0.39160  0.26900  Biso   1.000  C
  C46      1.0000 0.85470  0.37730  0.25350  Biso   1.000  C
  H29      1.0000 0.81680  0.43680  0.26840  Biso   1.000  H
  C47      1.0000 0.77000  0.27330  0.21570  Biso   1.000  C
  H30      1.0000 0.67450  0.26280  0.20790  Biso   1.000  H
  C48      1.0000 0.82500  0.18340  0.18880  Biso   1.000  C
  C49      1.0000 0.96780  0.20010  0.20460  Biso   1.000  C
  H31      1.0000 0.00550  0.14050  0.18740  Biso   1.000  H
  C50      1.0000 0.05530  0.30340  0.24530  Biso   1.000  C
  H32      1.0000 0.15150  0.31410  0.25680  Biso   1.000  H
  C51      1.0000 0.72600  0.07320  0.14550  Biso   1.000  C
  C52      1.0000 0.69070  0.88480  0.02500  Biso   1.000  C
  C53      1.0000 0.58450  0.83410  0.04930  Biso   1.000  C
  H33      1.0000 0.55280  0.87440  0.10120  Biso   1.000  H
  C54      1.0000 0.52510  0.72610  0.99840  Biso   1.000  C
  H34      1.0000 0.45150  0.69540  0.01630  Biso   1.000  H
  C55      1.0000 0.66800  0.71010  0.90270  Biso   1.000  C
  H35      1.0000 0.70000  0.66730  0.85210  Biso   1.000  H
  C56      1.0000 0.73150  0.81870  0.94810  Biso   1.000  C
  H36      1.0000 0.80230  0.84810  0.92710  Biso   1.000  H
  C57      1.0000 0.48330  0.49210  0.68690  Biso   1.000  C
  C58      1.0000 0.49060  0.49590  0.58960  Biso   1.000  C
  C59      1.0000 0.38500  0.51760  0.53230  Biso   1.000  C
  H37      1.0000 0.30720  0.52990  0.55400  Biso   1.000  H
  C60      1.0000 0.39290  0.52130  0.44350  Biso   1.000  C
  H38      1.0000 0.32000  0.53540  0.40510  Biso   1.000  H
  C61      1.0000 0.10820  0.51190  0.08040  Biso   1.000  C
  H39      1.0000 0.18020  0.52060  0.13460  Biso   1.000  H
  C62      1.0000 0.97390  0.50870  0.08870  Biso   1.000  C
  H40      1.0000 0.95680  0.51390  0.14850  Biso   1.000  H
  C63      1.0000 0.86460  0.49780  0.01010  Biso   1.000  C
  C64      1.0000 0.72010  0.48980  0.01850  Biso   1.000  C
  N5       1.0000 0.38770  0.31580  0.77190  Biso   1.000  N
  N6       1.0000 0.24990  0.97940  0.59860  Biso   1.000  N
  N7       1.0000 0.76200  0.99440  0.07350  Biso   1.000  N
  N8       1.0000 0.56420  0.66100  0.92510  Biso   1.000  N
  O8       1.0000 0.02910  0.93290  0.60960  Biso   1.000  O
  O9       1.0000 0.09120  0.49140  0.29840  Biso   1.000  O
  O10      1.0000 0.62000  0.05660  0.17010  Biso   1.000  O
  O11      1.0000 0.37640  0.50450  0.71450  Biso   1.000  O
  O12      1.0000 0.58480  0.47560  0.73880  Biso   1.000  O
  O13      1.0000 0.62260  0.46350  0.94120  Biso   1.000  O
  O14      1.0000 0.70450  0.50630  0.10360  Biso   1.000  O
