data_image0
_cell_length_a       14.1561
_cell_length_b       10.5239
_cell_length_c       27.033
_cell_angle_alpha    90
_cell_angle_beta     100.649
_cell_angle_gamma    90

_symmetry_space_group_name_H-M    "P 1"
_symmetry_int_tables_number       1

loop_
  _symmetry_equiv_pos_as_xyz
  'x, y, z'

loop_
  _atom_site_label
  _atom_site_occupancy
  _atom_site_fract_x
  _atom_site_fract_y
  _atom_site_fract_z
  _atom_site_thermal_displace_type
  _atom_site_B_iso_or_equiv
  _atom_site_type_symbol
  Mn1      1.0000 0.25262  0.60763  0.48919  Biso   1.000  Mn
  C1       1.0000 0.34080  0.47530  0.40330  Biso   1.000  C
  C2       1.0000 0.30500  0.41300  0.35210  Biso   1.000  C
  C3       1.0000 0.36400  0.33720  0.32960  Biso   1.000  C
  H1       1.0000 0.42690  0.32180  0.34560  Biso   1.000  H
  C4       1.0000 0.33010  0.28490  0.28370  Biso   1.000  C
  H2       1.0000 0.37030  0.23360  0.26870  Biso   1.000  H
  C5       1.0000 0.18200  0.37670  0.28110  Biso   1.000  C
  H3       1.0000 0.11950  0.39080  0.26410  Biso   1.000  H
  C6       1.0000 0.21100  0.43060  0.32770  Biso   1.000  C
  H4       1.0000 0.16830  0.47780  0.34260  Biso   1.000  H
  C7       1.0000 0.20270  0.25250  0.20890  Biso   1.000  C
  H5       1.0000 0.13920  0.21670  0.20790  Biso   1.000  H
  H6       1.0000 0.24500  0.18490  0.20210  Biso   1.000  H
  C8       1.0000 0.19760  0.35430  0.16900  Biso   1.000  C
  H7       1.0000 0.26200  0.37600  0.16440  Biso   1.000  H
  H8       1.0000 0.16810  0.43020  0.17970  Biso   1.000  H
  C9       1.0000 0.13940  0.30720  0.11980  Biso   1.000  C
  H9       1.0000 0.17360  0.23890  0.10670  Biso   1.000  H
  H10      1.0000 0.07820  0.27430  0.12540  Biso   1.000  H
  C10      1.0000 0.17810  0.42510  0.04750  Biso   1.000  C
  H11      1.0000 0.22530  0.36470  0.04550  Biso   1.000  H
  C11      1.0000 0.16480  0.52600  0.01450  Biso   1.000  C
  H12      1.0000 0.20210  0.53240  0.98970  Biso   1.000  H
  C12      1.0000 0.09570  0.61880  0.01810  Biso   1.000  C
  C13      1.0000 0.04000  0.60010  0.05440  Biso   1.000  C
  H13      1.0000 0.99140  0.65790  0.05690  Biso   1.000  H
  C14      1.0000 0.05390  0.50150  0.08610  Biso   1.000  C
  H14      1.0000 0.01620  0.49270  0.11060  Biso   1.000  H
  C15      1.0000 0.08100  0.73070  0.98350  Biso   1.000  C
  C16      1.0000 0.43160  0.77070  0.51130  Biso   1.000  C
  C17      1.0000 0.49230  0.87130  0.54250  Biso   1.000  C
  C18      1.0000 0.45040  0.97440  0.56130  Biso   1.000  C
  H15      1.0000 0.38380  0.98010  0.55730  Biso   1.000  H
  C19      1.0000 0.50700  0.06760  0.58580  Biso   1.000  C
  H16      1.0000 0.47860  0.13810  0.59770  Biso   1.000  H
  C20      1.0000 0.64590  0.95890  0.57640  Biso   1.000  C
  H17      1.0000 0.71260  0.95340  0.58240  Biso   1.000  H
  C21      1.0000 0.59180  0.86390  0.55060  Biso   1.000  C
  H18      1.0000 0.62170  0.79490  0.53850  Biso   1.000  H
  C22      1.0000 0.66310  0.16470  0.61930  Biso   1.000  C
  H19      1.0000 0.63220  0.24600  0.61040  Biso   1.000  H
  H20      1.0000 0.72550  0.16540  0.60930  Biso   1.000  H
  C23      1.0000 0.67470  0.14320  0.67490  Biso   1.000  C
  H21      1.0000 0.70350  0.06040  0.68320  Biso   1.000  H
  H22      1.0000 0.61200  0.14360  0.68450  Biso   1.000  H
  C24      1.0000 0.73770  0.24540  0.70440  Biso   1.000  C
  H23      1.0000 0.79510  0.25790  0.69010  Biso   1.000  H
  H24      1.0000 0.70290  0.32520  0.70230  Biso   1.000  H
  C25      1.0000 0.69770  0.17390  0.78440  Biso   1.000  C
  H25      1.0000 0.63330  0.17400  0.76880  Biso   1.000  H
  C26      1.0000 0.72250  0.14170  0.83420  Biso   1.000  C
  H26      1.0000 0.67490  0.12470  0.85280  Biso   1.000  H
  C27      1.0000 0.81740  0.13460  0.85670  Biso   1.000  C
  C28      1.0000 0.88550  0.16480  0.82790  Biso   1.000  C
  H27      1.0000 0.95060  0.15920  0.84170  Biso   1.000  H
  C29      1.0000 0.85690  0.20300  0.77870  Biso   1.000  C
  H28      1.0000 0.90260  0.22750  0.76000  Biso   1.000  H
  C30      1.0000 0.84680  0.10120  0.91120  Biso   1.000  C
  N1       1.0000 0.36530  0.48030  0.52930  Biso   1.000  N
  N2       1.0000 0.35060  0.39730  0.55660  Biso   1.000  N
  N3       1.0000 0.33830  0.31500  0.58380  Biso   1.000  N
  N4       1.0000 0.13900  0.45670  0.47660  Biso   1.000  N
  N5       1.0000 0.16320  0.35570  0.46300  Biso   1.000  N
  N6       1.0000 0.18970  0.25900  0.45110  Biso   1.000  N
  N7       1.0000 0.23890  0.30640  0.25960  Biso   1.000  N
  N8       1.0000 0.12270  0.41420  0.08260  Biso   1.000  N
  N9       1.0000 0.60280  0.05980  0.59310  Biso   1.000  N
  N10      1.0000 0.76520  0.20530  0.75810  Biso   1.000  N
  O1       1.0000 0.42230  0.44470  0.42520  Biso   1.000  O
  O2       1.0000 0.28520  0.55540  0.41700  Biso   1.000  O
  O3       1.0000 0.14530  0.74940  0.95640  Biso   1.000  O
  O4       1.0000 0.00860  0.79570  0.98300  Biso   1.000  O
  O5       1.0000 0.47510  0.69860  0.48580  Biso   1.000  O
  O6       1.0000 0.34360  0.77470  0.51020  Biso   1.000  O
  O7       1.0000 0.92490  0.04170  0.92370  Biso   1.000  O
  O8       1.0000 0.79270  0.13970  0.93880  Biso   1.000  O
  Mn2      1.0000 0.74738  0.10763  0.01081  Biso   1.000  Mn
  C31      1.0000 0.65920  0.97530  0.09670  Biso   1.000  C
  C32      1.0000 0.69500  0.91300  0.14790  Biso   1.000  C
  C33      1.0000 0.63600  0.83720  0.17040  Biso   1.000  C
  H29      1.0000 0.57310  0.82180  0.15440  Biso   1.000  H
  C34      1.0000 0.66990  0.78490  0.21630  Biso   1.000  C
  H30      1.0000 0.62970  0.73360  0.23130  Biso   1.000  H
  C35      1.0000 0.81800  0.87670  0.21890  Biso   1.000  C
  H31      1.0000 0.88050  0.89080  0.23590  Biso   1.000  H
  C36      1.0000 0.78900  0.93060  0.17230  Biso   1.000  C
  H32      1.0000 0.83170  0.97780  0.15740  Biso   1.000  H
  C37      1.0000 0.79730  0.75250  0.29110  Biso   1.000  C
  H33      1.0000 0.86080  0.71670  0.29210  Biso   1.000  H
  H34      1.0000 0.75500  0.68490  0.29790  Biso   1.000  H
  C38      1.0000 0.80240  0.85430  0.33100  Biso   1.000  C
  H35      1.0000 0.73800  0.87600  0.33560  Biso   1.000  H
  H36      1.0000 0.83190  0.93020  0.32030  Biso   1.000  H
  C39      1.0000 0.86060  0.80720  0.38020  Biso   1.000  C
  H37      1.0000 0.82640  0.73890  0.39330  Biso   1.000  H
  H38      1.0000 0.92180  0.77430  0.37460  Biso   1.000  H
  C40      1.0000 0.82190  0.92510  0.45250  Biso   1.000  C
  H39      1.0000 0.77470  0.86470  0.45450  Biso   1.000  H
  C41      1.0000 0.83520  0.02600  0.48550  Biso   1.000  C
  H40      1.0000 0.79790  0.03240  0.51030  Biso   1.000  H
  C42      1.0000 0.90430  0.11880  0.48190  Biso   1.000  C
  C43      1.0000 0.96000  0.10010  0.44560  Biso   1.000  C
  H41      1.0000 0.00860  0.15790  0.44310  Biso   1.000  H
  C44      1.0000 0.94610  0.00150  0.41390  Biso   1.000  C
  H42      1.0000 0.98380  0.99270  0.38940  Biso   1.000  H
  C45      1.0000 0.91900  0.23070  0.51650  Biso   1.000  C
  C46      1.0000 0.56840  0.27070  0.98870  Biso   1.000  C
  C47      1.0000 0.50770  0.37130  0.95750  Biso   1.000  C
  C48      1.0000 0.54960  0.47440  0.93870  Biso   1.000  C
  H43      1.0000 0.61620  0.48010  0.94270  Biso   1.000  H
  C49      1.0000 0.49300  0.56760  0.91420  Biso   1.000  C
  H44      1.0000 0.52140  0.63810  0.90230  Biso   1.000  H
  C50      1.0000 0.35410  0.45890  0.92360  Biso   1.000  C
  H45      1.0000 0.28740  0.45340  0.91760  Biso   1.000  H
  C51      1.0000 0.40820  0.36390  0.94940  Biso   1.000  C
  H46      1.0000 0.37830  0.29490  0.96150  Biso   1.000  H
  C52      1.0000 0.33690  0.66470  0.88070  Biso   1.000  C
  H47      1.0000 0.36780  0.74600  0.88960  Biso   1.000  H
  H48      1.0000 0.27450  0.66540  0.89070  Biso   1.000  H
  C53      1.0000 0.32530  0.64320  0.82510  Biso   1.000  C
  H49      1.0000 0.29650  0.56040  0.81680  Biso   1.000  H
  H50      1.0000 0.38800  0.64360  0.81550  Biso   1.000  H
  C54      1.0000 0.26230  0.74540  0.79560  Biso   1.000  C
  H51      1.0000 0.20490  0.75790  0.80990  Biso   1.000  H
  H52      1.0000 0.29710  0.82520  0.79770  Biso   1.000  H
  C55      1.0000 0.30230  0.67390  0.71560  Biso   1.000  C
  H53      1.0000 0.36670  0.67400  0.73120  Biso   1.000  H
  C56      1.0000 0.27750  0.64170  0.66580  Biso   1.000  C
  H54      1.0000 0.32510  0.62470  0.64720  Biso   1.000  H
  C57      1.0000 0.18260  0.63460  0.64330  Biso   1.000  C
  C58      1.0000 0.11450  0.66480  0.67210  Biso   1.000  C
  H55      1.0000 0.04940  0.65920  0.65830  Biso   1.000  H
  C59      1.0000 0.14310  0.70300  0.72130  Biso   1.000  C
  H56      1.0000 0.09740  0.72750  0.74000  Biso   1.000  H
  C60      1.0000 0.15320  0.60120  0.58880  Biso   1.000  C
  N11      1.0000 0.63470  0.98030  0.97070  Biso   1.000  N
  N12      1.0000 0.64940  0.89730  0.94340  Biso   1.000  N
  N13      1.0000 0.66170  0.81500  0.91620  Biso   1.000  N
  N14      1.0000 0.86100  0.95670  0.02340  Biso   1.000  N
  N15      1.0000 0.83680  0.85570  0.03700  Biso   1.000  N
  N16      1.0000 0.81030  0.75900  0.04890  Biso   1.000  N
  N17      1.0000 0.76110  0.80640  0.24040  Biso   1.000  N
  N18      1.0000 0.87730  0.91420  0.41740  Biso   1.000  N
  N19      1.0000 0.39720  0.55980  0.90690  Biso   1.000  N
  N20      1.0000 0.23480  0.70530  0.74190  Biso   1.000  N
  O9       1.0000 0.57770  0.94470  0.07480  Biso   1.000  O
  O10      1.0000 0.71480  0.05540  0.08300  Biso   1.000  O
  O11      1.0000 0.85470  0.24940  0.54360  Biso   1.000  O
  O12      1.0000 0.99140  0.29570  0.51700  Biso   1.000  O
  O13      1.0000 0.52490  0.19860  0.01420  Biso   1.000  O
  O14      1.0000 0.65640  0.27470  0.98980  Biso   1.000  O
  O15      1.0000 0.07510  0.54170  0.57630  Biso   1.000  O
  O16      1.0000 0.20730  0.63970  0.56120  Biso   1.000  O
  Mn3      1.0000 0.74738  0.39237  0.51081  Biso   1.000  Mn
  C61      1.0000 0.65920  0.52470  0.59670  Biso   1.000  C
  C62      1.0000 0.69500  0.58700  0.64790  Biso   1.000  C
  C63      1.0000 0.63600  0.66280  0.67040  Biso   1.000  C
  H57      1.0000 0.57310  0.67820  0.65440  Biso   1.000  H
  C64      1.0000 0.66990  0.71510  0.71630  Biso   1.000  C
  H58      1.0000 0.62970  0.76640  0.73130  Biso   1.000  H
  C65      1.0000 0.81800  0.62330  0.71890  Biso   1.000  C
  H59      1.0000 0.88050  0.60920  0.73590  Biso   1.000  H
  C66      1.0000 0.78900  0.56940  0.67230  Biso   1.000  C
  H60      1.0000 0.83170  0.52220  0.65740  Biso   1.000  H
  C67      1.0000 0.79730  0.74750  0.79110  Biso   1.000  C
  H61      1.0000 0.86080  0.78330  0.79210  Biso   1.000  H
  H62      1.0000 0.75500  0.81510  0.79790  Biso   1.000  H
  C68      1.0000 0.80240  0.64570  0.83100  Biso   1.000  C
  H63      1.0000 0.73800  0.62400  0.83560  Biso   1.000  H
  H64      1.0000 0.83190  0.56980  0.82030  Biso   1.000  H
  C69      1.0000 0.86060  0.69280  0.88020  Biso   1.000  C
  H65      1.0000 0.82640  0.76110  0.89330  Biso   1.000  H
  H66      1.0000 0.92180  0.72570  0.87460  Biso   1.000  H
  C70      1.0000 0.82190  0.57490  0.95250  Biso   1.000  C
  H67      1.0000 0.77470  0.63530  0.95450  Biso   1.000  H
  C71      1.0000 0.83520  0.47400  0.98550  Biso   1.000  C
  H68      1.0000 0.79790  0.46760  0.01030  Biso   1.000  H
  C72      1.0000 0.90430  0.38120  0.98190  Biso   1.000  C
  C73      1.0000 0.96000  0.39990  0.94560  Biso   1.000  C
  H69      1.0000 0.00860  0.34210  0.94310  Biso   1.000  H
  C74      1.0000 0.94610  0.49850  0.91390  Biso   1.000  C
  H70      1.0000 0.98380  0.50730  0.88940  Biso   1.000  H
  C75      1.0000 0.91900  0.26930  0.01650  Biso   1.000  C
  C76      1.0000 0.56840  0.22930  0.48870  Biso   1.000  C
  C77      1.0000 0.50770  0.12870  0.45750  Biso   1.000  C
  C78      1.0000 0.54960  0.02560  0.43870  Biso   1.000  C
  H71      1.0000 0.61620  0.01990  0.44270  Biso   1.000  H
  C79      1.0000 0.49300  0.93240  0.41420  Biso   1.000  C
  H72      1.0000 0.52140  0.86190  0.40230  Biso   1.000  H
  C80      1.0000 0.35410  0.04110  0.42360  Biso   1.000  C
  H73      1.0000 0.28740  0.04660  0.41760  Biso   1.000  H
  C81      1.0000 0.40820  0.13610  0.44940  Biso   1.000  C
  H74      1.0000 0.37830  0.20510  0.46150  Biso   1.000  H
  C82      1.0000 0.33690  0.83530  0.38070  Biso   1.000  C
  H75      1.0000 0.36780  0.75400  0.38960  Biso   1.000  H
  H76      1.0000 0.27450  0.83460  0.39070  Biso   1.000  H
  C83      1.0000 0.32530  0.85680  0.32510  Biso   1.000  C
  H77      1.0000 0.29650  0.93960  0.31680  Biso   1.000  H
  H78      1.0000 0.38800  0.85640  0.31550  Biso   1.000  H
  C84      1.0000 0.26230  0.75460  0.29560  Biso   1.000  C
  H79      1.0000 0.20490  0.74210  0.30990  Biso   1.000  H
  H80      1.0000 0.29710  0.67480  0.29770  Biso   1.000  H
  C85      1.0000 0.30230  0.82610  0.21560  Biso   1.000  C
  H81      1.0000 0.36670  0.82600  0.23120  Biso   1.000  H
  C86      1.0000 0.27750  0.85830  0.16580  Biso   1.000  C
  H82      1.0000 0.32510  0.87530  0.14720  Biso   1.000  H
  C87      1.0000 0.18260  0.86540  0.14330  Biso   1.000  C
  C88      1.0000 0.11450  0.83520  0.17210  Biso   1.000  C
  H83      1.0000 0.04940  0.84080  0.15830  Biso   1.000  H
  C89      1.0000 0.14310  0.79700  0.22130  Biso   1.000  C
  H84      1.0000 0.09740  0.77250  0.24000  Biso   1.000  H
  C90      1.0000 0.15320  0.89880  0.08880  Biso   1.000  C
  N21      1.0000 0.63470  0.51970  0.47070  Biso   1.000  N
  N22      1.0000 0.64940  0.60270  0.44340  Biso   1.000  N
  N23      1.0000 0.66170  0.68500  0.41620  Biso   1.000  N
  N24      1.0000 0.86100  0.54330  0.52340  Biso   1.000  N
  N25      1.0000 0.83680  0.64430  0.53700  Biso   1.000  N
  N26      1.0000 0.81030  0.74100  0.54890  Biso   1.000  N
  N27      1.0000 0.76110  0.69360  0.74040  Biso   1.000  N
  N28      1.0000 0.87730  0.58580  0.91740  Biso   1.000  N
  N29      1.0000 0.39720  0.94020  0.40690  Biso   1.000  N
  N30      1.0000 0.23480  0.79470  0.24190  Biso   1.000  N
  O17      1.0000 0.57770  0.55530  0.57480  Biso   1.000  O
  O18      1.0000 0.71480  0.44460  0.58300  Biso   1.000  O
  O19      1.0000 0.85470  0.25060  0.04360  Biso   1.000  O
  O20      1.0000 0.99140  0.20430  0.01700  Biso   1.000  O
  O21      1.0000 0.52490  0.30140  0.51420  Biso   1.000  O
  O22      1.0000 0.65640  0.22530  0.48980  Biso   1.000  O
  O23      1.0000 0.07510  0.95830  0.07630  Biso   1.000  O
  O24      1.0000 0.20730  0.86030  0.06120  Biso   1.000  O
  Mn4      1.0000 0.25262  0.89237  0.98919  Biso   1.000  Mn
  C91      1.0000 0.34080  0.02470  0.90330  Biso   1.000  C
  C92      1.0000 0.30500  0.08700  0.85210  Biso   1.000  C
  C93      1.0000 0.36400  0.16280  0.82960  Biso   1.000  C
  H85      1.0000 0.42690  0.17820  0.84560  Biso   1.000  H
  C94      1.0000 0.33010  0.21510  0.78370  Biso   1.000  C
  H86      1.0000 0.37030  0.26640  0.76870  Biso   1.000  H
  C95      1.0000 0.18200  0.12330  0.78110  Biso   1.000  C
  H87      1.0000 0.11950  0.10920  0.76410  Biso   1.000  H
  C96      1.0000 0.21100  0.06940  0.82770  Biso   1.000  C
  H88      1.0000 0.16830  0.02220  0.84260  Biso   1.000  H
  C97      1.0000 0.20270  0.24750  0.70890  Biso   1.000  C
  H89      1.0000 0.13920  0.28330  0.70790  Biso   1.000  H
  H90      1.0000 0.24500  0.31510  0.70210  Biso   1.000  H
  C98      1.0000 0.19760  0.14570  0.66900  Biso   1.000  C
  H91      1.0000 0.26200  0.12400  0.66440  Biso   1.000  H
  H92      1.0000 0.16810  0.06980  0.67970  Biso   1.000  H
  C99      1.0000 0.13940  0.19280  0.61980  Biso   1.000  C
  H93      1.0000 0.17360  0.26110  0.60670  Biso   1.000  H
  H94      1.0000 0.07820  0.22570  0.62540  Biso   1.000  H
  C100     1.0000 0.17810  0.07490  0.54750  Biso   1.000  C
  H95      1.0000 0.22530  0.13530  0.54550  Biso   1.000  H
  C101     1.0000 0.16480  0.97400  0.51450  Biso   1.000  C
  H96      1.0000 0.20210  0.96760  0.48970  Biso   1.000  H
  C102     1.0000 0.09570  0.88120  0.51810  Biso   1.000  C
  C103     1.0000 0.04000  0.89990  0.55440  Biso   1.000  C
  H97      1.0000 0.99140  0.84210  0.55690  Biso   1.000  H
  C104     1.0000 0.05390  0.99850  0.58610  Biso   1.000  C
  H98      1.0000 0.01620  0.00730  0.61060  Biso   1.000  H
  C105     1.0000 0.08100  0.76930  0.48350  Biso   1.000  C
  C106     1.0000 0.43160  0.72930  0.01130  Biso   1.000  C
  C107     1.0000 0.49230  0.62870  0.04250  Biso   1.000  C
  C108     1.0000 0.45040  0.52560  0.06130  Biso   1.000  C
  H99      1.0000 0.38380  0.51990  0.05730  Biso   1.000  H
  C109     1.0000 0.50700  0.43240  0.08580  Biso   1.000  C
  H100     1.0000 0.47860  0.36190  0.09770  Biso   1.000  H
  C110     1.0000 0.64590  0.54110  0.07640  Biso   1.000  C
  H101     1.0000 0.71260  0.54660  0.08240  Biso   1.000  H
  C111     1.0000 0.59180  0.63610  0.05060  Biso   1.000  C
  H102     1.0000 0.62170  0.70510  0.03850  Biso   1.000  H
  C112     1.0000 0.66310  0.33530  0.11930  Biso   1.000  C
  H103     1.0000 0.63220  0.25400  0.11040  Biso   1.000  H
  H104     1.0000 0.72550  0.33460  0.10930  Biso   1.000  H
  C113     1.0000 0.67470  0.35680  0.17490  Biso   1.000  C
  H105     1.0000 0.70350  0.43960  0.18320  Biso   1.000  H
  H106     1.0000 0.61200  0.35640  0.18450  Biso   1.000  H
  C114     1.0000 0.73770  0.25460  0.20440  Biso   1.000  C
  H107     1.0000 0.79510  0.24210  0.19010  Biso   1.000  H
  H108     1.0000 0.70290  0.17480  0.20230  Biso   1.000  H
  C115     1.0000 0.69770  0.32610  0.28440  Biso   1.000  C
  H109     1.0000 0.63330  0.32600  0.26880  Biso   1.000  H
  C116     1.0000 0.72250  0.35830  0.33420  Biso   1.000  C
  H110     1.0000 0.67490  0.37530  0.35280  Biso   1.000  H
  C117     1.0000 0.81740  0.36540  0.35670  Biso   1.000  C
  C118     1.0000 0.88550  0.33520  0.32790  Biso   1.000  C
  H111     1.0000 0.95060  0.34080  0.34170  Biso   1.000  H
  C119     1.0000 0.85690  0.29700  0.27870  Biso   1.000  C
  H112     1.0000 0.90260  0.27250  0.26000  Biso   1.000  H
  C120     1.0000 0.84680  0.39880  0.41120  Biso   1.000  C
  N31      1.0000 0.36530  0.01970  0.02930  Biso   1.000  N
  N32      1.0000 0.35060  0.10270  0.05660  Biso   1.000  N
  N33      1.0000 0.33830  0.18500  0.08380  Biso   1.000  N
  N34      1.0000 0.13900  0.04330  0.97660  Biso   1.000  N
  N35      1.0000 0.16320  0.14430  0.96300  Biso   1.000  N
  N36      1.0000 0.18970  0.24100  0.95110  Biso   1.000  N
  N37      1.0000 0.23890  0.19360  0.75960  Biso   1.000  N
  N38      1.0000 0.12270  0.08580  0.58260  Biso   1.000  N
  N39      1.0000 0.60280  0.44020  0.09310  Biso   1.000  N
  N40      1.0000 0.76520  0.29470  0.25810  Biso   1.000  N
  O25      1.0000 0.42230  0.05530  0.92520  Biso   1.000  O
  O26      1.0000 0.28520  0.94460  0.91700  Biso   1.000  O
  O27      1.0000 0.14530  0.75060  0.45640  Biso   1.000  O
  O28      1.0000 0.00860  0.70430  0.48300  Biso   1.000  O
  O29      1.0000 0.47510  0.80140  0.98580  Biso   1.000  O
  O30      1.0000 0.34360  0.72530  0.01020  Biso   1.000  O
  O31      1.0000 0.92490  0.45830  0.42370  Biso   1.000  O
  O32      1.0000 0.79270  0.36030  0.43880  Biso   1.000  O
  Mn5      1.0000 0.50000  0.50000  0.50000  Biso   1.000  Mn
  Mn6      1.0000 0.50000  0.00000  0.00000  Biso   1.000  Mn
  Mn7      1.0000 0.00000  0.00000  0.00000  Biso   1.000  Mn
  Mn8      1.0000 0.00000  0.50000  0.50000  Biso   1.000  Mn
