data_image0
_cell_length_a       9.819
_cell_length_b       23.3265
_cell_length_c       8.9342
_cell_angle_alpha    90
_cell_angle_beta     90
_cell_angle_gamma    90

_symmetry_space_group_name_H-M    "P 1"
_symmetry_int_tables_number       1

loop_
  _symmetry_equiv_pos_as_xyz
  'x, y, z'

loop_
  _atom_site_label
  _atom_site_occupancy
  _atom_site_fract_x
  _atom_site_fract_y
  _atom_site_fract_z
  _atom_site_thermal_displace_type
  _atom_site_B_iso_or_equiv
  _atom_site_type_symbol
  Zn1      1.0000 0.55949  0.04696  0.71889  Biso   1.000  Zn
  P1       1.0000 0.57510  0.18428  0.76350  Biso   1.000  P
  H1       1.0000 0.49480  0.20260  0.71930  Biso   1.000  H
  P2       1.0000 0.28745  0.00285  0.56270  Biso   1.000  P
  H2       1.0000 0.29150  0.03860  0.50520  Biso   1.000  H
  O1       1.0000 0.53450  0.12290  0.79650  Biso   1.000  O
  O2       1.0000 0.38720  0.00870  0.69100  Biso   1.000  O
  O3       1.0000 0.32590  0.95490  0.45730  Biso   1.000  O
  O4       1.0000 0.14230  0.99640  0.61790  Biso   1.000  O
  O5       1.0000 0.60380  0.21580  0.90690  Biso   1.000  O
  O6       1.0000 0.68650  0.18770  0.64660  Biso   1.000  O
  Zn2      1.0000 0.94051  0.45304  0.71889  Biso   1.000  Zn
  P3       1.0000 0.92490  0.31572  0.76350  Biso   1.000  P
  H3       1.0000 0.00520  0.29740  0.71930  Biso   1.000  H
  P4       1.0000 0.21255  0.49715  0.56270  Biso   1.000  P
  H4       1.0000 0.20850  0.46140  0.50520  Biso   1.000  H
  O7       1.0000 0.96550  0.37710  0.79650  Biso   1.000  O
  O8       1.0000 0.11280  0.49130  0.69100  Biso   1.000  O
  O9       1.0000 0.17410  0.54510  0.45730  Biso   1.000  O
  O10      1.0000 0.35770  0.50360  0.61790  Biso   1.000  O
  O11      1.0000 0.89620  0.28420  0.90690  Biso   1.000  O
  O12      1.0000 0.81350  0.31230  0.64660  Biso   1.000  O
  Zn3      1.0000 0.44051  0.54696  0.78111  Biso   1.000  Zn
  P5       1.0000 0.42490  0.68428  0.73650  Biso   1.000  P
  H5       1.0000 0.50520  0.70260  0.78070  Biso   1.000  H
  P6       1.0000 0.71255  0.50285  0.93730  Biso   1.000  P
  H6       1.0000 0.70850  0.53860  0.99480  Biso   1.000  H
  O13      1.0000 0.46550  0.62290  0.70350  Biso   1.000  O
  O14      1.0000 0.61280  0.50870  0.80900  Biso   1.000  O
  O15      1.0000 0.67410  0.45490  0.04270  Biso   1.000  O
  O16      1.0000 0.85770  0.49640  0.88210  Biso   1.000  O
  O17      1.0000 0.39620  0.71580  0.59310  Biso   1.000  O
  O18      1.0000 0.31350  0.68770  0.85340  Biso   1.000  O
  Zn4      1.0000 0.05949  0.95304  0.78111  Biso   1.000  Zn
  P7       1.0000 0.07510  0.81572  0.73650  Biso   1.000  P
  H7       1.0000 0.99480  0.79740  0.78070  Biso   1.000  H
  P8       1.0000 0.78745  0.99715  0.93730  Biso   1.000  P
  H8       1.0000 0.79150  0.96140  0.99480  Biso   1.000  H
  O19      1.0000 0.03450  0.87710  0.70350  Biso   1.000  O
  O20      1.0000 0.88720  0.99130  0.80900  Biso   1.000  O
  O21      1.0000 0.82590  0.04510  0.04270  Biso   1.000  O
  O22      1.0000 0.64230  0.00360  0.88210  Biso   1.000  O
  O23      1.0000 0.10380  0.78420  0.59310  Biso   1.000  O
  O24      1.0000 0.18650  0.81230  0.85340  Biso   1.000  O
  Zn5      1.0000 0.44051  0.95304  0.28111  Biso   1.000  Zn
  P9       1.0000 0.42490  0.81572  0.23650  Biso   1.000  P
  H9       1.0000 0.50520  0.79740  0.28070  Biso   1.000  H
  P10      1.0000 0.71255  0.99715  0.43730  Biso   1.000  P
  H10      1.0000 0.70850  0.96140  0.49480  Biso   1.000  H
  O25      1.0000 0.46550  0.87710  0.20350  Biso   1.000  O
  O26      1.0000 0.61280  0.99130  0.30900  Biso   1.000  O
  O27      1.0000 0.67410  0.04510  0.54270  Biso   1.000  O
  O28      1.0000 0.85770  0.00360  0.38210  Biso   1.000  O
  O29      1.0000 0.39620  0.78420  0.09310  Biso   1.000  O
  O30      1.0000 0.31350  0.81230  0.35340  Biso   1.000  O
  Zn6      1.0000 0.05949  0.54696  0.28111  Biso   1.000  Zn
  P11      1.0000 0.07510  0.68428  0.23650  Biso   1.000  P
  H11      1.0000 0.99480  0.70260  0.28070  Biso   1.000  H
  P12      1.0000 0.78745  0.50285  0.43730  Biso   1.000  P
  H12      1.0000 0.79150  0.53860  0.49480  Biso   1.000  H
  O31      1.0000 0.03450  0.62290  0.20350  Biso   1.000  O
  O32      1.0000 0.88720  0.50870  0.30900  Biso   1.000  O
  O33      1.0000 0.82590  0.45490  0.54270  Biso   1.000  O
  O34      1.0000 0.64230  0.49640  0.38210  Biso   1.000  O
  O35      1.0000 0.10380  0.71580  0.09310  Biso   1.000  O
  O36      1.0000 0.18650  0.68770  0.35340  Biso   1.000  O
  Zn7      1.0000 0.55949  0.45304  0.21889  Biso   1.000  Zn
  P13      1.0000 0.57510  0.31572  0.26350  Biso   1.000  P
  H13      1.0000 0.49480  0.29740  0.21930  Biso   1.000  H
  P14      1.0000 0.28745  0.49715  0.06270  Biso   1.000  P
  H14      1.0000 0.29150  0.46140  0.00520  Biso   1.000  H
  O37      1.0000 0.53450  0.37710  0.29650  Biso   1.000  O
  O38      1.0000 0.38720  0.49130  0.19100  Biso   1.000  O
  O39      1.0000 0.32590  0.54510  0.95730  Biso   1.000  O
  O40      1.0000 0.14230  0.50360  0.11790  Biso   1.000  O
  O41      1.0000 0.60380  0.28420  0.40690  Biso   1.000  O
  O42      1.0000 0.68650  0.31230  0.14660  Biso   1.000  O
  Zn8      1.0000 0.94051  0.04696  0.21889  Biso   1.000  Zn
  P15      1.0000 0.92490  0.18428  0.26350  Biso   1.000  P
  H15      1.0000 0.00520  0.20260  0.21930  Biso   1.000  H
  P16      1.0000 0.21255  0.00285  0.06270  Biso   1.000  P
  H16      1.0000 0.20850  0.03860  0.00520  Biso   1.000  H
  O43      1.0000 0.96550  0.12290  0.29650  Biso   1.000  O
  O44      1.0000 0.11280  0.00870  0.19100  Biso   1.000  O
  O45      1.0000 0.17410  0.95490  0.95730  Biso   1.000  O
  O46      1.0000 0.35770  0.99640  0.11790  Biso   1.000  O
  O47      1.0000 0.89620  0.21580  0.40690  Biso   1.000  O
  O48      1.0000 0.81350  0.18770  0.14660  Biso   1.000  O
  Zn9      1.0000 0.75000  0.25000  0.01825  Biso   1.000  Zn
  Zn10     1.0000 0.25000  0.75000  0.48175  Biso   1.000  Zn
  Zn11     1.0000 0.25000  0.75000  0.98175  Biso   1.000  Zn
  Zn12     1.0000 0.75000  0.25000  0.51825  Biso   1.000  Zn
