data_image0
_cell_length_a       9.5467
_cell_length_b       26.405
_cell_length_c       7.9946
_cell_angle_alpha    90
_cell_angle_beta     99.472
_cell_angle_gamma    90

_symmetry_space_group_name_H-M    "P 1"
_symmetry_int_tables_number       1

loop_
  _symmetry_equiv_pos_as_xyz
  'x, y, z'

loop_
  _atom_site_label
  _atom_site_occupancy
  _atom_site_fract_x
  _atom_site_fract_y
  _atom_site_fract_z
  _atom_site_thermal_displace_type
  _atom_site_B_iso_or_equiv
  _atom_site_type_symbol
  Zn1      1.0000 0.60496  0.56847  0.49235  Biso   1.000  Zn
  Zn2      1.0000 0.36762  0.76380  0.25171  Biso   1.000  Zn
  Zn3      1.0000 0.17504  0.55587  0.98787  Biso   1.000  Zn
  P1       1.0000 0.42150  0.52027  0.75679  Biso   1.000  P
  H1       1.0000 0.54300  0.52770  0.87300  Biso   1.000  H
  P2       1.0000 0.54598  0.68781  0.48545  Biso   1.000  P
  H2       1.0000 0.65400  0.69600  0.57300  Biso   1.000  H
  P3       1.0000 0.20489  0.67683  0.02240  Biso   1.000  P
  H3       1.0000 0.07400  0.68500  0.94200  Biso   1.000  H
  P4       1.0000 0.87725  0.52931  0.74344  Biso   1.000  P
  H4       1.0000 0.96700  0.50900  0.65600  Biso   1.000  H
  O1       1.0000 0.43960  0.54841  0.59500  Biso   1.000  O
  O2       1.0000 0.38540  0.46561  0.72200  Biso   1.000  O
  O3       1.0000 0.55210  0.63643  0.40360  Biso   1.000  O
  O4       1.0000 0.54070  0.73046  0.35940  Biso   1.000  O
  O5       1.0000 0.42240  0.69005  0.58400  Biso   1.000  O
  O6       1.0000 0.22510  0.71489  0.16550  Biso   1.000  O
  O7       1.0000 0.30230  0.68519  0.89430  Biso   1.000  O
  O8       1.0000 0.21930  0.62310  0.08920  Biso   1.000  O
  O9       1.0000 0.32330  0.54721  0.85200  Biso   1.000  O
  O10      1.0000 0.98580  0.55594  0.87060  Biso   1.000  O
  O11      1.0000 0.77660  0.56769  0.65010  Biso   1.000  O
  O12      1.0000 0.80120  0.48684  0.81470  Biso   1.000  O
  Zn4      1.0000 0.39504  0.06847  0.00765  Biso   1.000  Zn
  Zn5      1.0000 0.63238  0.26380  0.24829  Biso   1.000  Zn
  Zn6      1.0000 0.82496  0.05587  0.51213  Biso   1.000  Zn
  P5       1.0000 0.57850  0.02027  0.74321  Biso   1.000  P
  H5       1.0000 0.45700  0.02770  0.62700  Biso   1.000  H
  P6       1.0000 0.45402  0.18781  0.01455  Biso   1.000  P
  H6       1.0000 0.34600  0.19600  0.92700  Biso   1.000  H
  P7       1.0000 0.79511  0.17683  0.47760  Biso   1.000  P
  H7       1.0000 0.92600  0.18500  0.55800  Biso   1.000  H
  P8       1.0000 0.12275  0.02931  0.75656  Biso   1.000  P
  H8       1.0000 0.03300  0.00900  0.84400  Biso   1.000  H
  O13      1.0000 0.56040  0.04841  0.90500  Biso   1.000  O
  O14      1.0000 0.61460  0.96561  0.77800  Biso   1.000  O
  O15      1.0000 0.44790  0.13643  0.09640  Biso   1.000  O
  O16      1.0000 0.45930  0.23046  0.14060  Biso   1.000  O
  O17      1.0000 0.57760  0.19005  0.91600  Biso   1.000  O
  O18      1.0000 0.77490  0.21489  0.33450  Biso   1.000  O
  O19      1.0000 0.69770  0.18519  0.60570  Biso   1.000  O
  O20      1.0000 0.78070  0.12310  0.41080  Biso   1.000  O
  O21      1.0000 0.67670  0.04721  0.64800  Biso   1.000  O
  O22      1.0000 0.01420  0.05594  0.62940  Biso   1.000  O
  O23      1.0000 0.22340  0.06769  0.84990  Biso   1.000  O
  O24      1.0000 0.19880  0.98684  0.68530  Biso   1.000  O
  Zn7      1.0000 0.39504  0.43153  0.50765  Biso   1.000  Zn
  Zn8      1.0000 0.63238  0.23620  0.74829  Biso   1.000  Zn
  Zn9      1.0000 0.82496  0.44413  0.01213  Biso   1.000  Zn
  P9       1.0000 0.57850  0.47973  0.24321  Biso   1.000  P
  H9       1.0000 0.45700  0.47230  0.12700  Biso   1.000  H
  P10      1.0000 0.45402  0.31219  0.51455  Biso   1.000  P
  H10      1.0000 0.34600  0.30400  0.42700  Biso   1.000  H
  P11      1.0000 0.79511  0.32317  0.97760  Biso   1.000  P
  H11      1.0000 0.92600  0.31500  0.05800  Biso   1.000  H
  P12      1.0000 0.12275  0.47069  0.25656  Biso   1.000  P
  H12      1.0000 0.03300  0.49100  0.34400  Biso   1.000  H
  O25      1.0000 0.56040  0.45159  0.40500  Biso   1.000  O
  O26      1.0000 0.61460  0.53439  0.27800  Biso   1.000  O
  O27      1.0000 0.44790  0.36357  0.59640  Biso   1.000  O
  O28      1.0000 0.45930  0.26954  0.64060  Biso   1.000  O
  O29      1.0000 0.57760  0.30995  0.41600  Biso   1.000  O
  O30      1.0000 0.77490  0.28511  0.83450  Biso   1.000  O
  O31      1.0000 0.69770  0.31481  0.10570  Biso   1.000  O
  O32      1.0000 0.78070  0.37690  0.91080  Biso   1.000  O
  O33      1.0000 0.67670  0.45279  0.14800  Biso   1.000  O
  O34      1.0000 0.01420  0.44406  0.12940  Biso   1.000  O
  O35      1.0000 0.22340  0.43231  0.34990  Biso   1.000  O
  O36      1.0000 0.19880  0.51316  0.18530  Biso   1.000  O
  Zn10     1.0000 0.60496  0.93153  0.99235  Biso   1.000  Zn
  Zn11     1.0000 0.36762  0.73620  0.75171  Biso   1.000  Zn
  Zn12     1.0000 0.17504  0.94413  0.48787  Biso   1.000  Zn
  P13      1.0000 0.42150  0.97973  0.25679  Biso   1.000  P
  H13      1.0000 0.54300  0.97230  0.37300  Biso   1.000  H
  P14      1.0000 0.54598  0.81219  0.98545  Biso   1.000  P
  H14      1.0000 0.65400  0.80400  0.07300  Biso   1.000  H
  P15      1.0000 0.20489  0.82317  0.52240  Biso   1.000  P
  H15      1.0000 0.07400  0.81500  0.44200  Biso   1.000  H
  P16      1.0000 0.87725  0.97069  0.24344  Biso   1.000  P
  H16      1.0000 0.96700  0.99100  0.15600  Biso   1.000  H
  O37      1.0000 0.43960  0.95159  0.09500  Biso   1.000  O
  O38      1.0000 0.38540  0.03439  0.22200  Biso   1.000  O
  O39      1.0000 0.55210  0.86357  0.90360  Biso   1.000  O
  O40      1.0000 0.54070  0.76954  0.85940  Biso   1.000  O
  O41      1.0000 0.42240  0.80995  0.08400  Biso   1.000  O
  O42      1.0000 0.22510  0.78511  0.66550  Biso   1.000  O
  O43      1.0000 0.30230  0.81481  0.39430  Biso   1.000  O
  O44      1.0000 0.21930  0.87690  0.58920  Biso   1.000  O
  O45      1.0000 0.32330  0.95279  0.35200  Biso   1.000  O
  O46      1.0000 0.98580  0.94406  0.37060  Biso   1.000  O
  O47      1.0000 0.77660  0.93231  0.15010  Biso   1.000  O
  O48      1.0000 0.80120  0.01316  0.31470  Biso   1.000  O
