data_image0
_cell_length_a       12.056
_cell_length_b       15.987
_cell_length_c       15.383
_cell_angle_alpha    90
_cell_angle_beta     90
_cell_angle_gamma    90

_symmetry_space_group_name_H-M    P 1
_symmetry_int_tables_number       1

loop_
  _symmetry_equiv_pos_as_xyz
  'x, y, z'

loop_
  _atom_site_label
  _atom_site_occupancy
  _atom_site_fract_x
  _atom_site_fract_y
  _atom_site_fract_z
  _atom_site_thermal_displace_type
  _atom_site_B_iso_or_equiv
  _atom_site_type_symbol
  Zn1      1.0000 0.02506  0.94767  0.81324  Biso   1.000  Zn
  Zn2      1.0000 0.97494  0.55233  0.81324  Biso   1.000  Zn
  Zn3      1.0000 0.52506  0.55233  0.68676  Biso   1.000  Zn
  Zn4      1.0000 0.47494  0.94767  0.68676  Biso   1.000  Zn
  Zn5      1.0000 0.97494  0.05233  0.18676  Biso   1.000  Zn
  Zn6      1.0000 0.02506  0.44767  0.18676  Biso   1.000  Zn
  Zn7      1.0000 0.47494  0.44767  0.31324  Biso   1.000  Zn
  Zn8      1.0000 0.52506  0.05233  0.31324  Biso   1.000  Zn
  Zn9      1.0000 0.25000  0.84106  0.75000  Biso   1.000  Zn
  Zn10     1.0000 0.75000  0.65894  0.75000  Biso   1.000  Zn
  Zn11     1.0000 0.75000  0.15894  0.25000  Biso   1.000  Zn
  Zn12     1.0000 0.25000  0.34106  0.25000  Biso   1.000  Zn
  Zn13     1.0000 0.00000  0.25000  0.18636  Biso   1.000  Zn
  Zn14     1.0000 0.50000  0.25000  0.31364  Biso   1.000  Zn
  Zn15     1.0000 0.00000  0.75000  0.81364  Biso   1.000  Zn
  Zn16     1.0000 0.50000  0.75000  0.68636  Biso   1.000  Zn
  H1       1.0000 0.96700  0.08750  0.57430  Biso   1.000  H
  H2       1.0000 0.97230  0.15600  0.44480  Biso   1.000  H
  H3       1.0000 0.03300  0.41250  0.57430  Biso   1.000  H
  H4       1.0000 0.02770  0.34400  0.44480  Biso   1.000  H
  H5       1.0000 0.46700  0.41250  0.92570  Biso   1.000  H
  H6       1.0000 0.47230  0.34400  0.05520  Biso   1.000  H
  H7       1.0000 0.53300  0.08750  0.92570  Biso   1.000  H
  H8       1.0000 0.52770  0.15600  0.05520  Biso   1.000  H
  H9       1.0000 0.03300  0.91250  0.42570  Biso   1.000  H
  H10      1.0000 0.02770  0.84400  0.55520  Biso   1.000  H
  H11      1.0000 0.96700  0.58750  0.42570  Biso   1.000  H
  H12      1.0000 0.97230  0.65600  0.55520  Biso   1.000  H
  H13      1.0000 0.53300  0.58750  0.07430  Biso   1.000  H
  H14      1.0000 0.52770  0.65600  0.94480  Biso   1.000  H
  H15      1.0000 0.46700  0.91250  0.07430  Biso   1.000  H
  H16      1.0000 0.47230  0.84400  0.94480  Biso   1.000  H
  C1       1.0000 0.03280  0.08890  0.54290  Biso   1.000  C
  C2       1.0000 0.12640  0.04680  0.57500  Biso   1.000  C
  C3       1.0000 0.11710  0.99370  0.65460  Biso   1.000  C
  C4       1.0000 0.22690  0.04880  0.52670  Biso   1.000  C
  C5       1.0000 0.23080  0.10080  0.45020  Biso   1.000  C
  C6       1.0000 0.34240  0.11120  0.40620  Biso   1.000  C
  C7       1.0000 0.13660  0.14010  0.42010  Biso   1.000  C
  C8       1.0000 0.13390  0.19370  0.34050  Biso   1.000  C
  C9       1.0000 0.03670  0.13180  0.46660  Biso   1.000  C
  C10      1.0000 0.32550  0.99760  0.55240  Biso   1.000  C
  C11      1.0000 0.96720  0.41110  0.54290  Biso   1.000  C
  C12      1.0000 0.87360  0.45320  0.57500  Biso   1.000  C
  C13      1.0000 0.88290  0.50630  0.65460  Biso   1.000  C
  C14      1.0000 0.77310  0.45120  0.52670  Biso   1.000  C
  C15      1.0000 0.76920  0.39920  0.45020  Biso   1.000  C
  C16      1.0000 0.65760  0.38880  0.40620  Biso   1.000  C
  C17      1.0000 0.86340  0.35990  0.42010  Biso   1.000  C
  C18      1.0000 0.86610  0.30630  0.34050  Biso   1.000  C
  C19      1.0000 0.96330  0.36820  0.46660  Biso   1.000  C
  C20      1.0000 0.67450  0.50240  0.55240  Biso   1.000  C
  C21      1.0000 0.53280  0.41110  0.95710  Biso   1.000  C
  C22      1.0000 0.62640  0.45320  0.92500  Biso   1.000  C
  C23      1.0000 0.61710  0.50630  0.84540  Biso   1.000  C
  C24      1.0000 0.72690  0.45120  0.97330  Biso   1.000  C
  C25      1.0000 0.73080  0.39920  0.04980  Biso   1.000  C
  C26      1.0000 0.84240  0.38880  0.09380  Biso   1.000  C
  C27      1.0000 0.63660  0.35990  0.07990  Biso   1.000  C
  C28      1.0000 0.63390  0.30630  0.15950  Biso   1.000  C
  C29      1.0000 0.53670  0.36820  0.03340  Biso   1.000  C
  C30      1.0000 0.82550  0.50240  0.94760  Biso   1.000  C
  C31      1.0000 0.46720  0.08890  0.95710  Biso   1.000  C
  C32      1.0000 0.37360  0.04680  0.92500  Biso   1.000  C
  C33      1.0000 0.38290  0.99370  0.84540  Biso   1.000  C
  C34      1.0000 0.27310  0.04880  0.97330  Biso   1.000  C
  C35      1.0000 0.26920  0.10080  0.04980  Biso   1.000  C
  C36      1.0000 0.15760  0.11120  0.09380  Biso   1.000  C
  C37      1.0000 0.36340  0.14010  0.07990  Biso   1.000  C
  C38      1.0000 0.36610  0.19370  0.15950  Biso   1.000  C
  C39      1.0000 0.46330  0.13180  0.03340  Biso   1.000  C
  C40      1.0000 0.17450  0.99760  0.94760  Biso   1.000  C
  C41      1.0000 0.96720  0.91110  0.45710  Biso   1.000  C
  C42      1.0000 0.87360  0.95320  0.42500  Biso   1.000  C
  C43      1.0000 0.88290  0.00630  0.34540  Biso   1.000  C
  C44      1.0000 0.77310  0.95120  0.47330  Biso   1.000  C
  C45      1.0000 0.76920  0.89920  0.54980  Biso   1.000  C
  C46      1.0000 0.65760  0.88880  0.59380  Biso   1.000  C
  C47      1.0000 0.86340  0.85990  0.57990  Biso   1.000  C
  C48      1.0000 0.86610  0.80630  0.65950  Biso   1.000  C
  C49      1.0000 0.96330  0.86820  0.53340  Biso   1.000  C
  C50      1.0000 0.67450  0.00240  0.44760  Biso   1.000  C
  C51      1.0000 0.03280  0.58890  0.45710  Biso   1.000  C
  C52      1.0000 0.12640  0.54680  0.42500  Biso   1.000  C
  C53      1.0000 0.11710  0.49370  0.34540  Biso   1.000  C
  C54      1.0000 0.22690  0.54880  0.47330  Biso   1.000  C
  C55      1.0000 0.23080  0.60080  0.54980  Biso   1.000  C
  C56      1.0000 0.34240  0.61120  0.59380  Biso   1.000  C
  C57      1.0000 0.13660  0.64010  0.57990  Biso   1.000  C
  C58      1.0000 0.13390  0.69370  0.65950  Biso   1.000  C
  C59      1.0000 0.03670  0.63180  0.53340  Biso   1.000  C
  C60      1.0000 0.32550  0.49760  0.44760  Biso   1.000  C
  C61      1.0000 0.46720  0.58890  0.04290  Biso   1.000  C
  C62      1.0000 0.37360  0.54680  0.07500  Biso   1.000  C
  C63      1.0000 0.38290  0.49370  0.15460  Biso   1.000  C
  C64      1.0000 0.27310  0.54880  0.02670  Biso   1.000  C
  C65      1.0000 0.26920  0.60080  0.95020  Biso   1.000  C
  C66      1.0000 0.15760  0.61120  0.90620  Biso   1.000  C
  C67      1.0000 0.36340  0.64010  0.92010  Biso   1.000  C
  C68      1.0000 0.36610  0.69370  0.84050  Biso   1.000  C
  C69      1.0000 0.46330  0.63180  0.96660  Biso   1.000  C
  C70      1.0000 0.17450  0.49760  0.05240  Biso   1.000  C
  C71      1.0000 0.53280  0.91110  0.04290  Biso   1.000  C
  C72      1.0000 0.62640  0.95320  0.07500  Biso   1.000  C
  C73      1.0000 0.61710  0.00630  0.15460  Biso   1.000  C
  C74      1.0000 0.72690  0.95120  0.02670  Biso   1.000  C
  C75      1.0000 0.73080  0.89920  0.95020  Biso   1.000  C
  C76      1.0000 0.84240  0.88880  0.90620  Biso   1.000  C
  C77      1.0000 0.63660  0.85990  0.92010  Biso   1.000  C
  C78      1.0000 0.63390  0.80630  0.84050  Biso   1.000  C
  C79      1.0000 0.53670  0.86820  0.96660  Biso   1.000  C
  C80      1.0000 0.82550  0.00240  0.05240  Biso   1.000  C
  O1       1.0000 0.03710  0.01120  0.70530  Biso   1.000  O
  O2       1.0000 0.18650  0.93900  0.66710  Biso   1.000  O
  O3       1.0000 0.34230  0.93050  0.51610  Biso   1.000  O
  O4       1.0000 0.38720  0.02800  0.61200  Biso   1.000  O
  O5       1.0000 0.37240  0.05020  0.35860  Biso   1.000  O
  O6       1.0000 0.39490  0.17630  0.41760  Biso   1.000  O
  O7       1.0000 0.19470  0.25810  0.34280  Biso   1.000  O
  O8       1.0000 0.06980  0.17340  0.28030  Biso   1.000  O
  O9       1.0000 0.39060  0.84340  0.67280  Biso   1.000  O
  O10      1.0000 0.96290  0.48880  0.70530  Biso   1.000  O
  O11      1.0000 0.81350  0.56100  0.66710  Biso   1.000  O
  O12      1.0000 0.65770  0.56950  0.51610  Biso   1.000  O
  O13      1.0000 0.61280  0.47200  0.61200  Biso   1.000  O
  O14      1.0000 0.62760  0.44980  0.35860  Biso   1.000  O
  O15      1.0000 0.60510  0.32370  0.41760  Biso   1.000  O
  O16      1.0000 0.80530  0.24190  0.34280  Biso   1.000  O
  O17      1.0000 0.93020  0.32660  0.28030  Biso   1.000  O
  O18      1.0000 0.60940  0.65660  0.67280  Biso   1.000  O
  O19      1.0000 0.53710  0.48880  0.79470  Biso   1.000  O
  O20      1.0000 0.68650  0.56100  0.83290  Biso   1.000  O
  O21      1.0000 0.84230  0.56950  0.98390  Biso   1.000  O
  O22      1.0000 0.88720  0.47200  0.88800  Biso   1.000  O
  O23      1.0000 0.87240  0.44980  0.14140  Biso   1.000  O
  O24      1.0000 0.89490  0.32370  0.08240  Biso   1.000  O
  O25      1.0000 0.69470  0.24190  0.15720  Biso   1.000  O
  O26      1.0000 0.56980  0.32660  0.21970  Biso   1.000  O
  O27      1.0000 0.89060  0.65660  0.82720  Biso   1.000  O
  O28      1.0000 0.46290  0.01120  0.79470  Biso   1.000  O
  O29      1.0000 0.31350  0.93900  0.83290  Biso   1.000  O
  O30      1.0000 0.15770  0.93050  0.98390  Biso   1.000  O
  O31      1.0000 0.11280  0.02800  0.88800  Biso   1.000  O
  O32      1.0000 0.12760  0.05020  0.14140  Biso   1.000  O
  O33      1.0000 0.10510  0.17630  0.08240  Biso   1.000  O
  O34      1.0000 0.30530  0.25810  0.15720  Biso   1.000  O
  O35      1.0000 0.43020  0.17340  0.21970  Biso   1.000  O
  O36      1.0000 0.10940  0.84340  0.82720  Biso   1.000  O
  O37      1.0000 0.96290  0.98880  0.29470  Biso   1.000  O
  O38      1.0000 0.81350  0.06100  0.33290  Biso   1.000  O
  O39      1.0000 0.65770  0.06950  0.48390  Biso   1.000  O
  O40      1.0000 0.61280  0.97200  0.38800  Biso   1.000  O
  O41      1.0000 0.62760  0.94980  0.64140  Biso   1.000  O
  O42      1.0000 0.60510  0.82370  0.58240  Biso   1.000  O
  O43      1.0000 0.80530  0.74190  0.65720  Biso   1.000  O
  O44      1.0000 0.93020  0.82660  0.71970  Biso   1.000  O
  O45      1.0000 0.60940  0.15660  0.32720  Biso   1.000  O
  O46      1.0000 0.03710  0.51120  0.29470  Biso   1.000  O
  O47      1.0000 0.18650  0.43900  0.33290  Biso   1.000  O
  O48      1.0000 0.34230  0.43050  0.48390  Biso   1.000  O
  O49      1.0000 0.38720  0.52800  0.38800  Biso   1.000  O
  O50      1.0000 0.37240  0.55020  0.64140  Biso   1.000  O
  O51      1.0000 0.39490  0.67630  0.58240  Biso   1.000  O
  O52      1.0000 0.19470  0.75810  0.65720  Biso   1.000  O
  O53      1.0000 0.06980  0.67340  0.71970  Biso   1.000  O
  O54      1.0000 0.39060  0.34340  0.32720  Biso   1.000  O
  O55      1.0000 0.46290  0.51120  0.20530  Biso   1.000  O
  O56      1.0000 0.31350  0.43900  0.16710  Biso   1.000  O
  O57      1.0000 0.15770  0.43050  0.01610  Biso   1.000  O
  O58      1.0000 0.11280  0.52800  0.11200  Biso   1.000  O
  O59      1.0000 0.12760  0.55020  0.85860  Biso   1.000  O
  O60      1.0000 0.10510  0.67630  0.91760  Biso   1.000  O
  O61      1.0000 0.30530  0.75810  0.84280  Biso   1.000  O
  O62      1.0000 0.43020  0.67340  0.78030  Biso   1.000  O
  O63      1.0000 0.10940  0.34340  0.17280  Biso   1.000  O
  O64      1.0000 0.53710  0.98880  0.20530  Biso   1.000  O
  O65      1.0000 0.68650  0.06100  0.16710  Biso   1.000  O
  O66      1.0000 0.84230  0.06950  0.01610  Biso   1.000  O
  O67      1.0000 0.88720  0.97200  0.11200  Biso   1.000  O
  O68      1.0000 0.87240  0.94980  0.85860  Biso   1.000  O
  O69      1.0000 0.89490  0.82370  0.91760  Biso   1.000  O
  O70      1.0000 0.69470  0.74190  0.84280  Biso   1.000  O
  O71      1.0000 0.56980  0.82660  0.78030  Biso   1.000  O
  O72      1.0000 0.89060  0.15660  0.17280  Biso   1.000  O
