data_image0
_cell_length_a       11.941
_cell_length_b       15.2986
_cell_length_c       17.316
_cell_angle_alpha    84.7218
_cell_angle_beta     76.3661
_cell_angle_gamma    67.0291

_symmetry_space_group_name_H-M    P 1
_symmetry_int_tables_number       1

loop_
  _symmetry_equiv_pos_as_xyz
  'x, y, z'

loop_
  _atom_site_label
  _atom_site_occupancy
  _atom_site_fract_x
  _atom_site_fract_y
  _atom_site_fract_z
  _atom_site_thermal_displace_type
  _atom_site_B_iso_or_equiv
  _atom_site_type_symbol
  Cd1      1.0000 0.52726  0.56266  0.33444  Biso   1.000  Cd
  Cd2      1.0000 0.20915  0.36928  0.18588  Biso   1.000  Cd
  Cd3      1.0000 0.91008  0.56266  0.16556  Biso   1.000  Cd
  Cd4      1.0000 0.42157  0.36928  0.31412  Biso   1.000  Cd
  Cd5      1.0000 0.47274  0.43734  0.66556  Biso   1.000  Cd
  Cd6      1.0000 0.79085  0.63072  0.81412  Biso   1.000  Cd
  Cd7      1.0000 0.08992  0.43734  0.83444  Biso   1.000  Cd
  Cd8      1.0000 0.57843  0.63072  0.68588  Biso   1.000  Cd
  H1       1.0000 0.89210  0.65140  0.46430  Biso   1.000  H
  H2       1.0000 0.08920  0.61960  0.38560  Biso   1.000  H
  H3       1.0000 0.50900  0.70880  0.19280  Biso   1.000  H
  H4       1.0000 0.43840  0.86480  0.16200  Biso   1.000  H
  H5       1.0000 0.44580  0.00620  0.15040  Biso   1.000  H
  H6       1.0000 0.38890  0.16600  0.12500  Biso   1.000  H
  H7       1.0000 0.13510  0.22460  0.32040  Biso   1.000  H
  H8       1.0000 0.19030  0.06840  0.35290  Biso   1.000  H
  H9       1.0000 0.32270  0.92600  0.39320  Biso   1.000  H
  H10      1.0000 0.40150  0.76360  0.41770  Biso   1.000  H
  H11      1.0000 0.15300  0.34800  0.02770  Biso   1.000  H
  H12      1.0000 0.45650  0.65140  0.03570  Biso   1.000  H
  H13      1.0000 0.29120  0.61960  0.11440  Biso   1.000  H
  H14      1.0000 0.78220  0.70880  0.30720  Biso   1.000  H
  H15      1.0000 0.69680  0.86480  0.33800  Biso   1.000  H
  H16      1.0000 0.54800  0.00620  0.34960  Biso   1.000  H
  H17      1.0000 0.44510  0.16600  0.37500  Biso   1.000  H
  H18      1.0000 0.64030  0.22460  0.17960  Biso   1.000  H
  H19      1.0000 0.74130  0.06840  0.14710  Biso   1.000  H
  H20      1.0000 0.75130  0.92600  0.10680  Biso   1.000  H
  H21      1.0000 0.83490  0.76360  0.08230  Biso   1.000  H
  H22      1.0000 0.49900  0.34800  0.47230  Biso   1.000  H
  H23      1.0000 0.10790  0.34860  0.53570  Biso   1.000  H
  H24      1.0000 0.91080  0.38040  0.61440  Biso   1.000  H
  H25      1.0000 0.49100  0.29120  0.80720  Biso   1.000  H
  H26      1.0000 0.56160  0.13520  0.83800  Biso   1.000  H
  H27      1.0000 0.55420  0.99380  0.84960  Biso   1.000  H
  H28      1.0000 0.61110  0.83400  0.87500  Biso   1.000  H
  H29      1.0000 0.86490  0.77540  0.67960  Biso   1.000  H
  H30      1.0000 0.80970  0.93160  0.64710  Biso   1.000  H
  H31      1.0000 0.67730  0.07400  0.60680  Biso   1.000  H
  H32      1.0000 0.59850  0.23640  0.58230  Biso   1.000  H
  H33      1.0000 0.84700  0.65200  0.97230  Biso   1.000  H
  H34      1.0000 0.54350  0.34860  0.96430  Biso   1.000  H
  H35      1.0000 0.70880  0.38040  0.88560  Biso   1.000  H
  H36      1.0000 0.21780  0.29120  0.69280  Biso   1.000  H
  H37      1.0000 0.30320  0.13520  0.66200  Biso   1.000  H
  H38      1.0000 0.45200  0.99380  0.65040  Biso   1.000  H
  H39      1.0000 0.55490  0.83400  0.62500  Biso   1.000  H
  H40      1.0000 0.35970  0.77540  0.82040  Biso   1.000  H
  H41      1.0000 0.25870  0.93160  0.85290  Biso   1.000  H
  H42      1.0000 0.24870  0.07400  0.89320  Biso   1.000  H
  H43      1.0000 0.16510  0.23640  0.91770  Biso   1.000  H
  H44      1.0000 0.50100  0.65200  0.52770  Biso   1.000  H
  C1       1.0000 0.30720  0.56100  0.42460  Biso   1.000  C
  C2       1.0000 0.18220  0.56960  0.47380  Biso   1.000  C
  C3       1.0000 0.16760  0.54660  0.55380  Biso   1.000  C
  C4       1.0000 0.28100  0.49940  0.58880  Biso   1.000  C
  C5       1.0000 0.04890  0.56560  0.60220  Biso   1.000  C
  C6       1.0000 0.04030  0.54020  0.68880  Biso   1.000  C
  C7       1.0000 0.94490  0.60720  0.56770  Biso   1.000  C
  C8       1.0000 0.81490  0.62480  0.61500  Biso   1.000  C
  C9       1.0000 0.96130  0.62580  0.48720  Biso   1.000  C
  C10      1.0000 0.07930  0.60700  0.43980  Biso   1.000  C
  C11      1.0000 0.47120  0.75300  0.23380  Biso   1.000  C
  C12      1.0000 0.42820  0.84680  0.21510  Biso   1.000  C
  C13      1.0000 0.37070  0.91480  0.27270  Biso   1.000  C
  C14      1.0000 0.32610  0.01760  0.25470  Biso   1.000  C
  C15      1.0000 0.38290  0.04960  0.18680  Biso   1.000  C
  C16      1.0000 0.34760  0.14640  0.17150  Biso   1.000  C
  C17      1.0000 0.20030  0.18020  0.28600  Biso   1.000  C
  C18      1.0000 0.23190  0.08620  0.30560  Biso   1.000  C
  C19      1.0000 0.36030  0.88320  0.35120  Biso   1.000  C
  C20      1.0000 0.40810  0.78480  0.36530  Biso   1.000  C
  C21      1.0000 0.13180  0.56100  0.07540  Biso   1.000  C
  C22      1.0000 0.24820  0.56960  0.02620  Biso   1.000  C
  C23      1.0000 0.28580  0.54660  0.94620  Biso   1.000  C
  C24      1.0000 0.21960  0.49940  0.91120  Biso   1.000  C
  C25      1.0000 0.38550  0.56560  0.89780  Biso   1.000  C
  C26      1.0000 0.41950  0.54020  0.81120  Biso   1.000  C
  C27      1.0000 0.44790  0.60720  0.93230  Biso   1.000  C
  C28      1.0000 0.56030  0.62480  0.88500  Biso   1.000  C
  C29      1.0000 0.41290  0.62580  0.01280  Biso   1.000  C
  C30      1.0000 0.31370  0.60700  0.06020  Biso   1.000  C
  C31      1.0000 0.77580  0.75300  0.26620  Biso   1.000  C
  C32      1.0000 0.72500  0.84680  0.28490  Biso   1.000  C
  C33      1.0000 0.71450  0.91480  0.22730  Biso   1.000  C
  C34      1.0000 0.65630  0.01760  0.24530  Biso   1.000  C
  C35      1.0000 0.56750  0.04960  0.31320  Biso   1.000  C
  C36      1.0000 0.50600  0.14640  0.32850  Biso   1.000  C
  C37      1.0000 0.61950  0.18020  0.21400  Biso   1.000  C
  C38      1.0000 0.68190  0.08620  0.19440  Biso   1.000  C
  C39      1.0000 0.75650  0.88320  0.14880  Biso   1.000  C
  C40      1.0000 0.80710  0.78480  0.13470  Biso   1.000  C
  C41      1.0000 0.69280  0.43900  0.57540  Biso   1.000  C
  C42      1.0000 0.81780  0.43040  0.52620  Biso   1.000  C
  C43      1.0000 0.83240  0.45340  0.44620  Biso   1.000  C
  C44      1.0000 0.71900  0.50060  0.41120  Biso   1.000  C
  C45      1.0000 0.95110  0.43440  0.39780  Biso   1.000  C
  C46      1.0000 0.95970  0.45980  0.31120  Biso   1.000  C
  C47      1.0000 0.05510  0.39280  0.43230  Biso   1.000  C
  C48      1.0000 0.18510  0.37520  0.38500  Biso   1.000  C
  C49      1.0000 0.03870  0.37420  0.51280  Biso   1.000  C
  C50      1.0000 0.92070  0.39300  0.56020  Biso   1.000  C
  C51      1.0000 0.52880  0.24700  0.76620  Biso   1.000  C
  C52      1.0000 0.57180  0.15320  0.78490  Biso   1.000  C
  C53      1.0000 0.62930  0.08520  0.72730  Biso   1.000  C
  C54      1.0000 0.67390  0.98240  0.74530  Biso   1.000  C
  C55      1.0000 0.61710  0.95040  0.81320  Biso   1.000  C
  C56      1.0000 0.65240  0.85360  0.82850  Biso   1.000  C
  C57      1.0000 0.79970  0.81980  0.71400  Biso   1.000  C
  C58      1.0000 0.76810  0.91380  0.69440  Biso   1.000  C
  C59      1.0000 0.63970  0.11680  0.64880  Biso   1.000  C
  C60      1.0000 0.59190  0.21520  0.63470  Biso   1.000  C
  C61      1.0000 0.86820  0.43900  0.92460  Biso   1.000  C
  C62      1.0000 0.75180  0.43040  0.97380  Biso   1.000  C
  C63      1.0000 0.71420  0.45340  0.05380  Biso   1.000  C
  C64      1.0000 0.78040  0.50060  0.08880  Biso   1.000  C
  C65      1.0000 0.61450  0.43440  0.10220  Biso   1.000  C
  C66      1.0000 0.58050  0.45980  0.18880  Biso   1.000  C
  C67      1.0000 0.55210  0.39280  0.06770  Biso   1.000  C
  C68      1.0000 0.43970  0.37520  0.11500  Biso   1.000  C
  C69      1.0000 0.58710  0.37420  0.98720  Biso   1.000  C
  C70      1.0000 0.68630  0.39300  0.93980  Biso   1.000  C
  C71      1.0000 0.22420  0.24700  0.73380  Biso   1.000  C
  C72      1.0000 0.27500  0.15320  0.71510  Biso   1.000  C
  C73      1.0000 0.28550  0.08520  0.77270  Biso   1.000  C
  C74      1.0000 0.34370  0.98240  0.75470  Biso   1.000  C
  C75      1.0000 0.43250  0.95040  0.68680  Biso   1.000  C
  C76      1.0000 0.49400  0.85360  0.67150  Biso   1.000  C
  C77      1.0000 0.38050  0.81980  0.78600  Biso   1.000  C
  C78      1.0000 0.31810  0.91380  0.80560  Biso   1.000  C
  C79      1.0000 0.24350  0.11680  0.85120  Biso   1.000  C
  C80      1.0000 0.19290  0.21520  0.86530  Biso   1.000  C
  N1       1.0000 0.46140  0.72160  0.30870  Biso   1.000  N
  N2       1.0000 0.25720  0.21220  0.22050  Biso   1.000  N
  N3       1.0000 0.81700  0.72160  0.19130  Biso   1.000  N
  N4       1.0000 0.53060  0.21220  0.27950  Biso   1.000  N
  N5       1.0000 0.53860  0.27840  0.69130  Biso   1.000  N
  N6       1.0000 0.74280  0.78780  0.77950  Biso   1.000  N
  N7       1.0000 0.18300  0.27840  0.80870  Biso   1.000  N
  N8       1.0000 0.46940  0.78780  0.72050  Biso   1.000  N
  O1       1.0000 0.36970  0.59300  0.45280  Biso   1.000  O
  O2       1.0000 0.34405  0.52830  0.35460  Biso   1.000  O
  O3       1.0000 0.35798  0.41964  0.56420  Biso   1.000  O
  O4       1.0000 0.29120  0.54040  0.64450  Biso   1.000  O
  O5       1.0000 0.09010  0.45400  0.70480  Biso   1.000  O
  O6       1.0000 0.98918  0.60464  0.74050  Biso   1.000  O
  O7       1.0000 0.79779  0.58902  0.68320  Biso   1.000  O
  O8       1.0000 0.72480  0.67060  0.58430  Biso   1.000  O
  O9       1.0000 0.13230  0.34540  0.08030  Biso   1.000  O
  O10      1.0000 0.03730  0.59300  0.04720  Biso   1.000  O
  O11      1.0000 0.12765  0.52830  0.14540  Biso   1.000  O
  O12      1.0000 0.22238  0.41964  0.93580  Biso   1.000  O
  O13      1.0000 0.16840  0.54040  0.85550  Biso   1.000  O
  O14      1.0000 0.45590  0.45400  0.79520  Biso   1.000  O
  O15      1.0000 0.40618  0.60464  0.75950  Biso   1.000  O
  O16      1.0000 0.61319  0.58902  0.81680  Biso   1.000  O
  O17      1.0000 0.60460  0.67060  0.91570  Biso   1.000  O
  O18      1.0000 0.52230  0.34540  0.41970  Biso   1.000  O
  O19      1.0000 0.63030  0.40700  0.54720  Biso   1.000  O
  O20      1.0000 0.65595  0.47170  0.64540  Biso   1.000  O
  O21      1.0000 0.64202  0.58036  0.43580  Biso   1.000  O
  O22      1.0000 0.70880  0.45960  0.35550  Biso   1.000  O
  O23      1.0000 0.90990  0.54600  0.29520  Biso   1.000  O
  O24      1.0000 0.01082  0.39536  0.25950  Biso   1.000  O
  O25      1.0000 0.20221  0.41098  0.31680  Biso   1.000  O
  O26      1.0000 0.27520  0.32940  0.41570  Biso   1.000  O
  O27      1.0000 0.86770  0.65460  0.91970  Biso   1.000  O
  O28      1.0000 0.96270  0.40700  0.95280  Biso   1.000  O
  O29      1.0000 0.87235  0.47170  0.85460  Biso   1.000  O
  O30      1.0000 0.77762  0.58036  0.06420  Biso   1.000  O
  O31      1.0000 0.83160  0.45960  0.14450  Biso   1.000  O
  O32      1.0000 0.54410  0.54600  0.20480  Biso   1.000  O
  O33      1.0000 0.59382  0.39536  0.24050  Biso   1.000  O
  O34      1.0000 0.38681  0.41098  0.18320  Biso   1.000  O
  O35      1.0000 0.39540  0.32940  0.08430  Biso   1.000  O
  O36      1.0000 0.47770  0.65460  0.58030  Biso   1.000  O
