data_image0
_cell_length_a       7.2039
_cell_length_b       8.7309
_cell_length_c       16.234
_cell_angle_alpha    90
_cell_angle_beta     90
_cell_angle_gamma    90

_symmetry_space_group_name_H-M    P 1
_symmetry_int_tables_number       1

loop_
  _symmetry_equiv_pos_as_xyz
  'x, y, z'

loop_
  _atom_site_label
  _atom_site_occupancy
  _atom_site_fract_x
  _atom_site_fract_y
  _atom_site_fract_z
  _atom_site_thermal_displace_type
  _atom_site_B_iso_or_equiv
  _atom_site_type_symbol
  Zn1      1.0000 0.25785  0.45765  0.95897  Biso   1.000  Zn
  Zn2      1.0000 0.24215  0.54235  0.45897  Biso   1.000  Zn
  Zn3      1.0000 0.74215  0.95765  0.54103  Biso   1.000  Zn
  Zn4      1.0000 0.75785  0.04235  0.04103  Biso   1.000  Zn
  H1       1.0000 0.09220  0.67420  0.61640  Biso   1.000  H
  H2       1.0000 0.84330  0.52250  0.91940  Biso   1.000  H
  H3       1.0000 0.80900  0.62750  0.68020  Biso   1.000  H
  H4       1.0000 0.66920  0.60510  0.80860  Biso   1.000  H
  H5       1.0000 0.27590  0.46920  0.77900  Biso   1.000  H
  H6       1.0000 0.23400  0.46710  0.54160  Biso   1.000  H
  H7       1.0000 0.03650  0.44400  0.56580  Biso   1.000  H
  H8       1.0000 0.31610  0.74180  0.69210  Biso   1.000  H
  H9       1.0000 0.41870  0.58690  0.67880  Biso   1.000  H
  H10      1.0000 0.40780  0.32580  0.11640  Biso   1.000  H
  H11      1.0000 0.65670  0.47750  0.41940  Biso   1.000  H
  H12      1.0000 0.69100  0.37250  0.18020  Biso   1.000  H
  H13      1.0000 0.83080  0.39490  0.30860  Biso   1.000  H
  H14      1.0000 0.22410  0.53080  0.27900  Biso   1.000  H
  H15      1.0000 0.26600  0.53290  0.04160  Biso   1.000  H
  H16      1.0000 0.46350  0.55600  0.06580  Biso   1.000  H
  H17      1.0000 0.18390  0.25820  0.19210  Biso   1.000  H
  H18      1.0000 0.08130  0.41310  0.17880  Biso   1.000  H
  H19      1.0000 0.90780  0.17420  0.88360  Biso   1.000  H
  H20      1.0000 0.15670  0.02250  0.58060  Biso   1.000  H
  H21      1.0000 0.19100  0.12750  0.81980  Biso   1.000  H
  H22      1.0000 0.33080  0.10510  0.69140  Biso   1.000  H
  H23      1.0000 0.72410  0.96920  0.72100  Biso   1.000  H
  H24      1.0000 0.76600  0.96710  0.95840  Biso   1.000  H
  H25      1.0000 0.96350  0.94400  0.93420  Biso   1.000  H
  H26      1.0000 0.68390  0.24180  0.80790  Biso   1.000  H
  H27      1.0000 0.58130  0.08690  0.82120  Biso   1.000  H
  H28      1.0000 0.59220  0.82580  0.38360  Biso   1.000  H
  H29      1.0000 0.34330  0.97750  0.08060  Biso   1.000  H
  H30      1.0000 0.30900  0.87250  0.31980  Biso   1.000  H
  H31      1.0000 0.16920  0.89490  0.19140  Biso   1.000  H
  H32      1.0000 0.77590  0.03080  0.22100  Biso   1.000  H
  H33      1.0000 0.73400  0.03290  0.45840  Biso   1.000  H
  H34      1.0000 0.53650  0.05600  0.43420  Biso   1.000  H
  H35      1.0000 0.81610  0.75820  0.30790  Biso   1.000  H
  H36      1.0000 0.91870  0.91310  0.32120  Biso   1.000  H
  C1       1.0000 0.16450  0.58730  0.63710  Biso   1.000  C
  C2       1.0000 0.06210  0.55560  0.71650  Biso   1.000  C
  C3       1.0000 0.89910  0.53030  0.86790  Biso   1.000  C
  C4       1.0000 0.87710  0.59350  0.72530  Biso   1.000  C
  C5       1.0000 0.79390  0.58050  0.80170  Biso   1.000  C
  C6       1.0000 0.15370  0.50150  0.78520  Biso   1.000  C
  C7       1.0000 0.33890  0.66140  0.65210  Biso   1.000  C
  C8       1.0000 0.44990  0.73210  0.58290  Biso   1.000  C
  C9       1.0000 0.33550  0.41270  0.13710  Biso   1.000  C
  C10      1.0000 0.43790  0.44440  0.21650  Biso   1.000  C
  C11      1.0000 0.60090  0.46970  0.36790  Biso   1.000  C
  C12      1.0000 0.62290  0.40650  0.22530  Biso   1.000  C
  C13      1.0000 0.70610  0.41950  0.30170  Biso   1.000  C
  C14      1.0000 0.34630  0.49850  0.28520  Biso   1.000  C
  C15      1.0000 0.16110  0.33860  0.15210  Biso   1.000  C
  C16      1.0000 0.05010  0.26790  0.08290  Biso   1.000  C
  C17      1.0000 0.83550  0.08730  0.86290  Biso   1.000  C
  C18      1.0000 0.93790  0.05560  0.78350  Biso   1.000  C
  C19      1.0000 0.10090  0.03030  0.63210  Biso   1.000  C
  C20      1.0000 0.12290  0.09350  0.77470  Biso   1.000  C
  C21      1.0000 0.20610  0.08050  0.69830  Biso   1.000  C
  C22      1.0000 0.84630  0.00150  0.71480  Biso   1.000  C
  C23      1.0000 0.66110  0.16140  0.84790  Biso   1.000  C
  C24      1.0000 0.55010  0.23210  0.91710  Biso   1.000  C
  C25      1.0000 0.66450  0.91270  0.36290  Biso   1.000  C
  C26      1.0000 0.56210  0.94440  0.28350  Biso   1.000  C
  C27      1.0000 0.39910  0.96970  0.13210  Biso   1.000  C
  C28      1.0000 0.37710  0.90650  0.27470  Biso   1.000  C
  C29      1.0000 0.29390  0.91950  0.19830  Biso   1.000  C
  C30      1.0000 0.65370  0.99850  0.21480  Biso   1.000  C
  C31      1.0000 0.83890  0.83860  0.34790  Biso   1.000  C
  C32      1.0000 0.94990  0.76790  0.41710  Biso   1.000  C
  N1       1.0000 0.07730  0.49280  0.86030  Biso   1.000  N
  N2       1.0000 0.14230  0.48720  0.57370  Biso   1.000  N
  N3       1.0000 0.42270  0.50720  0.36030  Biso   1.000  N
  N4       1.0000 0.35770  0.51280  0.07370  Biso   1.000  N
  N5       1.0000 0.92270  0.99280  0.63970  Biso   1.000  N
  N6       1.0000 0.85770  0.98720  0.92630  Biso   1.000  N
  N7       1.0000 0.57730  0.00720  0.13970  Biso   1.000  N
  N8       1.0000 0.64230  0.01280  0.42630  Biso   1.000  N
  O1       1.0000 0.57210  0.82410  0.60530  Biso   1.000  O
  O2       1.0000 0.42100  0.69840  0.50940  Biso   1.000  O
  O3       1.0000 0.92790  0.17590  0.10530  Biso   1.000  O
  O4       1.0000 0.07900  0.30160  0.00940  Biso   1.000  O
  O5       1.0000 0.42790  0.32410  0.89470  Biso   1.000  O
  O6       1.0000 0.57900  0.19840  0.99060  Biso   1.000  O
  O7       1.0000 0.07210  0.67590  0.39470  Biso   1.000  O
  O8       1.0000 0.92100  0.80160  0.49060  Biso   1.000  O
