data_image0
_cell_length_a       7.1497
_cell_length_b       9.5284
_cell_length_c       16.0211
_cell_angle_alpha    90
_cell_angle_beta     90
_cell_angle_gamma    90

_symmetry_space_group_name_H-M    "P 1"
_symmetry_int_tables_number       1

loop_
  _symmetry_equiv_pos_as_xyz
  'x, y, z'

loop_
  _atom_site_label
  _atom_site_occupancy
  _atom_site_fract_x
  _atom_site_fract_y
  _atom_site_fract_z
  _atom_site_thermal_displace_type
  _atom_site_B_iso_or_equiv
  _atom_site_type_symbol
  Zn1      1.0000 0.23368  0.43528  0.96239  Biso   1.000  Zn
  C1       1.0000 0.17110  0.51370  0.78800  Biso   1.000  C
  H1       1.0000 0.29500  0.48520  0.78320  Biso   1.000  H
  C2       1.0000 0.08330  0.56960  0.71930  Biso   1.000  C
  N1       1.0000 0.08490  0.49860  0.86170  Biso   1.000  N
  C3       1.0000 0.90060  0.53510  0.86770  Biso   1.000  C
  H2       1.0000 0.83790  0.52240  0.91800  Biso   1.000  H
  C4       1.0000 0.89950  0.60940  0.72670  Biso   1.000  C
  H3       1.0000 0.83780  0.64950  0.68150  Biso   1.000  H
  C5       1.0000 0.80680  0.59020  0.80060  Biso   1.000  C
  H4       1.0000 0.68120  0.61430  0.80530  Biso   1.000  H
  C6       1.0000 0.18910  0.60190  0.64150  Biso   1.000  C
  N2       1.0000 0.17010  0.50210  0.57550  Biso   1.000  N
  H5       1.0000 0.24970  0.50080  0.53530  Biso   1.000  H
  H6       1.0000 0.07890  0.44320  0.57610  Biso   1.000  H
  C7       1.0000 0.33100  0.69830  0.64410  Biso   1.000  C
  H7       1.0000 0.35830  0.73210  0.69720  Biso   1.000  H
  C8       1.0000 0.44560  0.75590  0.57880  Biso   1.000  C
  O1       1.0000 0.42650  0.72150  0.50540  Biso   1.000  O
  O2       1.0000 0.56740  0.84410  0.60290  Biso   1.000  O
  Zn2      1.0000 0.26632  0.56472  0.46239  Biso   1.000  Zn
  C9       1.0000 0.32890  0.48630  0.28800  Biso   1.000  C
  H8       1.0000 0.20500  0.51480  0.28320  Biso   1.000  H
  C10      1.0000 0.41670  0.43040  0.21930  Biso   1.000  C
  N3       1.0000 0.41510  0.50140  0.36170  Biso   1.000  N
  C11      1.0000 0.59940  0.46490  0.36770  Biso   1.000  C
  H9       1.0000 0.66210  0.47760  0.41800  Biso   1.000  H
  C12      1.0000 0.60050  0.39060  0.22670  Biso   1.000  C
  H10      1.0000 0.66220  0.35050  0.18150  Biso   1.000  H
  C13      1.0000 0.69320  0.40980  0.30060  Biso   1.000  C
  H11      1.0000 0.81880  0.38570  0.30530  Biso   1.000  H
  C14      1.0000 0.31090  0.39810  0.14150  Biso   1.000  C
  N4       1.0000 0.32990  0.49790  0.07550  Biso   1.000  N
  H12      1.0000 0.25030  0.49920  0.03530  Biso   1.000  H
  H13      1.0000 0.42110  0.55680  0.07610  Biso   1.000  H
  C15      1.0000 0.16900  0.30170  0.14410  Biso   1.000  C
  H14      1.0000 0.14170  0.26790  0.19720  Biso   1.000  H
  C16      1.0000 0.05440  0.24410  0.07880  Biso   1.000  C
  O3       1.0000 0.07350  0.27850  0.00540  Biso   1.000  O
  O4       1.0000 0.93260  0.15590  0.10290  Biso   1.000  O
  Zn3      1.0000 0.76632  0.93528  0.53761  Biso   1.000  Zn
  C17      1.0000 0.82890  0.01370  0.71200  Biso   1.000  C
  H15      1.0000 0.70500  0.98520  0.71680  Biso   1.000  H
  C18      1.0000 0.91670  0.06960  0.78070  Biso   1.000  C
  N5       1.0000 0.91510  0.99860  0.63830  Biso   1.000  N
  C19      1.0000 0.09940  0.03510  0.63230  Biso   1.000  C
  H16      1.0000 0.16210  0.02240  0.58200  Biso   1.000  H
  C20      1.0000 0.10050  0.10940  0.77330  Biso   1.000  C
  H17      1.0000 0.16220  0.14950  0.81850  Biso   1.000  H
  C21      1.0000 0.19320  0.09020  0.69940  Biso   1.000  C
  H18      1.0000 0.31880  0.11430  0.69470  Biso   1.000  H
  C22      1.0000 0.81090  0.10190  0.85850  Biso   1.000  C
  N6       1.0000 0.82990  0.00210  0.92450  Biso   1.000  N
  H19      1.0000 0.75030  0.00080  0.96470  Biso   1.000  H
  H20      1.0000 0.92110  0.94320  0.92390  Biso   1.000  H
  C23      1.0000 0.66900  0.19830  0.85590  Biso   1.000  C
  H21      1.0000 0.64170  0.23210  0.80280  Biso   1.000  H
  C24      1.0000 0.55440  0.25590  0.92120  Biso   1.000  C
  O5       1.0000 0.57350  0.22150  0.99460  Biso   1.000  O
  O6       1.0000 0.43260  0.34410  0.89710  Biso   1.000  O
  Zn4      1.0000 0.73368  0.06472  0.03761  Biso   1.000  Zn
  C25      1.0000 0.67110  0.98630  0.21200  Biso   1.000  C
  H22      1.0000 0.79500  0.01480  0.21680  Biso   1.000  H
  C26      1.0000 0.58330  0.93040  0.28070  Biso   1.000  C
  N7       1.0000 0.58490  0.00140  0.13830  Biso   1.000  N
  C27      1.0000 0.40060  0.96490  0.13230  Biso   1.000  C
  H23      1.0000 0.33790  0.97760  0.08200  Biso   1.000  H
  C28      1.0000 0.39950  0.89060  0.27330  Biso   1.000  C
  H24      1.0000 0.33780  0.85050  0.31850  Biso   1.000  H
  C29      1.0000 0.30680  0.90980  0.19940  Biso   1.000  C
  H25      1.0000 0.18120  0.88570  0.19470  Biso   1.000  H
  C30      1.0000 0.68910  0.89810  0.35850  Biso   1.000  C
  N8       1.0000 0.67010  0.99790  0.42450  Biso   1.000  N
  H26      1.0000 0.74970  0.99920  0.46470  Biso   1.000  H
  H27      1.0000 0.57890  0.05680  0.42390  Biso   1.000  H
  C31      1.0000 0.83100  0.80170  0.35590  Biso   1.000  C
  H28      1.0000 0.85830  0.76790  0.30280  Biso   1.000  H
  C32      1.0000 0.94560  0.74410  0.42120  Biso   1.000  C
  O7       1.0000 0.92650  0.77850  0.49460  Biso   1.000  O
  O8       1.0000 0.06740  0.65590  0.39710  Biso   1.000  O
