data_image0
_cell_length_a       14.0169
_cell_length_b       13.5045
_cell_length_c       12.505
_cell_angle_alpha    90
_cell_angle_beta     116.318
_cell_angle_gamma    90

_symmetry_space_group_name_H-M    "P 1"
_symmetry_int_tables_number       1

loop_
  _symmetry_equiv_pos_as_xyz
  'x, y, z'

loop_
  _atom_site_label
  _atom_site_occupancy
  _atom_site_fract_x
  _atom_site_fract_y
  _atom_site_fract_z
  _atom_site_thermal_displace_type
  _atom_site_B_iso_or_equiv
  _atom_site_type_symbol
  Cd1      1.0000 0.20762  0.15096  0.55687  Biso   1.000  Cd
  N1       1.0000 0.31110  0.26190  0.70830  Biso   1.000  N
  C1       1.0000 0.06580  0.34810  0.43720  Biso   1.000  C
  H1       1.0000 0.02730  0.32240  0.47520  Biso   1.000  H
  N2       1.0000 0.14510  0.29430  0.43610  Biso   1.000  N
  C2       1.0000 0.54370  0.43550  0.78420  Biso   1.000  C
  H2       1.0000 0.57740  0.38770  0.75270  Biso   1.000  H
  C3       1.0000 0.94350  0.49180  0.39040  Biso   1.000  C
  H3       1.0000 0.88600  0.44310  0.36810  Biso   1.000  H
  C4       1.0000 0.39720  0.30830  0.71060  Biso   1.000  C
  H4       1.0000 0.42390  0.28760  0.65830  Biso   1.000  H
  C5       1.0000 0.03840  0.44080  0.38420  Biso   1.000  C
  C6       1.0000 0.97250  0.52570  0.51660  Biso   1.000  C
  H5       1.0000 0.03140  0.57190  0.54130  Biso   1.000  H
  H6       1.0000 0.99640  0.46890  0.56950  Biso   1.000  H
  C7       1.0000 0.40800  0.41380  0.86630  Biso   1.000  C
  H7       1.0000 0.43870  0.46670  0.91790  Biso   1.000  H
  C8       1.0000 0.19680  0.32870  0.37620  Biso   1.000  C
  H8       1.0000 0.24900  0.28950  0.37060  Biso   1.000  H
  C9       1.0000 0.09460  0.47700  0.32610  Biso   1.000  C
  H9       1.0000 0.07830  0.53890  0.28980  Biso   1.000  H
  C10      1.0000 0.27700  0.28860  0.78820  Biso   1.000  C
  H10      1.0000 0.21960  0.25510  0.78940  Biso   1.000  H
  C11      1.0000 0.44710  0.38560  0.78770  Biso   1.000  C
  N3       1.0000 0.90400  0.57520  0.30360  Biso   1.000  N
  H11      1.0000 0.84880  0.60390  0.30840  Biso   1.000  H
  H12      1.0000 0.88370  0.55210  0.23010  Biso   1.000  H
  H13      1.0000 0.95570  0.61940  0.32050  Biso   1.000  H
  C12      1.0000 0.50850  0.52580  0.70000  Biso   1.000  C
  H14      1.0000 0.45140  0.50570  0.62420  Biso   1.000  H
  H15      1.0000 0.48030  0.57580  0.73400  Biso   1.000  H
  C13      1.0000 0.17510  0.42090  0.32210  Biso   1.000  C
  H16      1.0000 0.21420  0.44460  0.28380  Biso   1.000  H
  C14      1.0000 0.88090  0.57490  0.52960  Biso   1.000  C
  O1       1.0000 0.83360  0.64330  0.45960  Biso   1.000  O
  C15      1.0000 0.59650  0.57190  0.67740  Biso   1.000  C
  O2       1.0000 0.57150  0.65020  0.61480  Biso   1.000  O
  O3       1.0000 0.68410  0.53130  0.71240  Biso   1.000  O
  O4       1.0000 0.85800  0.54920  0.61110  Biso   1.000  O
  N4       1.0000 0.62180  0.46390  0.90460  Biso   1.000  N
  H17      1.0000 0.60940  0.45170  0.96480  Biso   1.000  H
  H18      1.0000 0.67990  0.49280  0.91510  Biso   1.000  H
  C16      1.0000 0.32330  0.36360  0.86840  Biso   1.000  C
  H19      1.0000 0.29800  0.38030  0.92330  Biso   1.000  H
  Cd2      1.0000 0.70762  0.65096  0.55687  Biso   1.000  Cd
  N5       1.0000 0.81110  0.76190  0.70830  Biso   1.000  N
  C17      1.0000 0.56580  0.84810  0.43720  Biso   1.000  C
  H20      1.0000 0.52730  0.82240  0.47520  Biso   1.000  H
  N6       1.0000 0.64510  0.79430  0.43610  Biso   1.000  N
  C18      1.0000 0.04370  0.93550  0.78420  Biso   1.000  C
  H21      1.0000 0.07740  0.88770  0.75270  Biso   1.000  H
  C19      1.0000 0.44350  0.99180  0.39040  Biso   1.000  C
  H22      1.0000 0.38600  0.94310  0.36810  Biso   1.000  H
  C20      1.0000 0.89720  0.80830  0.71060  Biso   1.000  C
  H23      1.0000 0.92390  0.78760  0.65830  Biso   1.000  H
  C21      1.0000 0.53840  0.94080  0.38420  Biso   1.000  C
  C22      1.0000 0.47250  0.02570  0.51660  Biso   1.000  C
  H24      1.0000 0.53140  0.07190  0.54130  Biso   1.000  H
  H25      1.0000 0.49640  0.96890  0.56950  Biso   1.000  H
  C23      1.0000 0.90800  0.91380  0.86630  Biso   1.000  C
  H26      1.0000 0.93870  0.96670  0.91790  Biso   1.000  H
  C24      1.0000 0.69680  0.82870  0.37620  Biso   1.000  C
  H27      1.0000 0.74900  0.78950  0.37060  Biso   1.000  H
  C25      1.0000 0.59460  0.97700  0.32610  Biso   1.000  C
  H28      1.0000 0.57830  0.03890  0.28980  Biso   1.000  H
  C26      1.0000 0.77700  0.78860  0.78820  Biso   1.000  C
  H29      1.0000 0.71960  0.75510  0.78940  Biso   1.000  H
  C27      1.0000 0.94710  0.88560  0.78770  Biso   1.000  C
  N7       1.0000 0.40400  0.07520  0.30360  Biso   1.000  N
  H30      1.0000 0.34880  0.10390  0.30840  Biso   1.000  H
  H31      1.0000 0.38370  0.05210  0.23010  Biso   1.000  H
  H32      1.0000 0.45570  0.11940  0.32050  Biso   1.000  H
  C28      1.0000 0.00850  0.02580  0.70000  Biso   1.000  C
  H33      1.0000 0.95140  0.00570  0.62420  Biso   1.000  H
  H34      1.0000 0.98030  0.07580  0.73400  Biso   1.000  H
  C29      1.0000 0.67510  0.92090  0.32210  Biso   1.000  C
  H35      1.0000 0.71420  0.94460  0.28380  Biso   1.000  H
  C30      1.0000 0.38090  0.07490  0.52960  Biso   1.000  C
  O5       1.0000 0.33360  0.14330  0.45960  Biso   1.000  O
  C31      1.0000 0.09650  0.07190  0.67740  Biso   1.000  C
  O6       1.0000 0.07150  0.15020  0.61480  Biso   1.000  O
  O7       1.0000 0.18410  0.03130  0.71240  Biso   1.000  O
  O8       1.0000 0.35800  0.04920  0.61110  Biso   1.000  O
  N8       1.0000 0.12180  0.96390  0.90460  Biso   1.000  N
  H36      1.0000 0.10940  0.95170  0.96480  Biso   1.000  H
  H37      1.0000 0.17990  0.99280  0.91510  Biso   1.000  H
  C32      1.0000 0.82330  0.86360  0.86840  Biso   1.000  C
  H38      1.0000 0.79800  0.88030  0.92330  Biso   1.000  H
  Cd3      1.0000 0.20762  0.84904  0.05687  Biso   1.000  Cd
  N9       1.0000 0.31110  0.73810  0.20830  Biso   1.000  N
  C33      1.0000 0.06580  0.65190  0.93720  Biso   1.000  C
  H39      1.0000 0.02730  0.67760  0.97520  Biso   1.000  H
  N10      1.0000 0.14510  0.70570  0.93610  Biso   1.000  N
  C34      1.0000 0.54370  0.56450  0.28420  Biso   1.000  C
  H40      1.0000 0.57740  0.61230  0.25270  Biso   1.000  H
  C35      1.0000 0.94350  0.50820  0.89040  Biso   1.000  C
  H41      1.0000 0.88600  0.55690  0.86810  Biso   1.000  H
  C36      1.0000 0.39720  0.69170  0.21060  Biso   1.000  C
  H42      1.0000 0.42390  0.71240  0.15830  Biso   1.000  H
  C37      1.0000 0.03840  0.55920  0.88420  Biso   1.000  C
  C38      1.0000 0.97250  0.47430  0.01660  Biso   1.000  C
  H43      1.0000 0.03140  0.42810  0.04130  Biso   1.000  H
  H44      1.0000 0.99640  0.53110  0.06950  Biso   1.000  H
  C39      1.0000 0.40800  0.58620  0.36630  Biso   1.000  C
  H45      1.0000 0.43870  0.53330  0.41790  Biso   1.000  H
  C40      1.0000 0.19680  0.67130  0.87620  Biso   1.000  C
  H46      1.0000 0.24900  0.71050  0.87060  Biso   1.000  H
  C41      1.0000 0.09460  0.52300  0.82610  Biso   1.000  C
  H47      1.0000 0.07830  0.46110  0.78980  Biso   1.000  H
  C42      1.0000 0.27700  0.71140  0.28820  Biso   1.000  C
  H48      1.0000 0.21960  0.74490  0.28940  Biso   1.000  H
  C43      1.0000 0.44710  0.61440  0.28770  Biso   1.000  C
  N11      1.0000 0.90400  0.42480  0.80360  Biso   1.000  N
  H49      1.0000 0.84880  0.39610  0.80840  Biso   1.000  H
  H50      1.0000 0.88370  0.44790  0.73010  Biso   1.000  H
  H51      1.0000 0.95570  0.38060  0.82050  Biso   1.000  H
  C44      1.0000 0.50850  0.47420  0.20000  Biso   1.000  C
  H52      1.0000 0.45140  0.49430  0.12420  Biso   1.000  H
  H53      1.0000 0.48030  0.42420  0.23400  Biso   1.000  H
  C45      1.0000 0.17510  0.57910  0.82210  Biso   1.000  C
  H54      1.0000 0.21420  0.55540  0.78380  Biso   1.000  H
  C46      1.0000 0.88090  0.42510  0.02960  Biso   1.000  C
  O9       1.0000 0.83360  0.35670  0.95960  Biso   1.000  O
  C47      1.0000 0.59650  0.42810  0.17740  Biso   1.000  C
  O10      1.0000 0.57150  0.34980  0.11480  Biso   1.000  O
  O11      1.0000 0.68410  0.46870  0.21240  Biso   1.000  O
  O12      1.0000 0.85800  0.45080  0.11110  Biso   1.000  O
  N12      1.0000 0.62180  0.53610  0.40460  Biso   1.000  N
  H55      1.0000 0.60940  0.54830  0.46480  Biso   1.000  H
  H56      1.0000 0.67990  0.50720  0.41510  Biso   1.000  H
  C48      1.0000 0.32330  0.63640  0.36840  Biso   1.000  C
  H57      1.0000 0.29800  0.61970  0.42330  Biso   1.000  H
  Cd4      1.0000 0.70762  0.34904  0.05687  Biso   1.000  Cd
  N13      1.0000 0.81110  0.23810  0.20830  Biso   1.000  N
  C49      1.0000 0.56580  0.15190  0.93720  Biso   1.000  C
  H58      1.0000 0.52730  0.17760  0.97520  Biso   1.000  H
  N14      1.0000 0.64510  0.20570  0.93610  Biso   1.000  N
  C50      1.0000 0.04370  0.06450  0.28420  Biso   1.000  C
  H59      1.0000 0.07740  0.11230  0.25270  Biso   1.000  H
  C51      1.0000 0.44350  0.00820  0.89040  Biso   1.000  C
  H60      1.0000 0.38600  0.05690  0.86810  Biso   1.000  H
  C52      1.0000 0.89720  0.19170  0.21060  Biso   1.000  C
  H61      1.0000 0.92390  0.21240  0.15830  Biso   1.000  H
  C53      1.0000 0.53840  0.05920  0.88420  Biso   1.000  C
  C54      1.0000 0.47250  0.97430  0.01660  Biso   1.000  C
  H62      1.0000 0.53140  0.92810  0.04130  Biso   1.000  H
  H63      1.0000 0.49640  0.03110  0.06950  Biso   1.000  H
  C55      1.0000 0.90800  0.08620  0.36630  Biso   1.000  C
  H64      1.0000 0.93870  0.03330  0.41790  Biso   1.000  H
  C56      1.0000 0.69680  0.17130  0.87620  Biso   1.000  C
  H65      1.0000 0.74900  0.21050  0.87060  Biso   1.000  H
  C57      1.0000 0.59460  0.02300  0.82610  Biso   1.000  C
  H66      1.0000 0.57830  0.96110  0.78980  Biso   1.000  H
  C58      1.0000 0.77700  0.21140  0.28820  Biso   1.000  C
  H67      1.0000 0.71960  0.24490  0.28940  Biso   1.000  H
  C59      1.0000 0.94710  0.11440  0.28770  Biso   1.000  C
  N15      1.0000 0.40400  0.92480  0.80360  Biso   1.000  N
  H68      1.0000 0.34880  0.89610  0.80840  Biso   1.000  H
  H69      1.0000 0.38370  0.94790  0.73010  Biso   1.000  H
  H70      1.0000 0.45570  0.88060  0.82050  Biso   1.000  H
  C60      1.0000 0.00850  0.97420  0.20000  Biso   1.000  C
  H71      1.0000 0.95140  0.99430  0.12420  Biso   1.000  H
  H72      1.0000 0.98030  0.92420  0.23400  Biso   1.000  H
  C61      1.0000 0.67510  0.07910  0.82210  Biso   1.000  C
  H73      1.0000 0.71420  0.05540  0.78380  Biso   1.000  H
  C62      1.0000 0.38090  0.92510  0.02960  Biso   1.000  C
  O13      1.0000 0.33360  0.85670  0.95960  Biso   1.000  O
  C63      1.0000 0.09650  0.92810  0.17740  Biso   1.000  C
  O14      1.0000 0.07150  0.84980  0.11480  Biso   1.000  O
  O15      1.0000 0.18410  0.96870  0.21240  Biso   1.000  O
  O16      1.0000 0.35800  0.95080  0.11110  Biso   1.000  O
  N16      1.0000 0.12180  0.03610  0.40460  Biso   1.000  N
  H74      1.0000 0.10940  0.04830  0.46480  Biso   1.000  H
  H75      1.0000 0.17990  0.00720  0.41510  Biso   1.000  H
  C64      1.0000 0.82330  0.13640  0.36840  Biso   1.000  C
  H76      1.0000 0.79800  0.11970  0.42330  Biso   1.000  H
