data_image0
_cell_length_a       12.8688
_cell_length_b       18.0925
_cell_length_c       14.519
_cell_angle_alpha    90
_cell_angle_beta     116.053
_cell_angle_gamma    90

_symmetry_space_group_name_H-M    "P 1"
_symmetry_int_tables_number       1

loop_
  _symmetry_equiv_pos_as_xyz
  'x, y, z'

loop_
  _atom_site_label
  _atom_site_occupancy
  _atom_site_fract_x
  _atom_site_fract_y
  _atom_site_fract_z
  _atom_site_thermal_displace_type
  _atom_site_B_iso_or_equiv
  _atom_site_type_symbol
  Cd1      1.0000 0.10940  0.27123  0.55718  Biso   1.000  Cd
  O1       1.0000 0.12600  0.31981  0.42020  Biso   1.000  O
  O2       1.0000 0.37023  0.63544  0.46204  Biso   1.000  O
  N1       1.0000 0.71660  0.60564  0.33230  Biso   1.000  N
  N2       1.0000 0.69320  0.53577  0.30980  Biso   1.000  N
  O3       1.0000 0.92220  0.26196  0.45800  Biso   1.000  O
  H1       1.0000 0.88090  0.22630  0.45890  Biso   1.000  H
  H2       1.0000 0.87990  0.28920  0.40880  Biso   1.000  H
  N3       1.0000 0.83010  0.61623  0.35980  Biso   1.000  N
  O4       1.0000 0.30140  0.36171  0.45180  Biso   1.000  O
  O5       1.0000 0.51460  0.58350  0.38000  Biso   1.000  O
  H3       1.0000 0.57990  0.59760  0.42140  Biso   1.000  H
  H4       1.0000 0.46560  0.59000  0.40260  Biso   1.000  H
  N4       1.0000 0.78920  0.49871  0.32200  Biso   1.000  N
  C1       1.0000 0.99380  0.53570  0.37510  Biso   1.000  C
  C2       1.0000 0.87170  0.54960  0.35220  Biso   1.000  C
  C3       1.0000 0.15190  0.44940  0.41200  Biso   1.000  C
  C4       1.0000 0.18370  0.58090  0.40730  Biso   1.000  C
  C5       1.0000 0.03650  0.46330  0.38890  Biso   1.000  C
  H5       1.0000 0.98730  0.42390  0.38260  Biso   1.000  H
  C6       1.0000 0.06710  0.59390  0.38240  Biso   1.000  C
  H6       1.0000 0.03860  0.64200  0.37060  Biso   1.000  H
  C7       1.0000 0.26130  0.64510  0.41800  Biso   1.000  C
  C8       1.0000 0.19620  0.37100  0.42910  Biso   1.000  C
  C9       1.0000 0.22520  0.50850  0.42220  Biso   1.000  C
  H7       1.0000 0.30270  0.49970  0.43900  Biso   1.000  H
  O6       1.0000 0.07630  0.23703  0.69392  Biso   1.000  O
  H8       1.0000 0.11580  0.25460  0.75190  Biso   1.000  H
  H9       1.0000 0.05490  0.19450  0.69620  Biso   1.000  H
  O7       1.0000 0.51700  0.40820  0.15670  Biso   1.000  O
  H10      1.0000 0.54960  0.42210  0.11670  Biso   1.000  H
  H11      1.0000 0.44770  0.39030  0.11580  Biso   1.000  H
  O8       1.0000 0.21840  0.70750  0.38553  Biso   1.000  O
  Cd2      1.0000 0.60940  0.77123  0.05718  Biso   1.000  Cd
  O9       1.0000 0.62600  0.81981  0.92020  Biso   1.000  O
  O10      1.0000 0.87023  0.13544  0.96204  Biso   1.000  O
  N5       1.0000 0.21660  0.10564  0.83230  Biso   1.000  N
  N6       1.0000 0.19320  0.03577  0.80980  Biso   1.000  N
  O11      1.0000 0.42220  0.76196  0.95800  Biso   1.000  O
  H12      1.0000 0.38090  0.72630  0.95890  Biso   1.000  H
  H13      1.0000 0.37990  0.78920  0.90880  Biso   1.000  H
  N7       1.0000 0.33010  0.11623  0.85980  Biso   1.000  N
  O12      1.0000 0.80140  0.86171  0.95180  Biso   1.000  O
  O13      1.0000 0.01460  0.08350  0.88000  Biso   1.000  O
  H14      1.0000 0.07990  0.09760  0.92140  Biso   1.000  H
  H15      1.0000 0.96560  0.09000  0.90260  Biso   1.000  H
  N8       1.0000 0.28920  0.99871  0.82200  Biso   1.000  N
  C10      1.0000 0.49380  0.03570  0.87510  Biso   1.000  C
  C11      1.0000 0.37170  0.04960  0.85220  Biso   1.000  C
  C12      1.0000 0.65190  0.94940  0.91200  Biso   1.000  C
  C13      1.0000 0.68370  0.08090  0.90730  Biso   1.000  C
  C14      1.0000 0.53650  0.96330  0.88890  Biso   1.000  C
  H16      1.0000 0.48730  0.92390  0.88260  Biso   1.000  H
  C15      1.0000 0.56710  0.09390  0.88240  Biso   1.000  C
  H17      1.0000 0.53860  0.14200  0.87060  Biso   1.000  H
  C16      1.0000 0.76130  0.14510  0.91800  Biso   1.000  C
  C17      1.0000 0.69620  0.87100  0.92910  Biso   1.000  C
  C18      1.0000 0.72520  0.00850  0.92220  Biso   1.000  C
  H18      1.0000 0.80270  0.99970  0.93900  Biso   1.000  H
  O14      1.0000 0.57630  0.73703  0.19392  Biso   1.000  O
  H19      1.0000 0.61580  0.75460  0.25190  Biso   1.000  H
  H20      1.0000 0.55490  0.69450  0.19620  Biso   1.000  H
  O15      1.0000 0.01700  0.90820  0.65670  Biso   1.000  O
  H21      1.0000 0.04960  0.92210  0.61670  Biso   1.000  H
  H22      1.0000 0.94770  0.89030  0.61580  Biso   1.000  H
  O16      1.0000 0.71840  0.20750  0.88553  Biso   1.000  O
  Cd3      1.0000 0.89060  0.27123  0.94282  Biso   1.000  Cd
  O17      1.0000 0.87400  0.31981  0.07980  Biso   1.000  O
  O18      1.0000 0.62977  0.63544  0.03796  Biso   1.000  O
  N9       1.0000 0.28340  0.60564  0.16770  Biso   1.000  N
  N10      1.0000 0.30680  0.53577  0.19020  Biso   1.000  N
  O19      1.0000 0.07780  0.26196  0.04200  Biso   1.000  O
  H23      1.0000 0.11910  0.22630  0.04110  Biso   1.000  H
  H24      1.0000 0.12010  0.28920  0.09120  Biso   1.000  H
  N11      1.0000 0.16990  0.61623  0.14020  Biso   1.000  N
  O20      1.0000 0.69860  0.36171  0.04820  Biso   1.000  O
  O21      1.0000 0.48540  0.58350  0.12000  Biso   1.000  O
  H25      1.0000 0.42010  0.59760  0.07860  Biso   1.000  H
  H26      1.0000 0.53440  0.59000  0.09740  Biso   1.000  H
  N12      1.0000 0.21080  0.49871  0.17800  Biso   1.000  N
  C19      1.0000 0.00620  0.53570  0.12490  Biso   1.000  C
  C20      1.0000 0.12830  0.54960  0.14780  Biso   1.000  C
  C21      1.0000 0.84810  0.44940  0.08800  Biso   1.000  C
  C22      1.0000 0.81630  0.58090  0.09270  Biso   1.000  C
  C23      1.0000 0.96350  0.46330  0.11110  Biso   1.000  C
  H27      1.0000 0.01270  0.42390  0.11740  Biso   1.000  H
  C24      1.0000 0.93290  0.59390  0.11760  Biso   1.000  C
  H28      1.0000 0.96140  0.64200  0.12940  Biso   1.000  H
  C25      1.0000 0.73870  0.64510  0.08200  Biso   1.000  C
  C26      1.0000 0.80380  0.37100  0.07090  Biso   1.000  C
  C27      1.0000 0.77480  0.50850  0.07780  Biso   1.000  C
  H29      1.0000 0.69730  0.49970  0.06100  Biso   1.000  H
  O22      1.0000 0.92370  0.23703  0.80608  Biso   1.000  O
  H30      1.0000 0.88420  0.25460  0.74810  Biso   1.000  H
  H31      1.0000 0.94510  0.19450  0.80380  Biso   1.000  H
  O23      1.0000 0.48300  0.40820  0.34330  Biso   1.000  O
  H32      1.0000 0.45040  0.42210  0.38330  Biso   1.000  H
  H33      1.0000 0.55230  0.39030  0.38420  Biso   1.000  H
  O24      1.0000 0.78160  0.70750  0.11447  Biso   1.000  O
  Cd4      1.0000 0.39060  0.77123  0.44282  Biso   1.000  Cd
  O25      1.0000 0.37400  0.81981  0.57980  Biso   1.000  O
  O26      1.0000 0.12977  0.13544  0.53796  Biso   1.000  O
  N13      1.0000 0.78340  0.10564  0.66770  Biso   1.000  N
  N14      1.0000 0.80680  0.03577  0.69020  Biso   1.000  N
  O27      1.0000 0.57780  0.76196  0.54200  Biso   1.000  O
  H34      1.0000 0.61910  0.72630  0.54110  Biso   1.000  H
  H35      1.0000 0.62010  0.78920  0.59120  Biso   1.000  H
  N15      1.0000 0.66990  0.11623  0.64020  Biso   1.000  N
  O28      1.0000 0.19860  0.86171  0.54820  Biso   1.000  O
  O29      1.0000 0.98540  0.08350  0.62000  Biso   1.000  O
  H36      1.0000 0.92010  0.09760  0.57860  Biso   1.000  H
  H37      1.0000 0.03440  0.09000  0.59740  Biso   1.000  H
  N16      1.0000 0.71080  0.99871  0.67800  Biso   1.000  N
  C28      1.0000 0.50620  0.03570  0.62490  Biso   1.000  C
  C29      1.0000 0.62830  0.04960  0.64780  Biso   1.000  C
  C30      1.0000 0.34810  0.94940  0.58800  Biso   1.000  C
  C31      1.0000 0.31630  0.08090  0.59270  Biso   1.000  C
  C32      1.0000 0.46350  0.96330  0.61110  Biso   1.000  C
  H38      1.0000 0.51270  0.92390  0.61740  Biso   1.000  H
  C33      1.0000 0.43290  0.09390  0.61760  Biso   1.000  C
  H39      1.0000 0.46140  0.14200  0.62940  Biso   1.000  H
  C34      1.0000 0.23870  0.14510  0.58200  Biso   1.000  C
  C35      1.0000 0.30380  0.87100  0.57090  Biso   1.000  C
  C36      1.0000 0.27480  0.00850  0.57780  Biso   1.000  C
  H40      1.0000 0.19730  0.99970  0.56100  Biso   1.000  H
  O30      1.0000 0.42370  0.73703  0.30608  Biso   1.000  O
  H41      1.0000 0.38420  0.75460  0.24810  Biso   1.000  H
  H42      1.0000 0.44510  0.69450  0.30380  Biso   1.000  H
  O31      1.0000 0.98300  0.90820  0.84330  Biso   1.000  O
  H43      1.0000 0.95040  0.92210  0.88330  Biso   1.000  H
  H44      1.0000 0.05230  0.89030  0.88420  Biso   1.000  H
  O32      1.0000 0.28160  0.20750  0.61447  Biso   1.000  O
  Cd5      1.0000 0.89060  0.72877  0.44282  Biso   1.000  Cd
  O33      1.0000 0.87400  0.68019  0.57980  Biso   1.000  O
  O34      1.0000 0.62977  0.36456  0.53796  Biso   1.000  O
  N17      1.0000 0.28340  0.39436  0.66770  Biso   1.000  N
  N18      1.0000 0.30680  0.46423  0.69020  Biso   1.000  N
  O35      1.0000 0.07780  0.73804  0.54200  Biso   1.000  O
  H45      1.0000 0.11910  0.77370  0.54110  Biso   1.000  H
  H46      1.0000 0.12010  0.71080  0.59120  Biso   1.000  H
  N19      1.0000 0.16990  0.38377  0.64020  Biso   1.000  N
  O36      1.0000 0.69860  0.63829  0.54820  Biso   1.000  O
  O37      1.0000 0.48540  0.41650  0.62000  Biso   1.000  O
  H47      1.0000 0.42010  0.40240  0.57860  Biso   1.000  H
  H48      1.0000 0.53440  0.41000  0.59740  Biso   1.000  H
  N20      1.0000 0.21080  0.50129  0.67800  Biso   1.000  N
  C37      1.0000 0.00620  0.46430  0.62490  Biso   1.000  C
  C38      1.0000 0.12830  0.45040  0.64780  Biso   1.000  C
  C39      1.0000 0.84810  0.55060  0.58800  Biso   1.000  C
  C40      1.0000 0.81630  0.41910  0.59270  Biso   1.000  C
  C41      1.0000 0.96350  0.53670  0.61110  Biso   1.000  C
  H49      1.0000 0.01270  0.57610  0.61740  Biso   1.000  H
  C42      1.0000 0.93290  0.40610  0.61760  Biso   1.000  C
  H50      1.0000 0.96140  0.35800  0.62940  Biso   1.000  H
  C43      1.0000 0.73870  0.35490  0.58200  Biso   1.000  C
  C44      1.0000 0.80380  0.62900  0.57090  Biso   1.000  C
  C45      1.0000 0.77480  0.49150  0.57780  Biso   1.000  C
  H51      1.0000 0.69730  0.50030  0.56100  Biso   1.000  H
  O38      1.0000 0.92370  0.76297  0.30608  Biso   1.000  O
  H52      1.0000 0.88420  0.74540  0.24810  Biso   1.000  H
  H53      1.0000 0.94510  0.80550  0.30380  Biso   1.000  H
  O39      1.0000 0.48300  0.59180  0.84330  Biso   1.000  O
  H54      1.0000 0.45040  0.57790  0.88330  Biso   1.000  H
  H55      1.0000 0.55230  0.60970  0.88420  Biso   1.000  H
  O40      1.0000 0.78160  0.29250  0.61447  Biso   1.000  O
  Cd6      1.0000 0.39060  0.22877  0.94282  Biso   1.000  Cd
  O41      1.0000 0.37400  0.18019  0.07980  Biso   1.000  O
  O42      1.0000 0.12977  0.86456  0.03796  Biso   1.000  O
  N21      1.0000 0.78340  0.89436  0.16770  Biso   1.000  N
  N22      1.0000 0.80680  0.96423  0.19020  Biso   1.000  N
  O43      1.0000 0.57780  0.23804  0.04200  Biso   1.000  O
  H56      1.0000 0.61910  0.27370  0.04110  Biso   1.000  H
  H57      1.0000 0.62010  0.21080  0.09120  Biso   1.000  H
  N23      1.0000 0.66990  0.88377  0.14020  Biso   1.000  N
  O44      1.0000 0.19860  0.13829  0.04820  Biso   1.000  O
  O45      1.0000 0.98540  0.91650  0.12000  Biso   1.000  O
  H58      1.0000 0.92010  0.90240  0.07860  Biso   1.000  H
  H59      1.0000 0.03440  0.91000  0.09740  Biso   1.000  H
  N24      1.0000 0.71080  0.00129  0.17800  Biso   1.000  N
  C46      1.0000 0.50620  0.96430  0.12490  Biso   1.000  C
  C47      1.0000 0.62830  0.95040  0.14780  Biso   1.000  C
  C48      1.0000 0.34810  0.05060  0.08800  Biso   1.000  C
  C49      1.0000 0.31630  0.91910  0.09270  Biso   1.000  C
  C50      1.0000 0.46350  0.03670  0.11110  Biso   1.000  C
  H60      1.0000 0.51270  0.07610  0.11740  Biso   1.000  H
  C51      1.0000 0.43290  0.90610  0.11760  Biso   1.000  C
  H61      1.0000 0.46140  0.85800  0.12940  Biso   1.000  H
  C52      1.0000 0.23870  0.85490  0.08200  Biso   1.000  C
  C53      1.0000 0.30380  0.12900  0.07090  Biso   1.000  C
  C54      1.0000 0.27480  0.99150  0.07780  Biso   1.000  C
  H62      1.0000 0.19730  0.00030  0.06100  Biso   1.000  H
  O46      1.0000 0.42370  0.26297  0.80608  Biso   1.000  O
  H63      1.0000 0.38420  0.24540  0.74810  Biso   1.000  H
  H64      1.0000 0.44510  0.30550  0.80380  Biso   1.000  H
  O47      1.0000 0.98300  0.09180  0.34330  Biso   1.000  O
  H65      1.0000 0.95040  0.07790  0.38330  Biso   1.000  H
  H66      1.0000 0.05230  0.10970  0.38420  Biso   1.000  H
  O48      1.0000 0.28160  0.79250  0.11447  Biso   1.000  O
  Cd7      1.0000 0.10940  0.72877  0.05718  Biso   1.000  Cd
  O49      1.0000 0.12600  0.68019  0.92020  Biso   1.000  O
  O50      1.0000 0.37023  0.36456  0.96204  Biso   1.000  O
  N25      1.0000 0.71660  0.39436  0.83230  Biso   1.000  N
  N26      1.0000 0.69320  0.46423  0.80980  Biso   1.000  N
  O51      1.0000 0.92220  0.73804  0.95800  Biso   1.000  O
  H67      1.0000 0.88090  0.77370  0.95890  Biso   1.000  H
  H68      1.0000 0.87990  0.71080  0.90880  Biso   1.000  H
  N27      1.0000 0.83010  0.38377  0.85980  Biso   1.000  N
  O52      1.0000 0.30140  0.63829  0.95180  Biso   1.000  O
  O53      1.0000 0.51460  0.41650  0.88000  Biso   1.000  O
  H69      1.0000 0.57990  0.40240  0.92140  Biso   1.000  H
  H70      1.0000 0.46560  0.41000  0.90260  Biso   1.000  H
  N28      1.0000 0.78920  0.50129  0.82200  Biso   1.000  N
  C55      1.0000 0.99380  0.46430  0.87510  Biso   1.000  C
  C56      1.0000 0.87170  0.45040  0.85220  Biso   1.000  C
  C57      1.0000 0.15190  0.55060  0.91200  Biso   1.000  C
  C58      1.0000 0.18370  0.41910  0.90730  Biso   1.000  C
  C59      1.0000 0.03650  0.53670  0.88890  Biso   1.000  C
  H71      1.0000 0.98730  0.57610  0.88260  Biso   1.000  H
  C60      1.0000 0.06710  0.40610  0.88240  Biso   1.000  C
  H72      1.0000 0.03860  0.35800  0.87060  Biso   1.000  H
  C61      1.0000 0.26130  0.35490  0.91800  Biso   1.000  C
  C62      1.0000 0.19620  0.62900  0.92910  Biso   1.000  C
  C63      1.0000 0.22520  0.49150  0.92220  Biso   1.000  C
  H73      1.0000 0.30270  0.50030  0.93900  Biso   1.000  H
  O54      1.0000 0.07630  0.76297  0.19392  Biso   1.000  O
  H74      1.0000 0.11580  0.74540  0.25190  Biso   1.000  H
  H75      1.0000 0.05490  0.80550  0.19620  Biso   1.000  H
  O55      1.0000 0.51700  0.59180  0.65670  Biso   1.000  O
  H76      1.0000 0.54960  0.57790  0.61670  Biso   1.000  H
  H77      1.0000 0.44770  0.60970  0.61580  Biso   1.000  H
  O56      1.0000 0.21840  0.29250  0.88553  Biso   1.000  O
  Cd8      1.0000 0.60940  0.22877  0.55718  Biso   1.000  Cd
  O57      1.0000 0.62600  0.18019  0.42020  Biso   1.000  O
  O58      1.0000 0.87023  0.86456  0.46204  Biso   1.000  O
  N29      1.0000 0.21660  0.89436  0.33230  Biso   1.000  N
  N30      1.0000 0.19320  0.96423  0.30980  Biso   1.000  N
  O59      1.0000 0.42220  0.23804  0.45800  Biso   1.000  O
  H78      1.0000 0.38090  0.27370  0.45890  Biso   1.000  H
  H79      1.0000 0.37990  0.21080  0.40880  Biso   1.000  H
  N31      1.0000 0.33010  0.88377  0.35980  Biso   1.000  N
  O60      1.0000 0.80140  0.13829  0.45180  Biso   1.000  O
  O61      1.0000 0.01460  0.91650  0.38000  Biso   1.000  O
  H80      1.0000 0.07990  0.90240  0.42140  Biso   1.000  H
  H81      1.0000 0.96560  0.91000  0.40260  Biso   1.000  H
  N32      1.0000 0.28920  0.00129  0.32200  Biso   1.000  N
  C64      1.0000 0.49380  0.96430  0.37510  Biso   1.000  C
  C65      1.0000 0.37170  0.95040  0.35220  Biso   1.000  C
  C66      1.0000 0.65190  0.05060  0.41200  Biso   1.000  C
  C67      1.0000 0.68370  0.91910  0.40730  Biso   1.000  C
  C68      1.0000 0.53650  0.03670  0.38890  Biso   1.000  C
  H82      1.0000 0.48730  0.07610  0.38260  Biso   1.000  H
  C69      1.0000 0.56710  0.90610  0.38240  Biso   1.000  C
  H83      1.0000 0.53860  0.85800  0.37060  Biso   1.000  H
  C70      1.0000 0.76130  0.85490  0.41800  Biso   1.000  C
  C71      1.0000 0.69620  0.12900  0.42910  Biso   1.000  C
  C72      1.0000 0.72520  0.99150  0.42220  Biso   1.000  C
  H84      1.0000 0.80270  0.00030  0.43900  Biso   1.000  H
  O62      1.0000 0.57630  0.26297  0.69392  Biso   1.000  O
  H85      1.0000 0.61580  0.24540  0.75190  Biso   1.000  H
  H86      1.0000 0.55490  0.30550  0.69620  Biso   1.000  H
  O63      1.0000 0.01700  0.09180  0.15670  Biso   1.000  O
  H87      1.0000 0.04960  0.07790  0.11670  Biso   1.000  H
  H88      1.0000 0.94770  0.10970  0.11580  Biso   1.000  H
  O64      1.0000 0.71840  0.79250  0.38553  Biso   1.000  O
  Cd9      1.0000 0.50000  0.50328  0.25000  Biso   1.000  Cd
  Cd10     1.0000 0.00000  0.00328  0.75000  Biso   1.000  Cd
  Cd11     1.0000 0.50000  0.49672  0.75000  Biso   1.000  Cd
  Cd12     1.0000 0.00000  0.99672  0.25000  Biso   1.000  Cd
