data_image0
_cell_length_a       10.944
_cell_length_b       11.129
_cell_length_c       15.998
_cell_angle_alpha    75.57
_cell_angle_beta     82.96
_cell_angle_gamma    75.56

_symmetry_space_group_name_H-M    "P 1"
_symmetry_int_tables_number       1

loop_
  _symmetry_equiv_pos_as_xyz
  'x, y, z'

loop_
  _atom_site_label
  _atom_site_occupancy
  _atom_site_fract_x
  _atom_site_fract_y
  _atom_site_fract_z
  _atom_site_thermal_displace_type
  _atom_site_B_iso_or_equiv
  _atom_site_type_symbol
  O1       1.0000 0.35960  0.28660  0.72700  Biso   1.000  O
  O2       1.0000 0.57390  0.99600  0.24350  Biso   1.000  O
  O3       1.0000 0.97950  0.07370  0.08450  Biso   1.000  O
  O4       1.0000 0.14750  0.06970  0.99230  Biso   1.000  O
  C1       1.0000 0.09350  0.07460  0.06520  Biso   1.000  C
  O5       1.0000 0.22640  0.20200  0.82620  Biso   1.000  O
  O6       1.0000 0.57140  0.02000  0.10370  Biso   1.000  O
  C2       1.0000 0.51440  0.02330  0.17480  Biso   1.000  C
  C3       1.0000 0.37400  0.06250  0.18310  Biso   1.000  C
  C4       1.0000 0.30260  0.05980  0.11920  Biso   1.000  C
  H1       1.0000 0.34080  0.04260  0.06700  Biso   1.000  H
  C5       1.0000 0.27720  0.29090  0.78740  Biso   1.000  C
  C6       1.0000 0.23510  0.41410  0.81650  Biso   1.000  C
  C7       1.0000 0.27770  0.52190  0.77240  Biso   1.000  C
  H2       1.0000 0.33270  0.51840  0.72340  Biso   1.000  H
  O7       1.0000 0.61080  0.11740  0.54180  Biso   1.000  O
  O8       1.0000 0.62020  0.18320  0.65820  Biso   1.000  O
  C8       1.0000 0.67070  0.15710  0.58960  Biso   1.000  C
  C9       1.0000 0.80410  0.16290  0.56370  Biso   1.000  C
  C10      1.0000 0.85070  0.16390  0.47980  Biso   1.000  C
  H3       1.0000 0.79710  0.16690  0.43810  Biso   1.000  H
  Eu1      1.0000 0.41255  0.16000  0.62672  Biso   1.000  Eu
  Eu2      1.0000 0.20768  0.99481  0.86643  Biso   1.000  Eu
  O9       1.0000 0.06830  0.09520  0.74930  Biso   1.000  O
  O10      1.0000 0.36170  0.19440  0.47560  Biso   1.000  O
  H4       1.0000 0.37510  0.12290  0.46190  Biso   1.000  H
  H5       1.0000 0.28440  0.23210  0.47020  Biso   1.000  H
  O11      1.0000 0.41710  0.37510  0.55460  Biso   1.000  O
  H6       1.0000 0.44020  0.37850  0.50150  Biso   1.000  H
  H7       1.0000 0.34360  0.42250  0.55890  Biso   1.000  H
  O12      1.0000 0.24480  0.84720  0.78430  Biso   1.000  O
  N1       1.0000 0.01980  0.15440  0.36980  Biso   1.000  N
  O13      1.0000 0.42000  0.95580  0.59840  Biso   1.000  O
  H8       1.0000 0.43380  0.89850  0.64470  Biso   1.000  H
  H9       1.0000 0.34980  0.95690  0.58030  Biso   1.000  H
  O14      1.0000 0.35790  0.74600  0.68990  Biso   1.000  O
  C11      1.0000 0.28530  0.74760  0.75530  Biso   1.000  C
  O15      1.0000 0.27910  0.80480  0.97220  Biso   1.000  O
  N2       1.0000 0.13640  0.13900  0.35580  Biso   1.000  N
  C12      1.0000 0.15630  0.63780  0.87340  Biso   1.000  C
  H10      1.0000 0.13020  0.71230  0.89360  Biso   1.000  H
  C13      1.0000 0.24040  0.63200  0.79980  Biso   1.000  C
  C14      1.0000 0.01030  0.15530  0.60380  Biso   1.000  C
  O16      1.0000 0.20340  0.16610  0.64680  Biso   1.000  O
  C15      1.0000 0.18280  0.12190  0.27130  Biso   1.000  C
  N3       1.0000 0.02680  0.54540  0.98550  Biso   1.000  N
  C16      1.0000 0.11350  0.11070  0.20840  Biso   1.000  C
  H11      1.0000 0.02620  0.12220  0.21760  Biso   1.000  H
  C17      1.0000 0.05960  0.15800  0.52110  Biso   1.000  C
  H12      1.0000 0.14450  0.15830  0.50640  Biso   1.000  H
  C18      1.0000 0.10020  0.13890  0.67270  Biso   1.000  C
  C19      1.0000 0.88250  0.15940  0.62480  Biso   1.000  C
  H13      1.0000 0.84990  0.15970  0.68130  Biso   1.000  H
  C20      1.0000 0.15370  0.41680  0.88790  Biso   1.000  C
  H14      1.0000 0.12590  0.34440  0.91770  Biso   1.000  H
  C21      1.0000 0.97760  0.16030  0.45760  Biso   1.000  C
  C22      1.0000 0.17040  0.08360  0.13440  Biso   1.000  C
  C23      1.0000 0.31450  0.09600  0.25990  Biso   1.000  C
  H15      1.0000 0.36250  0.10070  0.30260  Biso   1.000  H
  C24      1.0000 0.11350  0.52930  0.91510  Biso   1.000  C
  C25      1.0000 0.14710  0.76190  0.10590  Biso   1.000  C
  H16      1.0000 0.09580  0.84710  0.09720  Biso   1.000  H
  H17      1.0000 0.16010  0.72870  0.16640  Biso   1.000  H
  H18      1.0000 0.10520  0.70910  0.08590  Biso   1.000  H
  N4       1.0000 0.37510  0.72030  0.09900  Biso   1.000  N
  C26      1.0000 0.27240  0.76330  0.05620  Biso   1.000  C
  C27      1.0000 0.49910  0.72960  0.04970  Biso   1.000  C
  H19      1.0000 0.51220  0.68240  0.00540  Biso   1.000  H
  H20      1.0000 0.56610  0.69500  0.08840  Biso   1.000  H
  H21      1.0000 0.49850  0.81730  0.02370  Biso   1.000  H
  C28      1.0000 0.36940  0.70080  0.18820  Biso   1.000  C
  H22      1.0000 0.33160  0.77990  0.20460  Biso   1.000  H
  H23      1.0000 0.45330  0.66930  0.20800  Biso   1.000  H
  H24      1.0000 0.31930  0.63970  0.21380  Biso   1.000  H
  O17      1.0000 0.64040  0.71340  0.27300  Biso   1.000  O
  O18      1.0000 0.42610  0.00400  0.75650  Biso   1.000  O
  O19      1.0000 0.02050  0.92630  0.91550  Biso   1.000  O
  O20      1.0000 0.85250  0.93030  0.00770  Biso   1.000  O
  C29      1.0000 0.90650  0.92540  0.93480  Biso   1.000  C
  O21      1.0000 0.77360  0.79800  0.17380  Biso   1.000  O
  O22      1.0000 0.42860  0.98000  0.89630  Biso   1.000  O
  C30      1.0000 0.48560  0.97670  0.82520  Biso   1.000  C
  C31      1.0000 0.62600  0.93750  0.81690  Biso   1.000  C
  C32      1.0000 0.69740  0.94020  0.88080  Biso   1.000  C
  H25      1.0000 0.65920  0.95740  0.93300  Biso   1.000  H
  C33      1.0000 0.72280  0.70910  0.21260  Biso   1.000  C
  C34      1.0000 0.76490  0.58590  0.18350  Biso   1.000  C
  C35      1.0000 0.72230  0.47810  0.22760  Biso   1.000  C
  H26      1.0000 0.66730  0.48160  0.27660  Biso   1.000  H
  O23      1.0000 0.38920  0.88260  0.45820  Biso   1.000  O
  O24      1.0000 0.37980  0.81680  0.34180  Biso   1.000  O
  C36      1.0000 0.32930  0.84290  0.41040  Biso   1.000  C
  C37      1.0000 0.19590  0.83710  0.43630  Biso   1.000  C
  C38      1.0000 0.14930  0.83610  0.52020  Biso   1.000  C
  H27      1.0000 0.20290  0.83310  0.56190  Biso   1.000  H
  Eu3      1.0000 0.58745  0.84000  0.37328  Biso   1.000  Eu
  Eu4      1.0000 0.79232  0.00519  0.13357  Biso   1.000  Eu
  O25      1.0000 0.93170  0.90480  0.25070  Biso   1.000  O
  O26      1.0000 0.63830  0.80560  0.52440  Biso   1.000  O
  H28      1.0000 0.62490  0.87710  0.53810  Biso   1.000  H
  H29      1.0000 0.71560  0.76790  0.52980  Biso   1.000  H
  O27      1.0000 0.58290  0.62490  0.44540  Biso   1.000  O
  H30      1.0000 0.55980  0.62150  0.49850  Biso   1.000  H
  H31      1.0000 0.65640  0.57750  0.44110  Biso   1.000  H
  O28      1.0000 0.75520  0.15280  0.21570  Biso   1.000  O
  N5       1.0000 0.98020  0.84560  0.63020  Biso   1.000  N
  O29      1.0000 0.58000  0.04420  0.40160  Biso   1.000  O
  H32      1.0000 0.56620  0.10150  0.35530  Biso   1.000  H
  H33      1.0000 0.65020  0.04310  0.41970  Biso   1.000  H
  O30      1.0000 0.64210  0.25400  0.31010  Biso   1.000  O
  C39      1.0000 0.71470  0.25240  0.24470  Biso   1.000  C
  O31      1.0000 0.72090  0.19520  0.02780  Biso   1.000  O
  N6       1.0000 0.86360  0.86100  0.64420  Biso   1.000  N
  C40      1.0000 0.84370  0.36220  0.12660  Biso   1.000  C
  H34      1.0000 0.86980  0.28770  0.10640  Biso   1.000  H
  C41      1.0000 0.75960  0.36800  0.20020  Biso   1.000  C
  C42      1.0000 0.98970  0.84470  0.39620  Biso   1.000  C
  O32      1.0000 0.79660  0.83390  0.35320  Biso   1.000  O
  C43      1.0000 0.81720  0.87810  0.72870  Biso   1.000  C
  N7       1.0000 0.97320  0.45460  0.01450  Biso   1.000  N
  C44      1.0000 0.88650  0.88930  0.79160  Biso   1.000  C
  H35      1.0000 0.97380  0.87780  0.78240  Biso   1.000  H
  C45      1.0000 0.94040  0.84200  0.47890  Biso   1.000  C
  H36      1.0000 0.85550  0.84170  0.49360  Biso   1.000  H
  C46      1.0000 0.89980  0.86110  0.32730  Biso   1.000  C
  C47      1.0000 0.11750  0.84060  0.37520  Biso   1.000  C
  H37      1.0000 0.15010  0.84030  0.31870  Biso   1.000  H
  C48      1.0000 0.84630  0.58320  0.11210  Biso   1.000  C
  H38      1.0000 0.87410  0.65560  0.08230  Biso   1.000  H
  C49      1.0000 0.02240  0.83970  0.54240  Biso   1.000  C
  C50      1.0000 0.82960  0.91640  0.86560  Biso   1.000  C
  C51      1.0000 0.68550  0.90400  0.74010  Biso   1.000  C
  H39      1.0000 0.63750  0.89930  0.69740  Biso   1.000  H
  C52      1.0000 0.88650  0.47070  0.08490  Biso   1.000  C
  C53      1.0000 0.85290  0.23810  0.89410  Biso   1.000  C
  H40      1.0000 0.90420  0.15290  0.90280  Biso   1.000  H
  H41      1.0000 0.83990  0.27130  0.83360  Biso   1.000  H
  H42      1.0000 0.89480  0.29090  0.91410  Biso   1.000  H
  N8       1.0000 0.62490  0.27970  0.90100  Biso   1.000  N
  C54      1.0000 0.72760  0.23670  0.94380  Biso   1.000  C
  C55      1.0000 0.50090  0.27040  0.95030  Biso   1.000  C
  H43      1.0000 0.48780  0.31760  0.99460  Biso   1.000  H
  H44      1.0000 0.43390  0.30500  0.91160  Biso   1.000  H
  H45      1.0000 0.50150  0.18270  0.97630  Biso   1.000  H
  C56      1.0000 0.63060  0.29920  0.81180  Biso   1.000  C
  H46      1.0000 0.66840  0.22010  0.79540  Biso   1.000  H
  H47      1.0000 0.54670  0.33070  0.79200  Biso   1.000  H
  H48      1.0000 0.68070  0.36030  0.78620  Biso   1.000  H
