data_image0
_cell_length_a       11.6976
_cell_length_b       10.2455
_cell_length_c       15.1724
_cell_angle_alpha    90
_cell_angle_beta     91.621
_cell_angle_gamma    90

_symmetry_space_group_name_H-M    "P 1"
_symmetry_int_tables_number       1

loop_
  _symmetry_equiv_pos_as_xyz
  'x, y, z'

loop_
  _atom_site_label
  _atom_site_occupancy
  _atom_site_fract_x
  _atom_site_fract_y
  _atom_site_fract_z
  _atom_site_thermal_displace_type
  _atom_site_B_iso_or_equiv
  _atom_site_type_symbol
  Mn1      1.0000 0.75606  0.42390  0.13133  Biso   1.000  Mn
  Mn2      1.0000 0.73955  0.61325  0.30894  Biso   1.000  Mn
  O1       1.0000 0.68624  0.52930  0.02062  Biso   1.000  O
  O2       1.0000 0.84470  0.59570  0.95743  Biso   1.000  O
  O3       1.0000 0.47750  0.70770  0.99252  Biso   1.000  O
  O4       1.0000 0.34360  0.75470  0.89034  Biso   1.000  O
  O5       1.0000 0.62650  0.51280  0.21479  Biso   1.000  O
  O6       1.0000 0.46220  0.50740  0.13880  Biso   1.000  O
  O7       1.0000 0.80780  0.44060  0.36515  Biso   1.000  O
  O8       1.0000 0.80340  0.30570  0.25008  Biso   1.000  O
  O9       1.0000 0.00280  0.62430  0.11486  Biso   1.000  O
  O10      1.0000 0.85003  0.58460  0.19392  Biso   1.000  O
  O11      1.0000 0.59556  0.84480  0.43272  Biso   1.000  O
  O12      1.0000 0.60000  0.63480  0.39525  Biso   1.000  O
  C1       1.0000 0.74120  0.59570  0.96550  Biso   1.000  C
  H1       1.0000 0.69870  0.64940  0.92760  Biso   1.000  H
  C2       1.0000 0.42320  0.78460  0.94470  Biso   1.000  C
  H2       1.0000 0.44260  0.87240  0.94910  Biso   1.000  H
  C3       1.0000 0.51920  0.52230  0.20590  Biso   1.000  C
  H3       1.0000 0.47960  0.54310  0.25630  Biso   1.000  H
  C4       1.0000 0.82220  0.33270  0.33050  Biso   1.000  C
  H4       1.0000 0.84920  0.26560  0.36670  Biso   1.000  H
  C5       1.0000 0.94100  0.64420  0.17660  Biso   1.000  C
  H5       1.0000 0.96330  0.71060  0.21520  Biso   1.000  H
  C6       1.0000 0.55860  0.72970  0.43310  Biso   1.000  C
  H6       1.0000 0.49330  0.71430  0.46520  Biso   1.000  H
  Mn3      1.0000 0.74394  0.92390  0.36867  Biso   1.000  Mn
  Mn4      1.0000 0.76045  0.11325  0.19106  Biso   1.000  Mn
  O13      1.0000 0.81376  0.02930  0.47938  Biso   1.000  O
  O14      1.0000 0.65530  0.09570  0.54257  Biso   1.000  O
  O15      1.0000 0.02250  0.20770  0.50748  Biso   1.000  O
  O16      1.0000 0.15640  0.25470  0.60966  Biso   1.000  O
  O17      1.0000 0.87350  0.01280  0.28521  Biso   1.000  O
  O18      1.0000 0.03780  0.00740  0.36120  Biso   1.000  O
  O19      1.0000 0.69220  0.94060  0.13485  Biso   1.000  O
  O20      1.0000 0.69660  0.80570  0.24992  Biso   1.000  O
  O21      1.0000 0.49720  0.12430  0.38514  Biso   1.000  O
  O22      1.0000 0.64997  0.08460  0.30608  Biso   1.000  O
  O23      1.0000 0.90444  0.34480  0.06728  Biso   1.000  O
  O24      1.0000 0.90000  0.13480  0.10475  Biso   1.000  O
  C7       1.0000 0.75880  0.09570  0.53450  Biso   1.000  C
  H7       1.0000 0.80130  0.14940  0.57240  Biso   1.000  H
  C8       1.0000 0.07680  0.28460  0.55530  Biso   1.000  C
  H8       1.0000 0.05740  0.37240  0.55090  Biso   1.000  H
  C9       1.0000 0.98080  0.02230  0.29410  Biso   1.000  C
  H9       1.0000 0.02040  0.04310  0.24370  Biso   1.000  H
  C10      1.0000 0.67780  0.83270  0.16950  Biso   1.000  C
  H10      1.0000 0.65080  0.76560  0.13330  Biso   1.000  H
  C11      1.0000 0.55900  0.14420  0.32340  Biso   1.000  C
  H11      1.0000 0.53670  0.21060  0.28480  Biso   1.000  H
  C12      1.0000 0.94140  0.22970  0.06690  Biso   1.000  C
  H12      1.0000 0.00670  0.21430  0.03480  Biso   1.000  H
  Mn5      1.0000 0.24394  0.57610  0.86867  Biso   1.000  Mn
  Mn6      1.0000 0.26045  0.38675  0.69106  Biso   1.000  Mn
  O25      1.0000 0.31376  0.47070  0.97938  Biso   1.000  O
  O26      1.0000 0.15530  0.40430  0.04257  Biso   1.000  O
  O27      1.0000 0.52250  0.29230  0.00748  Biso   1.000  O
  O28      1.0000 0.65640  0.24530  0.10966  Biso   1.000  O
  O29      1.0000 0.37350  0.48720  0.78521  Biso   1.000  O
  O30      1.0000 0.53780  0.49260  0.86120  Biso   1.000  O
  O31      1.0000 0.19220  0.55940  0.63485  Biso   1.000  O
  O32      1.0000 0.19660  0.69430  0.74992  Biso   1.000  O
  O33      1.0000 0.99720  0.37570  0.88514  Biso   1.000  O
  O34      1.0000 0.14997  0.41540  0.80608  Biso   1.000  O
  O35      1.0000 0.40444  0.15520  0.56728  Biso   1.000  O
  O36      1.0000 0.40000  0.36520  0.60475  Biso   1.000  O
  C13      1.0000 0.25880  0.40430  0.03450  Biso   1.000  C
  H13      1.0000 0.30130  0.35060  0.07240  Biso   1.000  H
  C14      1.0000 0.57680  0.21540  0.05530  Biso   1.000  C
  H14      1.0000 0.55740  0.12760  0.05090  Biso   1.000  H
  C15      1.0000 0.48080  0.47770  0.79410  Biso   1.000  C
  H15      1.0000 0.52040  0.45690  0.74370  Biso   1.000  H
  C16      1.0000 0.17780  0.66730  0.66950  Biso   1.000  C
  H16      1.0000 0.15080  0.73440  0.63330  Biso   1.000  H
  C17      1.0000 0.05900  0.35580  0.82340  Biso   1.000  C
  H17      1.0000 0.03670  0.28940  0.78480  Biso   1.000  H
  C18      1.0000 0.44140  0.27030  0.56690  Biso   1.000  C
  H18      1.0000 0.50670  0.28570  0.53480  Biso   1.000  H
  Mn7      1.0000 0.25606  0.07610  0.63133  Biso   1.000  Mn
  Mn8      1.0000 0.23955  0.88675  0.80894  Biso   1.000  Mn
  O37      1.0000 0.18624  0.97070  0.52062  Biso   1.000  O
  O38      1.0000 0.34470  0.90430  0.45743  Biso   1.000  O
  O39      1.0000 0.97750  0.79230  0.49252  Biso   1.000  O
  O40      1.0000 0.84360  0.74530  0.39034  Biso   1.000  O
  O41      1.0000 0.12650  0.98720  0.71479  Biso   1.000  O
  O42      1.0000 0.96220  0.99260  0.63880  Biso   1.000  O
  O43      1.0000 0.30780  0.05940  0.86515  Biso   1.000  O
  O44      1.0000 0.30340  0.19430  0.75008  Biso   1.000  O
  O45      1.0000 0.50280  0.87570  0.61486  Biso   1.000  O
  O46      1.0000 0.35003  0.91540  0.69392  Biso   1.000  O
  O47      1.0000 0.09556  0.65520  0.93272  Biso   1.000  O
  O48      1.0000 0.10000  0.86520  0.89525  Biso   1.000  O
  C19      1.0000 0.24120  0.90430  0.46550  Biso   1.000  C
  H19      1.0000 0.19870  0.85060  0.42760  Biso   1.000  H
  C20      1.0000 0.92320  0.71540  0.44470  Biso   1.000  C
  H20      1.0000 0.94260  0.62760  0.44910  Biso   1.000  H
  C21      1.0000 0.01920  0.97770  0.70590  Biso   1.000  C
  H21      1.0000 0.97960  0.95690  0.75630  Biso   1.000  H
  C22      1.0000 0.32220  0.16730  0.83050  Biso   1.000  C
  H22      1.0000 0.34920  0.23440  0.86670  Biso   1.000  H
  C23      1.0000 0.44100  0.85580  0.67660  Biso   1.000  C
  H23      1.0000 0.46330  0.78940  0.71520  Biso   1.000  H
  C24      1.0000 0.05860  0.77030  0.93310  Biso   1.000  C
  H24      1.0000 0.99330  0.78570  0.96520  Biso   1.000  H
  Mn9      1.0000 0.50000  0.50000  0.00000  Biso   1.000  Mn
  Mn10     1.0000 0.00000  0.00000  0.50000  Biso   1.000  Mn
  Mn11     1.0000 0.00000  0.50000  0.00000  Biso   1.000  Mn
  Mn12     1.0000 0.50000  0.00000  0.50000  Biso   1.000  Mn
