data_image0
_cell_length_a       10.005
_cell_length_b       11.519
_cell_length_c       14.961
_cell_angle_alpha    91.2285
_cell_angle_beta     90
_cell_angle_gamma    90

_symmetry_space_group_name_H-M    P 1
_symmetry_int_tables_number       1

loop_
  _symmetry_equiv_pos_as_xyz
  'x, y, z'

loop_
  _atom_site_label
  _atom_site_occupancy
  _atom_site_fract_x
  _atom_site_fract_y
  _atom_site_fract_z
  _atom_site_thermal_displace_type
  _atom_site_B_iso_or_equiv
  _atom_site_type_symbol
  Mn1      1.0000 0.91411  0.75624  0.13161  Biso   1.000  Mn
  Mn2      1.0000 0.09713  0.73582  0.31485  Biso   1.000  Mn
  Mn3      1.0000 0.41411  0.74376  0.36839  Biso   1.000  Mn
  Mn4      1.0000 0.59713  0.76418  0.18515  Biso   1.000  Mn
  Mn5      1.0000 0.08589  0.24376  0.86839  Biso   1.000  Mn
  Mn6      1.0000 0.90287  0.26418  0.68515  Biso   1.000  Mn
  Mn7      1.0000 0.58589  0.25624  0.63161  Biso   1.000  Mn
  Mn8      1.0000 0.40287  0.23582  0.81485  Biso   1.000  Mn
  Mn9      1.0000 0.00000  0.50000  0.00000  Biso   1.000  Mn
  Mn10     1.0000 0.50000  0.00000  0.50000  Biso   1.000  Mn
  Mn11     1.0000 0.00000  0.00000  0.00000  Biso   1.000  Mn
  Mn12     1.0000 0.50000  0.50000  0.50000  Biso   1.000  Mn
  H1       1.0000 0.74600  0.86800  0.36400  Biso   1.000  H
  H2       1.0000 0.02600  0.47150  0.26450  Biso   1.000  H
  H3       1.0000 0.61100  0.55170  0.04570  Biso   1.000  H
  H4       1.0000 0.19500  0.97300  0.23100  Biso   1.000  H
  H5       1.0000 0.16300  0.69700  0.93500  Biso   1.000  H
  H6       1.0000 0.70100  0.99050  0.00450  Biso   1.000  H
  H7       1.0000 0.24600  0.63200  0.13600  Biso   1.000  H
  H8       1.0000 0.52600  0.02850  0.23550  Biso   1.000  H
  H9       1.0000 0.11100  0.94830  0.45430  Biso   1.000  H
  H10      1.0000 0.69500  0.52700  0.26900  Biso   1.000  H
  H11      1.0000 0.66300  0.80300  0.56500  Biso   1.000  H
  H12      1.0000 0.20100  0.50950  0.49550  Biso   1.000  H
  H13      1.0000 0.25400  0.13200  0.63600  Biso   1.000  H
  H14      1.0000 0.97400  0.52850  0.73550  Biso   1.000  H
  H15      1.0000 0.38900  0.44830  0.95430  Biso   1.000  H
  H16      1.0000 0.80500  0.02700  0.76900  Biso   1.000  H
  H17      1.0000 0.83700  0.30300  0.06500  Biso   1.000  H
  H18      1.0000 0.29900  0.00950  0.99550  Biso   1.000  H
  H19      1.0000 0.75400  0.36800  0.86400  Biso   1.000  H
  H20      1.0000 0.47400  0.97150  0.76450  Biso   1.000  H
  H21      1.0000 0.88900  0.05170  0.54570  Biso   1.000  H
  H22      1.0000 0.30500  0.47300  0.73100  Biso   1.000  H
  H23      1.0000 0.33700  0.19700  0.43500  Biso   1.000  H
  H24      1.0000 0.79900  0.49050  0.50450  Biso   1.000  H
  C1       1.0000 0.81690  0.83620  0.32820  Biso   1.000  C
  C2       1.0000 0.00790  0.51286  0.21116  Biso   1.000  C
  C3       1.0000 0.70550  0.57332  0.05232  Biso   1.000  C
  C4       1.0000 0.12840  0.94929  0.18659  Biso   1.000  C
  C5       1.0000 0.10810  0.74222  0.97112  Biso   1.000  C
  C6       1.0000 0.71440  0.93212  0.04842  Biso   1.000  C
  C7       1.0000 0.31690  0.66380  0.17180  Biso   1.000  C
  C8       1.0000 0.50790  0.98714  0.28884  Biso   1.000  C
  C9       1.0000 0.20550  0.92668  0.44768  Biso   1.000  C
  C10      1.0000 0.62840  0.55071  0.31341  Biso   1.000  C
  C11      1.0000 0.60810  0.75778  0.52888  Biso   1.000  C
  C12      1.0000 0.21440  0.56788  0.45158  Biso   1.000  C
  C13      1.0000 0.18310  0.16380  0.67180  Biso   1.000  C
  C14      1.0000 0.99210  0.48714  0.78884  Biso   1.000  C
  C15      1.0000 0.29450  0.42668  0.94768  Biso   1.000  C
  C16      1.0000 0.87160  0.05071  0.81341  Biso   1.000  C
  C17      1.0000 0.89190  0.25778  0.02888  Biso   1.000  C
  C18      1.0000 0.28560  0.06788  0.95158  Biso   1.000  C
  C19      1.0000 0.68310  0.33620  0.82820  Biso   1.000  C
  C20      1.0000 0.49210  0.01286  0.71116  Biso   1.000  C
  C21      1.0000 0.79450  0.07332  0.55232  Biso   1.000  C
  C22      1.0000 0.37160  0.44929  0.68659  Biso   1.000  C
  C23      1.0000 0.39190  0.24222  0.47112  Biso   1.000  C
  C24      1.0000 0.78560  0.43212  0.54842  Biso   1.000  C
  O1       1.0000 0.79148  0.81348  0.24635  Biso   1.000  O
  O2       1.0000 0.92286  0.81581  0.36771  Biso   1.000  O
  O3       1.0000 0.99500  0.62283  0.21985  Biso   1.000  O
  O4       1.0000 0.00206  0.45674  0.14044  Biso   1.000  O
  O5       1.0000 0.73392  0.65254  0.10953  Biso   1.000  O
  O6       1.0000 0.78527  0.51754  0.00554  Biso   1.000  O
  O7       1.0000 0.07764  0.84888  0.19695  Biso   1.000  O
  O8       1.0000 0.10551  0.01572  0.12572  Biso   1.000  O
  O9       1.0000 0.03015  0.68649  0.02251  Biso   1.000  O
  O10      1.0000 0.11568  0.84818  0.96548  Biso   1.000  O
  O11      1.0000 0.83505  0.89960  0.05777  Biso   1.000  O
  O12      1.0000 0.61635  0.89664  0.09015  Biso   1.000  O
  O13      1.0000 0.29148  0.68652  0.25365  Biso   1.000  O
  O14      1.0000 0.42286  0.68419  0.13229  Biso   1.000  O
  O15      1.0000 0.49500  0.87717  0.28015  Biso   1.000  O
  O16      1.0000 0.50206  0.04326  0.35956  Biso   1.000  O
  O17      1.0000 0.23392  0.84746  0.39047  Biso   1.000  O
  O18      1.0000 0.28527  0.98246  0.49446  Biso   1.000  O
  O19      1.0000 0.57764  0.65112  0.30305  Biso   1.000  O
  O20      1.0000 0.60551  0.48428  0.37428  Biso   1.000  O
  O21      1.0000 0.53015  0.81351  0.47749  Biso   1.000  O
  O22      1.0000 0.61568  0.65182  0.53452  Biso   1.000  O
  O23      1.0000 0.33505  0.60040  0.44223  Biso   1.000  O
  O24      1.0000 0.11635  0.60336  0.40985  Biso   1.000  O
  O25      1.0000 0.20852  0.18652  0.75365  Biso   1.000  O
  O26      1.0000 0.07714  0.18419  0.63229  Biso   1.000  O
  O27      1.0000 0.00500  0.37717  0.78015  Biso   1.000  O
  O28      1.0000 0.99794  0.54326  0.85956  Biso   1.000  O
  O29      1.0000 0.26608  0.34746  0.89047  Biso   1.000  O
  O30      1.0000 0.21473  0.48246  0.99446  Biso   1.000  O
  O31      1.0000 0.92236  0.15112  0.80305  Biso   1.000  O
  O32      1.0000 0.89449  0.98428  0.87428  Biso   1.000  O
  O33      1.0000 0.96985  0.31351  0.97749  Biso   1.000  O
  O34      1.0000 0.88432  0.15182  0.03452  Biso   1.000  O
  O35      1.0000 0.16495  0.10040  0.94223  Biso   1.000  O
  O36      1.0000 0.38365  0.10336  0.90985  Biso   1.000  O
  O37      1.0000 0.70852  0.31348  0.74635  Biso   1.000  O
  O38      1.0000 0.57714  0.31581  0.86771  Biso   1.000  O
  O39      1.0000 0.50500  0.12283  0.71985  Biso   1.000  O
  O40      1.0000 0.49794  0.95674  0.64044  Biso   1.000  O
  O41      1.0000 0.76608  0.15254  0.60953  Biso   1.000  O
  O42      1.0000 0.71473  0.01754  0.50554  Biso   1.000  O
  O43      1.0000 0.42236  0.34888  0.69695  Biso   1.000  O
  O44      1.0000 0.39449  0.51572  0.62572  Biso   1.000  O
  O45      1.0000 0.46985  0.18649  0.52251  Biso   1.000  O
  O46      1.0000 0.38432  0.34818  0.46548  Biso   1.000  O
  O47      1.0000 0.66495  0.39960  0.55777  Biso   1.000  O
  O48      1.0000 0.88365  0.39664  0.59015  Biso   1.000  O
