data_image0
_cell_length_a       10.25
_cell_length_b       11.683
_cell_length_c       15.154
_cell_angle_alpha    91.86
_cell_angle_beta     90
_cell_angle_gamma    90

_symmetry_space_group_name_H-M    P 1
_symmetry_int_tables_number       1

loop_
  _symmetry_equiv_pos_as_xyz
  'x, y, z'

loop_
  _atom_site_label
  _atom_site_occupancy
  _atom_site_fract_x
  _atom_site_fract_y
  _atom_site_fract_z
  _atom_site_thermal_displace_type
  _atom_site_B_iso_or_equiv
  _atom_site_type_symbol
  Mn1      1.0000 0.92343  0.24391  0.86866  Biso   1.000  Mn
  Mn2      1.0000 0.61240  0.23947  0.80907  Biso   1.000  Mn
  Mn3      1.0000 0.42343  0.25609  0.63134  Biso   1.000  Mn
  Mn4      1.0000 0.11240  0.26053  0.69093  Biso   1.000  Mn
  Mn5      1.0000 0.07657  0.75609  0.13134  Biso   1.000  Mn
  Mn6      1.0000 0.38760  0.76053  0.19093  Biso   1.000  Mn
  Mn7      1.0000 0.57657  0.74391  0.36866  Biso   1.000  Mn
  Mn8      1.0000 0.88760  0.73947  0.30907  Biso   1.000  Mn
  Mn9      1.0000 0.00000  0.00000  0.00000  Biso   1.000  Mn
  Mn10     1.0000 0.50000  0.50000  0.50000  Biso   1.000  Mn
  Mn11     1.0000 0.00000  0.50000  0.00000  Biso   1.000  Mn
  Mn12     1.0000 0.50000  0.00000  0.50000  Biso   1.000  Mn
  H1       1.0000 0.71370  0.99220  0.96420  Biso   1.000  H
  H2       1.0000 0.62760  0.44400  0.94920  Biso   1.000  H
  H3       1.0000 0.21180  0.03720  0.78460  Biso   1.000  H
  H4       1.0000 0.15100  0.30180  0.07210  Biso   1.000  H
  H5       1.0000 0.76540  0.14950  0.63350  Biso   1.000  H
  H6       1.0000 0.04140  0.52040  0.74310  Biso   1.000  H
  H7       1.0000 0.21370  0.50780  0.53580  Biso   1.000  H
  H8       1.0000 0.12760  0.05600  0.55080  Biso   1.000  H
  H9       1.0000 0.71180  0.46280  0.71540  Biso   1.000  H
  H10      1.0000 0.65100  0.19820  0.42790  Biso   1.000  H
  H11      1.0000 0.26540  0.35050  0.86650  Biso   1.000  H
  H12      1.0000 0.54140  0.97960  0.75690  Biso   1.000  H
  H13      1.0000 0.28630  0.00780  0.03580  Biso   1.000  H
  H14      1.0000 0.37240  0.55600  0.05080  Biso   1.000  H
  H15      1.0000 0.78820  0.96280  0.21540  Biso   1.000  H
  H16      1.0000 0.84900  0.69820  0.92790  Biso   1.000  H
  H17      1.0000 0.23460  0.85050  0.36650  Biso   1.000  H
  H18      1.0000 0.95860  0.47960  0.25690  Biso   1.000  H
  H19      1.0000 0.78630  0.49220  0.46420  Biso   1.000  H
  H20      1.0000 0.87240  0.94400  0.44920  Biso   1.000  H
  H21      1.0000 0.28820  0.53720  0.28460  Biso   1.000  H
  H22      1.0000 0.34900  0.80180  0.57210  Biso   1.000  H
  H23      1.0000 0.73460  0.64950  0.13350  Biso   1.000  H
  H24      1.0000 0.45860  0.02040  0.24310  Biso   1.000  H
  C1       1.0000 0.72867  0.05784  0.93264  Biso   1.000  C
  C2       1.0000 0.71528  0.42400  0.94509  Biso   1.000  C
  C3       1.0000 0.14520  0.05930  0.82316  Biso   1.000  C
  C4       1.0000 0.09652  0.25904  0.03471  Biso   1.000  C
  C5       1.0000 0.83239  0.17700  0.66971  Biso   1.000  C
  C6       1.0000 0.02160  0.48092  0.79371  Biso   1.000  C
  C7       1.0000 0.22867  0.44216  0.56736  Biso   1.000  C
  C8       1.0000 0.21528  0.07600  0.55491  Biso   1.000  C
  C9       1.0000 0.64520  0.44070  0.67684  Biso   1.000  C
  C10      1.0000 0.59652  0.24096  0.46529  Biso   1.000  C
  C11      1.0000 0.33239  0.32300  0.83029  Biso   1.000  C
  C12      1.0000 0.52160  0.01908  0.70629  Biso   1.000  C
  C13      1.0000 0.27133  0.94216  0.06736  Biso   1.000  C
  C14      1.0000 0.28472  0.57600  0.05491  Biso   1.000  C
  C15      1.0000 0.85480  0.94070  0.17684  Biso   1.000  C
  C16      1.0000 0.90348  0.74096  0.96529  Biso   1.000  C
  C17      1.0000 0.16761  0.82300  0.33029  Biso   1.000  C
  C18      1.0000 0.97840  0.51908  0.20629  Biso   1.000  C
  C19      1.0000 0.77133  0.55784  0.43264  Biso   1.000  C
  C20      1.0000 0.78472  0.92400  0.44509  Biso   1.000  C
  C21      1.0000 0.35480  0.55930  0.32316  Biso   1.000  C
  C22      1.0000 0.40348  0.75904  0.53471  Biso   1.000  C
  C23      1.0000 0.66761  0.67700  0.16971  Biso   1.000  C
  C24      1.0000 0.47840  0.98092  0.29371  Biso   1.000  C
  O1       1.0000 0.63370  0.09939  0.89533  Biso   1.000  O
  O2       1.0000 0.09550  0.15501  0.04309  Biso   1.000  O
  O3       1.0000 0.79132  0.47760  0.99301  Biso   1.000  O
  O4       1.0000 0.01194  0.37342  0.78509  Biso   1.000  O
  O5       1.0000 0.08443  0.15021  0.80581  Biso   1.000  O
  O6       1.0000 0.84441  0.09538  0.93236  Biso   1.000  O
  O7       1.0000 0.80512  0.19586  0.75006  Biso   1.000  O
  O8       1.0000 0.02952  0.31353  0.97931  Biso   1.000  O
  O9       1.0000 0.74472  0.34366  0.89028  Biso   1.000  O
  O10      1.0000 0.93984  0.19158  0.63438  Biso   1.000  O
  O11      1.0000 0.12505  0.99757  0.88553  Biso   1.000  O
  O12      1.0000 0.00760  0.53799  0.86155  Biso   1.000  O
  O13      1.0000 0.13370  0.40061  0.60467  Biso   1.000  O
  O14      1.0000 0.59550  0.34499  0.45691  Biso   1.000  O
  O15      1.0000 0.29132  0.02240  0.50699  Biso   1.000  O
  O16      1.0000 0.51194  0.12658  0.71491  Biso   1.000  O
  O17      1.0000 0.58443  0.34979  0.69419  Biso   1.000  O
  O18      1.0000 0.34441  0.40462  0.56764  Biso   1.000  O
  O19      1.0000 0.30512  0.30414  0.74994  Biso   1.000  O
  O20      1.0000 0.52952  0.18647  0.52069  Biso   1.000  O
  O21      1.0000 0.24472  0.15634  0.60972  Biso   1.000  O
  O22      1.0000 0.43984  0.30842  0.86562  Biso   1.000  O
  O23      1.0000 0.62505  0.50243  0.61447  Biso   1.000  O
  O24      1.0000 0.50760  0.96201  0.63845  Biso   1.000  O
  O25      1.0000 0.36630  0.90061  0.10467  Biso   1.000  O
  O26      1.0000 0.90450  0.84499  0.95691  Biso   1.000  O
  O27      1.0000 0.20868  0.52240  0.00699  Biso   1.000  O
  O28      1.0000 0.98806  0.62658  0.21491  Biso   1.000  O
  O29      1.0000 0.91557  0.84979  0.19419  Biso   1.000  O
  O30      1.0000 0.15559  0.90462  0.06764  Biso   1.000  O
  O31      1.0000 0.19488  0.80414  0.24994  Biso   1.000  O
  O32      1.0000 0.97048  0.68647  0.02069  Biso   1.000  O
  O33      1.0000 0.25528  0.65634  0.10972  Biso   1.000  O
  O34      1.0000 0.06016  0.80842  0.36562  Biso   1.000  O
  O35      1.0000 0.87495  0.00243  0.11447  Biso   1.000  O
  O36      1.0000 0.99240  0.46201  0.13845  Biso   1.000  O
  O37      1.0000 0.86630  0.59939  0.39533  Biso   1.000  O
  O38      1.0000 0.40450  0.65501  0.54309  Biso   1.000  O
  O39      1.0000 0.70868  0.97760  0.49301  Biso   1.000  O
  O40      1.0000 0.48806  0.87342  0.28509  Biso   1.000  O
  O41      1.0000 0.41557  0.65021  0.30581  Biso   1.000  O
  O42      1.0000 0.65559  0.59538  0.43236  Biso   1.000  O
  O43      1.0000 0.69488  0.69586  0.25006  Biso   1.000  O
  O44      1.0000 0.47048  0.81353  0.47931  Biso   1.000  O
  O45      1.0000 0.75528  0.84366  0.39028  Biso   1.000  O
  O46      1.0000 0.56016  0.69158  0.13438  Biso   1.000  O
  O47      1.0000 0.37495  0.49757  0.38553  Biso   1.000  O
  O48      1.0000 0.49240  0.03799  0.36155  Biso   1.000  O
