data_image0
_cell_length_a       10.0946
_cell_length_b       11.7047
_cell_length_c       14.7098
_cell_angle_alpha    91.5064
_cell_angle_beta     90
_cell_angle_gamma    90

_symmetry_space_group_name_H-M    P 1
_symmetry_int_tables_number       1

loop_
  _symmetry_equiv_pos_as_xyz
  'x, y, z'

loop_
  _atom_site_label
  _atom_site_occupancy
  _atom_site_fract_x
  _atom_site_fract_y
  _atom_site_fract_z
  _atom_site_thermal_displace_type
  _atom_site_B_iso_or_equiv
  _atom_site_type_symbol
  Mn1      1.0000 0.91471  0.75644  0.13052  Biso   1.000  Mn
  Mn2      1.0000 0.09805  0.73927  0.31711  Biso   1.000  Mn
  Mn3      1.0000 0.41471  0.74356  0.36948  Biso   1.000  Mn
  Mn4      1.0000 0.59805  0.76073  0.18289  Biso   1.000  Mn
  Mn5      1.0000 0.08529  0.24356  0.86948  Biso   1.000  Mn
  Mn6      1.0000 0.90195  0.26073  0.68289  Biso   1.000  Mn
  Mn7      1.0000 0.58529  0.25644  0.63052  Biso   1.000  Mn
  Mn8      1.0000 0.40195  0.23927  0.81711  Biso   1.000  Mn
  Mn9      1.0000 0.00000  0.50000  0.00000  Biso   1.000  Mn
  Mn10     1.0000 0.50000  0.00000  0.50000  Biso   1.000  Mn
  Mn11     1.0000 0.00000  0.00000  0.00000  Biso   1.000  Mn
  Mn12     1.0000 0.50000  0.50000  0.50000  Biso   1.000  Mn
  H1       1.0000 0.74000  0.85160  0.36760  Biso   1.000  H
  H2       1.0000 0.02600  0.48220  0.26920  Biso   1.000  H
  H3       1.0000 0.61100  0.55960  0.03760  Biso   1.000  H
  H4       1.0000 0.20100  0.96540  0.23440  Biso   1.000  H
  H5       1.0000 0.16100  0.69680  0.92880  Biso   1.000  H
  H6       1.0000 0.70600  0.01090  0.02190  Biso   1.000  H
  H7       1.0000 0.24000  0.64840  0.13240  Biso   1.000  H
  H8       1.0000 0.52600  0.01780  0.23080  Biso   1.000  H
  H9       1.0000 0.11100  0.94040  0.46240  Biso   1.000  H
  H10      1.0000 0.70100  0.53460  0.26560  Biso   1.000  H
  H11      1.0000 0.66100  0.80320  0.57120  Biso   1.000  H
  H12      1.0000 0.20600  0.48910  0.47810  Biso   1.000  H
  H13      1.0000 0.26000  0.14840  0.63240  Biso   1.000  H
  H14      1.0000 0.97400  0.51780  0.73080  Biso   1.000  H
  H15      1.0000 0.38900  0.44040  0.96240  Biso   1.000  H
  H16      1.0000 0.79900  0.03460  0.76560  Biso   1.000  H
  H17      1.0000 0.83900  0.30320  0.07120  Biso   1.000  H
  H18      1.0000 0.29400  0.98910  0.97810  Biso   1.000  H
  H19      1.0000 0.76000  0.35160  0.86760  Biso   1.000  H
  H20      1.0000 0.47400  0.98220  0.76920  Biso   1.000  H
  H21      1.0000 0.88900  0.05960  0.53760  Biso   1.000  H
  H22      1.0000 0.29900  0.46540  0.73440  Biso   1.000  H
  H23      1.0000 0.33900  0.19680  0.42880  Biso   1.000  H
  H24      1.0000 0.79400  0.51090  0.52190  Biso   1.000  H
  C1       1.0000 0.81320  0.82122  0.33272  Biso   1.000  C
  C2       1.0000 0.00510  0.51904  0.21304  Biso   1.000  C
  C3       1.0000 0.70790  0.57818  0.04268  Biso   1.000  C
  C4       1.0000 0.13510  0.94391  0.18581  Biso   1.000  C
  C5       1.0000 0.10280  0.74158  0.96578  Biso   1.000  C
  C6       1.0000 0.71970  0.94161  0.05771  Biso   1.000  C
  C7       1.0000 0.31320  0.67878  0.16728  Biso   1.000  C
  C8       1.0000 0.50510  0.98096  0.28696  Biso   1.000  C
  C9       1.0000 0.20790  0.92182  0.45732  Biso   1.000  C
  C10      1.0000 0.63510  0.55609  0.31419  Biso   1.000  C
  C11      1.0000 0.60280  0.75842  0.53422  Biso   1.000  C
  C12      1.0000 0.21970  0.55839  0.44229  Biso   1.000  C
  C13      1.0000 0.18680  0.17878  0.66728  Biso   1.000  C
  C14      1.0000 0.99490  0.48096  0.78696  Biso   1.000  C
  C15      1.0000 0.29210  0.42182  0.95732  Biso   1.000  C
  C16      1.0000 0.86490  0.05609  0.81419  Biso   1.000  C
  C17      1.0000 0.89720  0.25842  0.03422  Biso   1.000  C
  C18      1.0000 0.28030  0.05839  0.94229  Biso   1.000  C
  C19      1.0000 0.68680  0.32122  0.83272  Biso   1.000  C
  C20      1.0000 0.49490  0.01904  0.71304  Biso   1.000  C
  C21      1.0000 0.79210  0.07818  0.54268  Biso   1.000  C
  C22      1.0000 0.36490  0.44391  0.68581  Biso   1.000  C
  C23      1.0000 0.39720  0.24158  0.46578  Biso   1.000  C
  C24      1.0000 0.78030  0.44161  0.55771  Biso   1.000  C
  O1       1.0000 0.79068  0.80491  0.24833  Biso   1.000  O
  O2       1.0000 0.91997  0.80551  0.37196  Biso   1.000  O
  O3       1.0000 0.99705  0.62704  0.21952  Biso   1.000  O
  O4       1.0000 0.99417  0.46041  0.14271  Biso   1.000  O
  O5       1.0000 0.73492  0.65714  0.10202  Biso   1.000  O
  O6       1.0000 0.78879  0.52492  0.99607  Biso   1.000  O
  O7       1.0000 0.07350  0.85083  0.19945  Biso   1.000  O
  O8       1.0000 0.11989  0.00647  0.12075  Biso   1.000  O
  O9       1.0000 0.02925  0.68570  0.02072  Biso   1.000  O
  O10      1.0000 0.10265  0.84544  0.95793  Biso   1.000  O
  O11      1.0000 0.83784  0.90467  0.06360  Biso   1.000  O
  O12      1.0000 0.61999  0.89984  0.09305  Biso   1.000  O
  O13      1.0000 0.29068  0.69509  0.25167  Biso   1.000  O
  O14      1.0000 0.41997  0.69449  0.12804  Biso   1.000  O
  O15      1.0000 0.49705  0.87296  0.28048  Biso   1.000  O
  O16      1.0000 0.49417  0.03959  0.35729  Biso   1.000  O
  O17      1.0000 0.23492  0.84286  0.39798  Biso   1.000  O
  O18      1.0000 0.28879  0.97508  0.50393  Biso   1.000  O
  O19      1.0000 0.57350  0.64917  0.30055  Biso   1.000  O
  O20      1.0000 0.61989  0.49353  0.37925  Biso   1.000  O
  O21      1.0000 0.52925  0.81430  0.47928  Biso   1.000  O
  O22      1.0000 0.60265  0.65456  0.54207  Biso   1.000  O
  O23      1.0000 0.33784  0.59533  0.43640  Biso   1.000  O
  O24      1.0000 0.11999  0.60016  0.40695  Biso   1.000  O
  O25      1.0000 0.20932  0.19509  0.75167  Biso   1.000  O
  O26      1.0000 0.08003  0.19449  0.62804  Biso   1.000  O
  O27      1.0000 0.00295  0.37296  0.78048  Biso   1.000  O
  O28      1.0000 0.00583  0.53959  0.85729  Biso   1.000  O
  O29      1.0000 0.26508  0.34286  0.89798  Biso   1.000  O
  O30      1.0000 0.21121  0.47508  0.00393  Biso   1.000  O
  O31      1.0000 0.92650  0.14917  0.80055  Biso   1.000  O
  O32      1.0000 0.88011  0.99353  0.87925  Biso   1.000  O
  O33      1.0000 0.97075  0.31430  0.97928  Biso   1.000  O
  O34      1.0000 0.89735  0.15456  0.04207  Biso   1.000  O
  O35      1.0000 0.16216  0.09533  0.93640  Biso   1.000  O
  O36      1.0000 0.38001  0.10016  0.90695  Biso   1.000  O
  O37      1.0000 0.70932  0.30491  0.74833  Biso   1.000  O
  O38      1.0000 0.58003  0.30551  0.87196  Biso   1.000  O
  O39      1.0000 0.50295  0.12704  0.71952  Biso   1.000  O
  O40      1.0000 0.50583  0.96041  0.64271  Biso   1.000  O
  O41      1.0000 0.76508  0.15714  0.60202  Biso   1.000  O
  O42      1.0000 0.71121  0.02492  0.49607  Biso   1.000  O
  O43      1.0000 0.42650  0.35083  0.69945  Biso   1.000  O
  O44      1.0000 0.38011  0.50647  0.62075  Biso   1.000  O
  O45      1.0000 0.47075  0.18570  0.52072  Biso   1.000  O
  O46      1.0000 0.39735  0.34544  0.45793  Biso   1.000  O
  O47      1.0000 0.66216  0.40467  0.56360  Biso   1.000  O
  O48      1.0000 0.88001  0.39984  0.59305  Biso   1.000  O
