data_image0
_cell_length_a       10.1617
_cell_length_b       11.6548
_cell_length_c       15.2943
_cell_angle_alpha    91.1495
_cell_angle_beta     90
_cell_angle_gamma    90

_symmetry_space_group_name_H-M    P 1
_symmetry_int_tables_number       1

loop_
  _symmetry_equiv_pos_as_xyz
  'x, y, z'

loop_
  _atom_site_label
  _atom_site_occupancy
  _atom_site_fract_x
  _atom_site_fract_y
  _atom_site_fract_z
  _atom_site_thermal_displace_type
  _atom_site_B_iso_or_equiv
  _atom_site_type_symbol
  Mn1      1.0000 0.92207  0.75523  0.13184  Biso   1.000  Mn
  Mn2      1.0000 0.11043  0.73843  0.30855  Biso   1.000  Mn
  Mn3      1.0000 0.42207  0.74477  0.36816  Biso   1.000  Mn
  Mn4      1.0000 0.61043  0.76157  0.19145  Biso   1.000  Mn
  Mn5      1.0000 0.07793  0.24477  0.86816  Biso   1.000  Mn
  Mn6      1.0000 0.88957  0.26157  0.69145  Biso   1.000  Mn
  Mn7      1.0000 0.57793  0.25523  0.63184  Biso   1.000  Mn
  Mn8      1.0000 0.38957  0.23843  0.80855  Biso   1.000  Mn
  Mn9      1.0000 0.00000  0.50000  0.00000  Biso   1.000  Mn
  Mn10     1.0000 0.50000  0.00000  0.50000  Biso   1.000  Mn
  Mn11     1.0000 0.00000  0.00000  0.00000  Biso   1.000  Mn
  Mn12     1.0000 0.50000  0.50000  0.50000  Biso   1.000  Mn
  H1       1.0000 0.75500  0.86720  0.36320  Biso   1.000  H
  H2       1.0000 0.04700  0.47300  0.26200  Biso   1.000  H
  H3       1.0000 0.62100  0.53890  0.07090  Biso   1.000  H
  H4       1.0000 0.22400  0.95530  0.21230  Biso   1.000  H
  H5       1.0000 0.14200  0.69240  0.92040  Biso   1.000  H
  H6       1.0000 0.71200  0.00690  0.02890  Biso   1.000  H
  H7       1.0000 0.25500  0.63280  0.13680  Biso   1.000  H
  H8       1.0000 0.54700  0.02700  0.23800  Biso   1.000  H
  H9       1.0000 0.12100  0.96110  0.42910  Biso   1.000  H
  H10      1.0000 0.72400  0.54470  0.28770  Biso   1.000  H
  H11      1.0000 0.64200  0.80760  0.57960  Biso   1.000  H
  H12      1.0000 0.21200  0.49310  0.47110  Biso   1.000  H
  H13      1.0000 0.24500  0.13280  0.63680  Biso   1.000  H
  H14      1.0000 0.95300  0.52700  0.73800  Biso   1.000  H
  H15      1.0000 0.37900  0.46110  0.92910  Biso   1.000  H
  H16      1.0000 0.77600  0.04470  0.78770  Biso   1.000  H
  H17      1.0000 0.85800  0.30760  0.07960  Biso   1.000  H
  H18      1.0000 0.28800  0.99310  0.97110  Biso   1.000  H
  H19      1.0000 0.74500  0.36720  0.86320  Biso   1.000  H
  H20      1.0000 0.45300  0.97300  0.76200  Biso   1.000  H
  H21      1.0000 0.87900  0.03890  0.57090  Biso   1.000  H
  H22      1.0000 0.27600  0.45530  0.71230  Biso   1.000  H
  H23      1.0000 0.35800  0.19240  0.42040  Biso   1.000  H
  H24      1.0000 0.78800  0.50690  0.52890  Biso   1.000  H
  C1       1.0000 0.83190  0.83144  0.32724  Biso   1.000  C
  C2       1.0000 0.02520  0.51826  0.20696  Biso   1.000  C
  C3       1.0000 0.71330  0.56596  0.06556  Biso   1.000  C
  C4       1.0000 0.15110  0.93716  0.17336  Biso   1.000  C
  C5       1.0000 0.08980  0.74104  0.96244  Biso   1.000  C
  C6       1.0000 0.72600  0.93932  0.06362  Biso   1.000  C
  C7       1.0000 0.33190  0.66856  0.17276  Biso   1.000  C
  C8       1.0000 0.52520  0.98174  0.29304  Biso   1.000  C
  C9       1.0000 0.21330  0.93404  0.43444  Biso   1.000  C
  C10      1.0000 0.65110  0.56284  0.32664  Biso   1.000  C
  C11      1.0000 0.58980  0.75896  0.53756  Biso   1.000  C
  C12      1.0000 0.22600  0.56068  0.43638  Biso   1.000  C
  C13      1.0000 0.16810  0.16856  0.67276  Biso   1.000  C
  C14      1.0000 0.97480  0.48174  0.79304  Biso   1.000  C
  C15      1.0000 0.28670  0.43404  0.93444  Biso   1.000  C
  C16      1.0000 0.84890  0.06284  0.82664  Biso   1.000  C
  C17      1.0000 0.91020  0.25896  0.03756  Biso   1.000  C
  C18      1.0000 0.27400  0.06068  0.93638  Biso   1.000  C
  C19      1.0000 0.66810  0.33144  0.82724  Biso   1.000  C
  C20      1.0000 0.47480  0.01826  0.70696  Biso   1.000  C
  C21      1.0000 0.78670  0.06596  0.56556  Biso   1.000  C
  C22      1.0000 0.34890  0.43716  0.67336  Biso   1.000  C
  C23      1.0000 0.41020  0.24104  0.46244  Biso   1.000  C
  C24      1.0000 0.77400  0.43932  0.56362  Biso   1.000  C
  O1       1.0000 0.80368  0.80973  0.24736  Biso   1.000  O
  O2       1.0000 0.94029  0.81542  0.36237  Biso   1.000  O
  O3       1.0000 0.00774  0.62581  0.21628  Biso   1.000  O
  O4       1.0000 0.01977  0.46322  0.13721  Biso   1.000  O
  O5       1.0000 0.74321  0.65230  0.11468  Biso   1.000  O
  O6       1.0000 0.78957  0.51089  0.01824  Biso   1.000  O
  O7       1.0000 0.08754  0.84658  0.19152  Biso   1.000  O
  O8       1.0000 0.12904  0.00146  0.11176  Biso   1.000  O
  O9       1.0000 0.02258  0.68660  0.01907  Biso   1.000  O
  O10      1.0000 0.09620  0.84610  0.95623  Biso   1.000  O
  O11      1.0000 0.84397  0.90310  0.06634  Biso   1.000  O
  O12      1.0000 0.62987  0.89828  0.10165  Biso   1.000  O
  O13      1.0000 0.30368  0.69027  0.25264  Biso   1.000  O
  O14      1.0000 0.44029  0.68458  0.13763  Biso   1.000  O
  O15      1.0000 0.50774  0.87419  0.28372  Biso   1.000  O
  O16      1.0000 0.51977  0.03678  0.36279  Biso   1.000  O
  O17      1.0000 0.24321  0.84770  0.38532  Biso   1.000  O
  O18      1.0000 0.28957  0.98911  0.48176  Biso   1.000  O
  O19      1.0000 0.58754  0.65342  0.30848  Biso   1.000  O
  O20      1.0000 0.62904  0.49854  0.38824  Biso   1.000  O
  O21      1.0000 0.52258  0.81340  0.48093  Biso   1.000  O
  O22      1.0000 0.59620  0.65390  0.54377  Biso   1.000  O
  O23      1.0000 0.34397  0.59690  0.43366  Biso   1.000  O
  O24      1.0000 0.12987  0.60172  0.39835  Biso   1.000  O
  O25      1.0000 0.19632  0.19027  0.75264  Biso   1.000  O
  O26      1.0000 0.05971  0.18458  0.63763  Biso   1.000  O
  O27      1.0000 0.99226  0.37419  0.78372  Biso   1.000  O
  O28      1.0000 0.98023  0.53678  0.86279  Biso   1.000  O
  O29      1.0000 0.25679  0.34770  0.88532  Biso   1.000  O
  O30      1.0000 0.21043  0.48911  0.98176  Biso   1.000  O
  O31      1.0000 0.91246  0.15342  0.80848  Biso   1.000  O
  O32      1.0000 0.87096  0.99854  0.88824  Biso   1.000  O
  O33      1.0000 0.97742  0.31340  0.98093  Biso   1.000  O
  O34      1.0000 0.90380  0.15390  0.04377  Biso   1.000  O
  O35      1.0000 0.15603  0.09690  0.93366  Biso   1.000  O
  O36      1.0000 0.37013  0.10172  0.89835  Biso   1.000  O
  O37      1.0000 0.69632  0.30973  0.74736  Biso   1.000  O
  O38      1.0000 0.55971  0.31542  0.86237  Biso   1.000  O
  O39      1.0000 0.49226  0.12581  0.71628  Biso   1.000  O
  O40      1.0000 0.48023  0.96322  0.63721  Biso   1.000  O
  O41      1.0000 0.75679  0.15230  0.61468  Biso   1.000  O
  O42      1.0000 0.71043  0.01089  0.51824  Biso   1.000  O
  O43      1.0000 0.41246  0.34658  0.69152  Biso   1.000  O
  O44      1.0000 0.37096  0.50146  0.61176  Biso   1.000  O
  O45      1.0000 0.47742  0.18660  0.51907  Biso   1.000  O
  O46      1.0000 0.40380  0.34610  0.45623  Biso   1.000  O
  O47      1.0000 0.65603  0.40310  0.56634  Biso   1.000  O
  O48      1.0000 0.87013  0.39828  0.60165  Biso   1.000  O
