data_image0
_cell_length_a       10.1956
_cell_length_b       11.8341
_cell_length_c       14.8738
_cell_angle_alpha    90.9814
_cell_angle_beta     90
_cell_angle_gamma    90

_symmetry_space_group_name_H-M    P 1
_symmetry_int_tables_number       1

loop_
  _symmetry_equiv_pos_as_xyz
  'x, y, z'

loop_
  _atom_site_label
  _atom_site_occupancy
  _atom_site_fract_x
  _atom_site_fract_y
  _atom_site_fract_z
  _atom_site_thermal_displace_type
  _atom_site_B_iso_or_equiv
  _atom_site_type_symbol
  Mn1      1.0000 0.91697  0.75390  0.13012  Biso   1.000  Mn
  Mn2      1.0000 0.10455  0.73719  0.31418  Biso   1.000  Mn
  Mn3      1.0000 0.41697  0.74610  0.36988  Biso   1.000  Mn
  Mn4      1.0000 0.60455  0.76281  0.18582  Biso   1.000  Mn
  Mn5      1.0000 0.08303  0.24610  0.86988  Biso   1.000  Mn
  Mn6      1.0000 0.89545  0.26281  0.68582  Biso   1.000  Mn
  Mn7      1.0000 0.58303  0.25390  0.63012  Biso   1.000  Mn
  Mn8      1.0000 0.39545  0.23719  0.81418  Biso   1.000  Mn
  Mn9      1.0000 0.00000  0.50000  0.00000  Biso   1.000  Mn
  Mn10     1.0000 0.50000  0.00000  0.50000  Biso   1.000  Mn
  Mn11     1.0000 0.00000  0.00000  0.00000  Biso   1.000  Mn
  Mn12     1.0000 0.50000  0.50000  0.50000  Biso   1.000  Mn
  H1       1.0000 0.74300  0.83800  0.37800  Biso   1.000  H
  H2       1.0000 0.04100  0.47800  0.27100  Biso   1.000  H
  H3       1.0000 0.61400  0.55900  0.04800  Biso   1.000  H
  H4       1.0000 0.22100  0.95200  0.22900  Biso   1.000  H
  H5       1.0000 0.14900  0.69700  0.91300  Biso   1.000  H
  H6       1.0000 0.71700  0.02000  0.02800  Biso   1.000  H
  H7       1.0000 0.24300  0.66200  0.12200  Biso   1.000  H
  H8       1.0000 0.54100  0.02200  0.22900  Biso   1.000  H
  H9       1.0000 0.11400  0.94100  0.45200  Biso   1.000  H
  H10      1.0000 0.72100  0.54800  0.27100  Biso   1.000  H
  H11      1.0000 0.64900  0.80300  0.58700  Biso   1.000  H
  H12      1.0000 0.21700  0.48000  0.47200  Biso   1.000  H
  H13      1.0000 0.25700  0.16200  0.62200  Biso   1.000  H
  H14      1.0000 0.95900  0.52200  0.72900  Biso   1.000  H
  H15      1.0000 0.38600  0.44100  0.95200  Biso   1.000  H
  H16      1.0000 0.77900  0.04800  0.77100  Biso   1.000  H
  H17      1.0000 0.85100  0.30300  0.08700  Biso   1.000  H
  H18      1.0000 0.28300  0.98000  0.97200  Biso   1.000  H
  H19      1.0000 0.75700  0.33800  0.87800  Biso   1.000  H
  H20      1.0000 0.45900  0.97800  0.77100  Biso   1.000  H
  H21      1.0000 0.88600  0.05900  0.54800  Biso   1.000  H
  H22      1.0000 0.27900  0.45200  0.72900  Biso   1.000  H
  H23      1.0000 0.35100  0.19700  0.41300  Biso   1.000  H
  H24      1.0000 0.78300  0.52000  0.52800  Biso   1.000  H
  C1       1.0000 0.82210  0.81930  0.33160  Biso   1.000  C
  C2       1.0000 0.01720  0.52070  0.21010  Biso   1.000  C
  C3       1.0000 0.70990  0.57620  0.05090  Biso   1.000  C
  C4       1.0000 0.14180  0.93870  0.18180  Biso   1.000  C
  C5       1.0000 0.09100  0.74290  0.96320  Biso   1.000  C
  C6       1.0000 0.72620  0.94170  0.06170  Biso   1.000  C
  C7       1.0000 0.32210  0.68070  0.16840  Biso   1.000  C
  C8       1.0000 0.51720  0.97930  0.28990  Biso   1.000  C
  C9       1.0000 0.20990  0.92380  0.44910  Biso   1.000  C
  C10      1.0000 0.64180  0.56130  0.31820  Biso   1.000  C
  C11      1.0000 0.59100  0.75710  0.53680  Biso   1.000  C
  C12      1.0000 0.22620  0.55830  0.43830  Biso   1.000  C
  C13      1.0000 0.17790  0.18070  0.66840  Biso   1.000  C
  C14      1.0000 0.98280  0.47930  0.78990  Biso   1.000  C
  C15      1.0000 0.29010  0.42380  0.94910  Biso   1.000  C
  C16      1.0000 0.85820  0.06130  0.81820  Biso   1.000  C
  C17      1.0000 0.90900  0.25710  0.03680  Biso   1.000  C
  C18      1.0000 0.27380  0.05830  0.93830  Biso   1.000  C
  C19      1.0000 0.67790  0.31930  0.83160  Biso   1.000  C
  C20      1.0000 0.48280  0.02070  0.71010  Biso   1.000  C
  C21      1.0000 0.79010  0.07620  0.55090  Biso   1.000  C
  C22      1.0000 0.35820  0.43870  0.68180  Biso   1.000  C
  C23      1.0000 0.40900  0.24290  0.46320  Biso   1.000  C
  C24      1.0000 0.77380  0.44170  0.56170  Biso   1.000  C
  O1       1.0000 0.79680  0.79830  0.24910  Biso   1.000  O
  O2       1.0000 0.93100  0.80740  0.36840  Biso   1.000  O
  O3       1.0000 0.00690  0.62800  0.21710  Biso   1.000  O
  O4       1.0000 0.00330  0.46460  0.14090  Biso   1.000  O
  O5       1.0000 0.73810  0.65620  0.10660  Biso   1.000  O
  O6       1.0000 0.78930  0.51850  0.00780  Biso   1.000  O
  O7       1.0000 0.07670  0.85020  0.19560  Biso   1.000  O
  O8       1.0000 0.12330  0.00610  0.11990  Biso   1.000  O
  O9       1.0000 0.02470  0.68470  0.01950  Biso   1.000  O
  O10      1.0000 0.09660  0.84670  0.96220  Biso   1.000  O
  O11      1.0000 0.84360  0.90420  0.06540  Biso   1.000  O
  O12      1.0000 0.62920  0.90020  0.09840  Biso   1.000  O
  O13      1.0000 0.29680  0.70170  0.25090  Biso   1.000  O
  O14      1.0000 0.43100  0.69260  0.13160  Biso   1.000  O
  O15      1.0000 0.50690  0.87200  0.28290  Biso   1.000  O
  O16      1.0000 0.50330  0.03540  0.35910  Biso   1.000  O
  O17      1.0000 0.23810  0.84380  0.39340  Biso   1.000  O
  O18      1.0000 0.28930  0.98150  0.49220  Biso   1.000  O
  O19      1.0000 0.57670  0.64980  0.30440  Biso   1.000  O
  O20      1.0000 0.62330  0.49390  0.38010  Biso   1.000  O
  O21      1.0000 0.52470  0.81530  0.48050  Biso   1.000  O
  O22      1.0000 0.59660  0.65330  0.53780  Biso   1.000  O
  O23      1.0000 0.34360  0.59580  0.43460  Biso   1.000  O
  O24      1.0000 0.12920  0.59980  0.40160  Biso   1.000  O
  O25      1.0000 0.20320  0.20170  0.75090  Biso   1.000  O
  O26      1.0000 0.06900  0.19260  0.63160  Biso   1.000  O
  O27      1.0000 0.99310  0.37200  0.78290  Biso   1.000  O
  O28      1.0000 0.99670  0.53540  0.85910  Biso   1.000  O
  O29      1.0000 0.26190  0.34380  0.89340  Biso   1.000  O
  O30      1.0000 0.21070  0.48150  0.99220  Biso   1.000  O
  O31      1.0000 0.92330  0.14980  0.80440  Biso   1.000  O
  O32      1.0000 0.87670  0.99390  0.88010  Biso   1.000  O
  O33      1.0000 0.97530  0.31530  0.98050  Biso   1.000  O
  O34      1.0000 0.90340  0.15330  0.03780  Biso   1.000  O
  O35      1.0000 0.15640  0.09580  0.93460  Biso   1.000  O
  O36      1.0000 0.37080  0.09980  0.90160  Biso   1.000  O
  O37      1.0000 0.70320  0.29830  0.74910  Biso   1.000  O
  O38      1.0000 0.56900  0.30740  0.86840  Biso   1.000  O
  O39      1.0000 0.49310  0.12800  0.71710  Biso   1.000  O
  O40      1.0000 0.49670  0.96460  0.64090  Biso   1.000  O
  O41      1.0000 0.76190  0.15620  0.60660  Biso   1.000  O
  O42      1.0000 0.71070  0.01850  0.50780  Biso   1.000  O
  O43      1.0000 0.42330  0.35020  0.69560  Biso   1.000  O
  O44      1.0000 0.37670  0.50610  0.61990  Biso   1.000  O
  O45      1.0000 0.47530  0.18470  0.51950  Biso   1.000  O
  O46      1.0000 0.40340  0.34670  0.46220  Biso   1.000  O
  O47      1.0000 0.65640  0.40420  0.56540  Biso   1.000  O
  O48      1.0000 0.87080  0.40020  0.59840  Biso   1.000  O
