data_image0
_cell_length_a       8.104
_cell_length_b       27.0656
_cell_length_c       20.4233
_cell_angle_alpha    90
_cell_angle_beta     90
_cell_angle_gamma    90

_symmetry_space_group_name_H-M    "P 1"
_symmetry_int_tables_number       1

loop_
  _symmetry_equiv_pos_as_xyz
  'x, y, z'

loop_
  _atom_site_label
  _atom_site_occupancy
  _atom_site_fract_x
  _atom_site_fract_y
  _atom_site_fract_z
  _atom_site_thermal_displace_type
  _atom_site_B_iso_or_equiv
  _atom_site_type_symbol
  O1       1.0000 0.93440  0.68084  0.00230  Biso   1.000  O
  O2       1.0000 0.76330  0.72297  0.06577  Biso   1.000  O
  O3       1.0000 0.46250  0.69870  0.14610  Biso   1.000  O
  O4       1.0000 0.67790  0.68967  0.21080  Biso   1.000  O
  C1       1.0000 0.71780  0.54650  0.05440  Biso   1.000  C
  C2       1.0000 0.77980  0.59130  0.03350  Biso   1.000  C
  H1       1.0000 0.84480  0.59230  0.99600  Biso   1.000  H
  C3       1.0000 0.74710  0.63510  0.06740  Biso   1.000  C
  C4       1.0000 0.64770  0.63310  0.12230  Biso   1.000  C
  C5       1.0000 0.58560  0.58790  0.14340  Biso   1.000  C
  H2       1.0000 0.51790  0.58670  0.18010  Biso   1.000  H
  C6       1.0000 0.62370  0.54490  0.11020  Biso   1.000  C
  H3       1.0000 0.58530  0.51470  0.12570  Biso   1.000  H
  C7       1.0000 0.81880  0.68310  0.04360  Biso   1.000  C
  C8       1.0000 0.59710  0.67780  0.16200  Biso   1.000  C
  O5       1.0000 0.43440  0.18084  0.00230  Biso   1.000  O
  O6       1.0000 0.26330  0.22297  0.06577  Biso   1.000  O
  O7       1.0000 0.96250  0.19870  0.14610  Biso   1.000  O
  O8       1.0000 0.17790  0.18967  0.21080  Biso   1.000  O
  C9       1.0000 0.21780  0.04650  0.05440  Biso   1.000  C
  C10      1.0000 0.27980  0.09130  0.03350  Biso   1.000  C
  H4       1.0000 0.34480  0.09230  0.99600  Biso   1.000  H
  C11      1.0000 0.24710  0.13510  0.06740  Biso   1.000  C
  C12      1.0000 0.14770  0.13310  0.12230  Biso   1.000  C
  C13      1.0000 0.08560  0.08790  0.14340  Biso   1.000  C
  H5       1.0000 0.01790  0.08670  0.18010  Biso   1.000  H
  C14      1.0000 0.12370  0.04490  0.11020  Biso   1.000  C
  H6       1.0000 0.08530  0.01470  0.12570  Biso   1.000  H
  C15      1.0000 0.31880  0.18310  0.04360  Biso   1.000  C
  C16      1.0000 0.09710  0.17780  0.16200  Biso   1.000  C
  O9       1.0000 0.56560  0.31916  0.00230  Biso   1.000  O
  O10      1.0000 0.73670  0.27703  0.06577  Biso   1.000  O
  O11      1.0000 0.03750  0.30130  0.14610  Biso   1.000  O
  O12      1.0000 0.82210  0.31033  0.21080  Biso   1.000  O
  C17      1.0000 0.78220  0.45350  0.05440  Biso   1.000  C
  C18      1.0000 0.72020  0.40870  0.03350  Biso   1.000  C
  H7       1.0000 0.65520  0.40770  0.99600  Biso   1.000  H
  C19      1.0000 0.75290  0.36490  0.06740  Biso   1.000  C
  C20      1.0000 0.85230  0.36690  0.12230  Biso   1.000  C
  C21      1.0000 0.91440  0.41210  0.14340  Biso   1.000  C
  H8       1.0000 0.98210  0.41330  0.18010  Biso   1.000  H
  C22      1.0000 0.87630  0.45510  0.11020  Biso   1.000  C
  H9       1.0000 0.91470  0.48530  0.12570  Biso   1.000  H
  C23      1.0000 0.68120  0.31690  0.04360  Biso   1.000  C
  C24      1.0000 0.90290  0.32220  0.16200  Biso   1.000  C
  O13      1.0000 0.06560  0.81916  0.00230  Biso   1.000  O
  O14      1.0000 0.23670  0.77703  0.06577  Biso   1.000  O
  O15      1.0000 0.53750  0.80130  0.14610  Biso   1.000  O
  O16      1.0000 0.32210  0.81033  0.21080  Biso   1.000  O
  C25      1.0000 0.28220  0.95350  0.05440  Biso   1.000  C
  C26      1.0000 0.22020  0.90870  0.03350  Biso   1.000  C
  H10      1.0000 0.15520  0.90770  0.99600  Biso   1.000  H
  C27      1.0000 0.25290  0.86490  0.06740  Biso   1.000  C
  C28      1.0000 0.35230  0.86690  0.12230  Biso   1.000  C
  C29      1.0000 0.41440  0.91210  0.14340  Biso   1.000  C
  H11      1.0000 0.48210  0.91330  0.18010  Biso   1.000  H
  C30      1.0000 0.37630  0.95510  0.11020  Biso   1.000  C
  H12      1.0000 0.41470  0.98530  0.12570  Biso   1.000  H
  C31      1.0000 0.18120  0.81690  0.04360  Biso   1.000  C
  C32      1.0000 0.40290  0.82220  0.16200  Biso   1.000  C
  O17      1.0000 0.06560  0.68084  0.49770  Biso   1.000  O
  O18      1.0000 0.23670  0.72297  0.43423  Biso   1.000  O
  O19      1.0000 0.53750  0.69870  0.35390  Biso   1.000  O
  O20      1.0000 0.32210  0.68967  0.28920  Biso   1.000  O
  C33      1.0000 0.28220  0.54650  0.44560  Biso   1.000  C
  C34      1.0000 0.22020  0.59130  0.46650  Biso   1.000  C
  H13      1.0000 0.15520  0.59230  0.50400  Biso   1.000  H
  C35      1.0000 0.25290  0.63510  0.43260  Biso   1.000  C
  C36      1.0000 0.35230  0.63310  0.37770  Biso   1.000  C
  C37      1.0000 0.41440  0.58790  0.35660  Biso   1.000  C
  H14      1.0000 0.48210  0.58670  0.31990  Biso   1.000  H
  C38      1.0000 0.37630  0.54490  0.38980  Biso   1.000  C
  H15      1.0000 0.41470  0.51470  0.37430  Biso   1.000  H
  C39      1.0000 0.18120  0.68310  0.45640  Biso   1.000  C
  C40      1.0000 0.40290  0.67780  0.33800  Biso   1.000  C
  O21      1.0000 0.56560  0.18084  0.49770  Biso   1.000  O
  O22      1.0000 0.73670  0.22297  0.43423  Biso   1.000  O
  O23      1.0000 0.03750  0.19870  0.35390  Biso   1.000  O
  O24      1.0000 0.82210  0.18967  0.28920  Biso   1.000  O
  C41      1.0000 0.78220  0.04650  0.44560  Biso   1.000  C
  C42      1.0000 0.72020  0.09130  0.46650  Biso   1.000  C
  H16      1.0000 0.65520  0.09230  0.50400  Biso   1.000  H
  C43      1.0000 0.75290  0.13510  0.43260  Biso   1.000  C
  C44      1.0000 0.85230  0.13310  0.37770  Biso   1.000  C
  C45      1.0000 0.91440  0.08790  0.35660  Biso   1.000  C
  H17      1.0000 0.98210  0.08670  0.31990  Biso   1.000  H
  C46      1.0000 0.87630  0.04490  0.38980  Biso   1.000  C
  H18      1.0000 0.91470  0.01470  0.37430  Biso   1.000  H
  C47      1.0000 0.68120  0.18310  0.45640  Biso   1.000  C
  C48      1.0000 0.90290  0.17780  0.33800  Biso   1.000  C
  O25      1.0000 0.43440  0.31916  0.49770  Biso   1.000  O
  O26      1.0000 0.26330  0.27703  0.43423  Biso   1.000  O
  O27      1.0000 0.96250  0.30130  0.35390  Biso   1.000  O
  O28      1.0000 0.17790  0.31033  0.28920  Biso   1.000  O
  C49      1.0000 0.21780  0.45350  0.44560  Biso   1.000  C
  C50      1.0000 0.27980  0.40870  0.46650  Biso   1.000  C
  H19      1.0000 0.34480  0.40770  0.50400  Biso   1.000  H
  C51      1.0000 0.24710  0.36490  0.43260  Biso   1.000  C
  C52      1.0000 0.14770  0.36690  0.37770  Biso   1.000  C
  C53      1.0000 0.08560  0.41210  0.35660  Biso   1.000  C
  H20      1.0000 0.01790  0.41330  0.31990  Biso   1.000  H
  C54      1.0000 0.12370  0.45510  0.38980  Biso   1.000  C
  H21      1.0000 0.08530  0.48530  0.37430  Biso   1.000  H
  C55      1.0000 0.31880  0.31690  0.45640  Biso   1.000  C
  C56      1.0000 0.09710  0.32220  0.33800  Biso   1.000  C
  O29      1.0000 0.93440  0.81916  0.49770  Biso   1.000  O
  O30      1.0000 0.76330  0.77703  0.43423  Biso   1.000  O
  O31      1.0000 0.46250  0.80130  0.35390  Biso   1.000  O
  O32      1.0000 0.67790  0.81033  0.28920  Biso   1.000  O
  C57      1.0000 0.71780  0.95350  0.44560  Biso   1.000  C
  C58      1.0000 0.77980  0.90870  0.46650  Biso   1.000  C
  H22      1.0000 0.84480  0.90770  0.50400  Biso   1.000  H
  C59      1.0000 0.74710  0.86490  0.43260  Biso   1.000  C
  C60      1.0000 0.64770  0.86690  0.37770  Biso   1.000  C
  C61      1.0000 0.58560  0.91210  0.35660  Biso   1.000  C
  H23      1.0000 0.51790  0.91330  0.31990  Biso   1.000  H
  C62      1.0000 0.62370  0.95510  0.38980  Biso   1.000  C
  H24      1.0000 0.58530  0.98530  0.37430  Biso   1.000  H
  C63      1.0000 0.81880  0.81690  0.45640  Biso   1.000  C
  C64      1.0000 0.59710  0.82220  0.33800  Biso   1.000  C
  O33      1.0000 0.06560  0.31916  0.99770  Biso   1.000  O
  O34      1.0000 0.23670  0.27703  0.93423  Biso   1.000  O
  O35      1.0000 0.53750  0.30130  0.85390  Biso   1.000  O
  O36      1.0000 0.32210  0.31033  0.78920  Biso   1.000  O
  C65      1.0000 0.28220  0.45350  0.94560  Biso   1.000  C
  C66      1.0000 0.22020  0.40870  0.96650  Biso   1.000  C
  H25      1.0000 0.15520  0.40770  0.00400  Biso   1.000  H
  C67      1.0000 0.25290  0.36490  0.93260  Biso   1.000  C
  C68      1.0000 0.35230  0.36690  0.87770  Biso   1.000  C
  C69      1.0000 0.41440  0.41210  0.85660  Biso   1.000  C
  H26      1.0000 0.48210  0.41330  0.81990  Biso   1.000  H
  C70      1.0000 0.37630  0.45510  0.88980  Biso   1.000  C
  H27      1.0000 0.41470  0.48530  0.87430  Biso   1.000  H
  C71      1.0000 0.18120  0.31690  0.95640  Biso   1.000  C
  C72      1.0000 0.40290  0.32220  0.83800  Biso   1.000  C
  O37      1.0000 0.56560  0.81916  0.99770  Biso   1.000  O
  O38      1.0000 0.73670  0.77703  0.93423  Biso   1.000  O
  O39      1.0000 0.03750  0.80130  0.85390  Biso   1.000  O
  O40      1.0000 0.82210  0.81033  0.78920  Biso   1.000  O
  C73      1.0000 0.78220  0.95350  0.94560  Biso   1.000  C
  C74      1.0000 0.72020  0.90870  0.96650  Biso   1.000  C
  H28      1.0000 0.65520  0.90770  0.00400  Biso   1.000  H
  C75      1.0000 0.75290  0.86490  0.93260  Biso   1.000  C
  C76      1.0000 0.85230  0.86690  0.87770  Biso   1.000  C
  C77      1.0000 0.91440  0.91210  0.85660  Biso   1.000  C
  H29      1.0000 0.98210  0.91330  0.81990  Biso   1.000  H
  C78      1.0000 0.87630  0.95510  0.88980  Biso   1.000  C
  H30      1.0000 0.91470  0.98530  0.87430  Biso   1.000  H
  C79      1.0000 0.68120  0.81690  0.95640  Biso   1.000  C
  C80      1.0000 0.90290  0.82220  0.83800  Biso   1.000  C
  O41      1.0000 0.43440  0.68084  0.99770  Biso   1.000  O
  O42      1.0000 0.26330  0.72297  0.93423  Biso   1.000  O
  O43      1.0000 0.96250  0.69870  0.85390  Biso   1.000  O
  O44      1.0000 0.17790  0.68967  0.78920  Biso   1.000  O
  C81      1.0000 0.21780  0.54650  0.94560  Biso   1.000  C
  C82      1.0000 0.27980  0.59130  0.96650  Biso   1.000  C
  H31      1.0000 0.34480  0.59230  0.00400  Biso   1.000  H
  C83      1.0000 0.24710  0.63510  0.93260  Biso   1.000  C
  C84      1.0000 0.14770  0.63310  0.87770  Biso   1.000  C
  C85      1.0000 0.08560  0.58790  0.85660  Biso   1.000  C
  H32      1.0000 0.01790  0.58670  0.81990  Biso   1.000  H
  C86      1.0000 0.12370  0.54490  0.88980  Biso   1.000  C
  H33      1.0000 0.08530  0.51470  0.87430  Biso   1.000  H
  C87      1.0000 0.31880  0.68310  0.95640  Biso   1.000  C
  C88      1.0000 0.09710  0.67780  0.83800  Biso   1.000  C
  O45      1.0000 0.93440  0.18084  0.99770  Biso   1.000  O
  O46      1.0000 0.76330  0.22297  0.93423  Biso   1.000  O
  O47      1.0000 0.46250  0.19870  0.85390  Biso   1.000  O
  O48      1.0000 0.67790  0.18967  0.78920  Biso   1.000  O
  C89      1.0000 0.71780  0.04650  0.94560  Biso   1.000  C
  C90      1.0000 0.77980  0.09130  0.96650  Biso   1.000  C
  H34      1.0000 0.84480  0.09230  0.00400  Biso   1.000  H
  C91      1.0000 0.74710  0.13510  0.93260  Biso   1.000  C
  C92      1.0000 0.64770  0.13310  0.87770  Biso   1.000  C
  C93      1.0000 0.58560  0.08790  0.85660  Biso   1.000  C
  H35      1.0000 0.51790  0.08670  0.81990  Biso   1.000  H
  C94      1.0000 0.62370  0.04490  0.88980  Biso   1.000  C
  H36      1.0000 0.58530  0.01470  0.87430  Biso   1.000  H
  C95      1.0000 0.81880  0.18310  0.95640  Biso   1.000  C
  C96      1.0000 0.59710  0.17780  0.83800  Biso   1.000  C
  O49      1.0000 0.93440  0.31916  0.50230  Biso   1.000  O
  O50      1.0000 0.76330  0.27703  0.56577  Biso   1.000  O
  O51      1.0000 0.46250  0.30130  0.64610  Biso   1.000  O
  O52      1.0000 0.67790  0.31033  0.71080  Biso   1.000  O
  C97      1.0000 0.71780  0.45350  0.55440  Biso   1.000  C
  C98      1.0000 0.77980  0.40870  0.53350  Biso   1.000  C
  H37      1.0000 0.84480  0.40770  0.49600  Biso   1.000  H
  C99      1.0000 0.74710  0.36490  0.56740  Biso   1.000  C
  C100     1.0000 0.64770  0.36690  0.62230  Biso   1.000  C
  C101     1.0000 0.58560  0.41210  0.64340  Biso   1.000  C
  H38      1.0000 0.51790  0.41330  0.68010  Biso   1.000  H
  C102     1.0000 0.62370  0.45510  0.61020  Biso   1.000  C
  H39      1.0000 0.58530  0.48530  0.62570  Biso   1.000  H
  C103     1.0000 0.81880  0.31690  0.54360  Biso   1.000  C
  C104     1.0000 0.59710  0.32220  0.66200  Biso   1.000  C
  O53      1.0000 0.43440  0.81916  0.50230  Biso   1.000  O
  O54      1.0000 0.26330  0.77703  0.56577  Biso   1.000  O
  O55      1.0000 0.96250  0.80130  0.64610  Biso   1.000  O
  O56      1.0000 0.17790  0.81033  0.71080  Biso   1.000  O
  C105     1.0000 0.21780  0.95350  0.55440  Biso   1.000  C
  C106     1.0000 0.27980  0.90870  0.53350  Biso   1.000  C
  H40      1.0000 0.34480  0.90770  0.49600  Biso   1.000  H
  C107     1.0000 0.24710  0.86490  0.56740  Biso   1.000  C
  C108     1.0000 0.14770  0.86690  0.62230  Biso   1.000  C
  C109     1.0000 0.08560  0.91210  0.64340  Biso   1.000  C
  H41      1.0000 0.01790  0.91330  0.68010  Biso   1.000  H
  C110     1.0000 0.12370  0.95510  0.61020  Biso   1.000  C
  H42      1.0000 0.08530  0.98530  0.62570  Biso   1.000  H
  C111     1.0000 0.31880  0.81690  0.54360  Biso   1.000  C
  C112     1.0000 0.09710  0.82220  0.66200  Biso   1.000  C
  O57      1.0000 0.56560  0.68084  0.50230  Biso   1.000  O
  O58      1.0000 0.73670  0.72297  0.56577  Biso   1.000  O
  O59      1.0000 0.03750  0.69870  0.64610  Biso   1.000  O
  O60      1.0000 0.82210  0.68967  0.71080  Biso   1.000  O
  C113     1.0000 0.78220  0.54650  0.55440  Biso   1.000  C
  C114     1.0000 0.72020  0.59130  0.53350  Biso   1.000  C
  H43      1.0000 0.65520  0.59230  0.49600  Biso   1.000  H
  C115     1.0000 0.75290  0.63510  0.56740  Biso   1.000  C
  C116     1.0000 0.85230  0.63310  0.62230  Biso   1.000  C
  C117     1.0000 0.91440  0.58790  0.64340  Biso   1.000  C
  H44      1.0000 0.98210  0.58670  0.68010  Biso   1.000  H
  C118     1.0000 0.87630  0.54490  0.61020  Biso   1.000  C
  H45      1.0000 0.91470  0.51470  0.62570  Biso   1.000  H
  C119     1.0000 0.68120  0.68310  0.54360  Biso   1.000  C
  C120     1.0000 0.90290  0.67780  0.66200  Biso   1.000  C
  O61      1.0000 0.06560  0.18084  0.50230  Biso   1.000  O
  O62      1.0000 0.23670  0.22297  0.56577  Biso   1.000  O
  O63      1.0000 0.53750  0.19870  0.64610  Biso   1.000  O
  O64      1.0000 0.32210  0.18967  0.71080  Biso   1.000  O
  C121     1.0000 0.28220  0.04650  0.55440  Biso   1.000  C
  C122     1.0000 0.22020  0.09130  0.53350  Biso   1.000  C
  H46      1.0000 0.15520  0.09230  0.49600  Biso   1.000  H
  C123     1.0000 0.25290  0.13510  0.56740  Biso   1.000  C
  C124     1.0000 0.35230  0.13310  0.62230  Biso   1.000  C
  C125     1.0000 0.41440  0.08790  0.64340  Biso   1.000  C
  H47      1.0000 0.48210  0.08670  0.68010  Biso   1.000  H
  C126     1.0000 0.37630  0.04490  0.61020  Biso   1.000  C
  H48      1.0000 0.41470  0.01470  0.62570  Biso   1.000  H
  C127     1.0000 0.18120  0.18310  0.54360  Biso   1.000  C
  C128     1.0000 0.40290  0.17780  0.66200  Biso   1.000  C
  Cd1      1.0000 0.50000  0.75000  0.25000  Biso   1.000  Cd
  Cd2      1.0000 0.00000  0.25000  0.25000  Biso   1.000  Cd
  Cd3      1.0000 0.50000  0.25000  0.75000  Biso   1.000  Cd
  Cd4      1.0000 0.00000  0.75000  0.75000  Biso   1.000  Cd
  Cd5      1.0000 0.00000  0.75000  0.95070  Biso   1.000  Cd
  Cd6      1.0000 0.50000  0.25000  0.95070  Biso   1.000  Cd
  Cd7      1.0000 0.00000  0.75000  0.54930  Biso   1.000  Cd
  Cd8      1.0000 0.50000  0.25000  0.54930  Biso   1.000  Cd
  Cd9      1.0000 0.00000  0.25000  0.04930  Biso   1.000  Cd
  Cd10     1.0000 0.50000  0.75000  0.04930  Biso   1.000  Cd
  Cd11     1.0000 0.00000  0.25000  0.45070  Biso   1.000  Cd
  Cd12     1.0000 0.50000  0.75000  0.45070  Biso   1.000  Cd
  O65      1.0000 0.75000  0.50000  0.95730  Biso   1.000  O
  C129     1.0000 0.75000  0.50000  0.01700  Biso   1.000  C
  O66      1.0000 0.25000  0.00000  0.95730  Biso   1.000  O
  C130     1.0000 0.25000  0.00000  0.01700  Biso   1.000  C
  O67      1.0000 0.25000  0.50000  0.54270  Biso   1.000  O
  C131     1.0000 0.25000  0.50000  0.48300  Biso   1.000  C
  O68      1.0000 0.75000  0.00000  0.54270  Biso   1.000  O
  C132     1.0000 0.75000  0.00000  0.48300  Biso   1.000  C
  O69      1.0000 0.25000  0.50000  0.04270  Biso   1.000  O
  C133     1.0000 0.25000  0.50000  0.98300  Biso   1.000  C
  O70      1.0000 0.75000  0.00000  0.04270  Biso   1.000  O
  C134     1.0000 0.75000  0.00000  0.98300  Biso   1.000  C
  O71      1.0000 0.75000  0.50000  0.45730  Biso   1.000  O
  C135     1.0000 0.75000  0.50000  0.51700  Biso   1.000  C
  O72      1.0000 0.25000  0.00000  0.45730  Biso   1.000  O
  C136     1.0000 0.25000  0.00000  0.51700  Biso   1.000  C
