data_image0
_cell_length_a       9.9144
_cell_length_b       14.4414
_cell_length_c       14.9785
_cell_angle_alpha    90
_cell_angle_beta     98.887
_cell_angle_gamma    90

_symmetry_space_group_name_H-M    "P 1"
_symmetry_int_tables_number       1

loop_
  _symmetry_equiv_pos_as_xyz
  'x, y, z'

loop_
  _atom_site_label
  _atom_site_occupancy
  _atom_site_fract_x
  _atom_site_fract_y
  _atom_site_fract_z
  _atom_site_thermal_displace_type
  _atom_site_B_iso_or_equiv
  _atom_site_type_symbol
  Zn1      1.0000 0.34068  0.74059  0.99796  Biso   1.000  Zn
  Zn2      1.0000 0.31511  0.62062  0.37396  Biso   1.000  Zn
  Zn3      1.0000 0.20854  0.41675  0.18358  Biso   1.000  Zn
  P1       1.0000 0.25290  0.91561  0.09966  Biso   1.000  P
  H1       1.0000 0.14400  0.85800  0.10550  Biso   1.000  H
  P2       1.0000 0.29000  0.62290  0.16588  Biso   1.000  P
  H2       1.0000 0.21000  0.68900  0.17710  Biso   1.000  H
  P3       1.0000 0.02330  0.71399  0.94175  Biso   1.000  P
  H3       1.0000 0.03800  0.67700  0.02700  Biso   1.000  H
  P4       1.0000 0.60080  0.72572  0.88969  Biso   1.000  P
  H4       1.0000 0.68800  0.70810  0.97300  Biso   1.000  H
  O1       1.0000 0.34000  0.86900  0.03720  Biso   1.000  O
  O2       1.0000 0.16620  0.72520  0.91820  Biso   1.000  O
  O3       1.0000 0.37760  0.65590  0.09710  Biso   1.000  O
  O4       1.0000 0.45560  0.71950  0.90840  Biso   1.000  O
  O5       1.0000 0.37960  0.60610  0.25710  Biso   1.000  O
  O6       1.0000 0.19570  0.00630  0.06040  Biso   1.000  O
  O7       1.0000 0.63320  0.82240  0.85910  Biso   1.000  O
  O8       1.0000 0.95030  0.80450  0.94520  Biso   1.000  O
  O9       1.0000 0.20240  0.54130  0.13420  Biso   1.000  O
  O10      1.0000 0.62560  0.65000  0.82430  Biso   1.000  O
  O11      1.0000 0.33190  0.92620  0.19460  Biso   1.000  O
  O12      1.0000 0.94720  0.64470  0.88030  Biso   1.000  O
  Zn4      1.0000 0.15932  0.24059  0.50204  Biso   1.000  Zn
  Zn5      1.0000 0.18489  0.12062  0.12604  Biso   1.000  Zn
  Zn6      1.0000 0.29146  0.91675  0.31642  Biso   1.000  Zn
  P5       1.0000 0.24710  0.41561  0.40034  Biso   1.000  P
  H5       1.0000 0.35600  0.35800  0.39450  Biso   1.000  H
  P6       1.0000 0.21000  0.12290  0.33412  Biso   1.000  P
  H6       1.0000 0.29000  0.18900  0.32290  Biso   1.000  H
  P7       1.0000 0.47670  0.21399  0.55825  Biso   1.000  P
  H7       1.0000 0.46200  0.17700  0.47300  Biso   1.000  H
  P8       1.0000 0.89920  0.22572  0.61031  Biso   1.000  P
  H8       1.0000 0.81200  0.20810  0.52700  Biso   1.000  H
  O13      1.0000 0.16000  0.36900  0.46280  Biso   1.000  O
  O14      1.0000 0.33380  0.22520  0.58180  Biso   1.000  O
  O15      1.0000 0.12240  0.15590  0.40290  Biso   1.000  O
  O16      1.0000 0.04440  0.21950  0.59160  Biso   1.000  O
  O17      1.0000 0.12040  0.10610  0.24290  Biso   1.000  O
  O18      1.0000 0.30430  0.50630  0.43960  Biso   1.000  O
  O19      1.0000 0.86680  0.32240  0.64090  Biso   1.000  O
  O20      1.0000 0.54970  0.30450  0.55480  Biso   1.000  O
  O21      1.0000 0.29760  0.04130  0.36580  Biso   1.000  O
  O22      1.0000 0.87440  0.15000  0.67570  Biso   1.000  O
  O23      1.0000 0.16810  0.42620  0.30540  Biso   1.000  O
  O24      1.0000 0.55280  0.14470  0.61970  Biso   1.000  O
  Zn7      1.0000 0.65932  0.25941  0.00204  Biso   1.000  Zn
  Zn8      1.0000 0.68489  0.37938  0.62604  Biso   1.000  Zn
  Zn9      1.0000 0.79146  0.58325  0.81642  Biso   1.000  Zn
  P9       1.0000 0.74710  0.08439  0.90034  Biso   1.000  P
  H9       1.0000 0.85600  0.14200  0.89450  Biso   1.000  H
  P10      1.0000 0.71000  0.37710  0.83412  Biso   1.000  P
  H10      1.0000 0.79000  0.31100  0.82290  Biso   1.000  H
  P11      1.0000 0.97670  0.28601  0.05825  Biso   1.000  P
  H11      1.0000 0.96200  0.32300  0.97300  Biso   1.000  H
  P12      1.0000 0.39920  0.27428  0.11031  Biso   1.000  P
  H12      1.0000 0.31200  0.29190  0.02700  Biso   1.000  H
  O25      1.0000 0.66000  0.13100  0.96280  Biso   1.000  O
  O26      1.0000 0.83380  0.27480  0.08180  Biso   1.000  O
  O27      1.0000 0.62240  0.34410  0.90290  Biso   1.000  O
  O28      1.0000 0.54440  0.28050  0.09160  Biso   1.000  O
  O29      1.0000 0.62040  0.39390  0.74290  Biso   1.000  O
  O30      1.0000 0.80430  0.99370  0.93960  Biso   1.000  O
  O31      1.0000 0.36680  0.17760  0.14090  Biso   1.000  O
  O32      1.0000 0.04970  0.19550  0.05480  Biso   1.000  O
  O33      1.0000 0.79760  0.45870  0.86580  Biso   1.000  O
  O34      1.0000 0.37440  0.35000  0.17570  Biso   1.000  O
  O35      1.0000 0.66810  0.07380  0.80540  Biso   1.000  O
  O36      1.0000 0.05280  0.35530  0.11970  Biso   1.000  O
  Zn10     1.0000 0.84068  0.75941  0.49796  Biso   1.000  Zn
  Zn11     1.0000 0.81511  0.87938  0.87396  Biso   1.000  Zn
  Zn12     1.0000 0.70854  0.08325  0.68358  Biso   1.000  Zn
  P13      1.0000 0.75290  0.58439  0.59966  Biso   1.000  P
  H13      1.0000 0.64400  0.64200  0.60550  Biso   1.000  H
  P14      1.0000 0.79000  0.87710  0.66588  Biso   1.000  P
  H14      1.0000 0.71000  0.81100  0.67710  Biso   1.000  H
  P15      1.0000 0.52330  0.78601  0.44175  Biso   1.000  P
  H15      1.0000 0.53800  0.82300  0.52700  Biso   1.000  H
  P16      1.0000 0.10080  0.77428  0.38969  Biso   1.000  P
  H16      1.0000 0.18800  0.79190  0.47300  Biso   1.000  H
  O37      1.0000 0.84000  0.63100  0.53720  Biso   1.000  O
  O38      1.0000 0.66620  0.77480  0.41820  Biso   1.000  O
  O39      1.0000 0.87760  0.84410  0.59710  Biso   1.000  O
  O40      1.0000 0.95560  0.78050  0.40840  Biso   1.000  O
  O41      1.0000 0.87960  0.89390  0.75710  Biso   1.000  O
  O42      1.0000 0.69570  0.49370  0.56040  Biso   1.000  O
  O43      1.0000 0.13320  0.67760  0.35910  Biso   1.000  O
  O44      1.0000 0.45030  0.69550  0.44520  Biso   1.000  O
  O45      1.0000 0.70240  0.95870  0.63420  Biso   1.000  O
  O46      1.0000 0.12560  0.85000  0.32430  Biso   1.000  O
  O47      1.0000 0.83190  0.57380  0.69460  Biso   1.000  O
  O48      1.0000 0.44720  0.85530  0.38030  Biso   1.000  O
