data_image0
_cell_length_a       13.8224
_cell_length_b       13.8224
_cell_length_c       14.376
_cell_angle_alpha    61.9182
_cell_angle_beta     61.9182
_cell_angle_gamma    79.7099

_symmetry_space_group_name_H-M    P 1
_symmetry_int_tables_number       1

loop_
  _symmetry_equiv_pos_as_xyz
  'x, y, z'

loop_
  _atom_site_label
  _atom_site_occupancy
  _atom_site_fract_x
  _atom_site_fract_y
  _atom_site_fract_z
  _atom_site_thermal_displace_type
  _atom_site_B_iso_or_equiv
  _atom_site_type_symbol
  Zn1      1.0000 0.10439  0.89561  0.50000  Biso   1.000  Zn
  Zn2      1.0000 0.89561  0.10439  0.50000  Biso   1.000  Zn
  Zn3      1.0000 0.01934  0.01934  0.08497  Biso   1.000  Zn
  Zn4      1.0000 0.98066  0.98066  0.91503  Biso   1.000  Zn
  H1       1.0000 0.92590  0.74250  0.54100  Biso   1.000  H
  H2       1.0000 0.06930  0.37770  0.88470  Biso   1.000  H
  H3       1.0000 0.07410  0.56390  0.77150  Biso   1.000  H
  H4       1.0000 0.95840  0.51100  0.59630  Biso   1.000  H
  H5       1.0000 0.95950  0.32590  0.70220  Biso   1.000  H
  H6       1.0000 0.18440  0.85080  0.69360  Biso   1.000  H
  H7       1.0000 0.11160  0.82920  0.82500  Biso   1.000  H
  H8       1.0000 0.08640  0.76220  0.77550  Biso   1.000  H
  H9       1.0000 0.25750  0.07410  0.45900  Biso   1.000  H
  H10      1.0000 0.62230  0.93070  0.11530  Biso   1.000  H
  H11      1.0000 0.43610  0.92590  0.22850  Biso   1.000  H
  H12      1.0000 0.48900  0.04160  0.40370  Biso   1.000  H
  H13      1.0000 0.67410  0.04050  0.29780  Biso   1.000  H
  H14      1.0000 0.14920  0.81560  0.30640  Biso   1.000  H
  H15      1.0000 0.17080  0.88840  0.17500  Biso   1.000  H
  H16      1.0000 0.23780  0.91360  0.22450  Biso   1.000  H
  H17      1.0000 0.07410  0.25750  0.45900  Biso   1.000  H
  H18      1.0000 0.93070  0.62230  0.11530  Biso   1.000  H
  H19      1.0000 0.92590  0.43610  0.22850  Biso   1.000  H
  H20      1.0000 0.04160  0.48900  0.40370  Biso   1.000  H
  H21      1.0000 0.04050  0.67410  0.29780  Biso   1.000  H
  H22      1.0000 0.81560  0.14920  0.30640  Biso   1.000  H
  H23      1.0000 0.88840  0.17080  0.17500  Biso   1.000  H
  H24      1.0000 0.91360  0.23780  0.22450  Biso   1.000  H
  H25      1.0000 0.74250  0.92590  0.54100  Biso   1.000  H
  H26      1.0000 0.37770  0.06930  0.88470  Biso   1.000  H
  H27      1.0000 0.56390  0.07410  0.77150  Biso   1.000  H
  H28      1.0000 0.51100  0.95840  0.59630  Biso   1.000  H
  H29      1.0000 0.32590  0.95950  0.70220  Biso   1.000  H
  H30      1.0000 0.85080  0.18440  0.69360  Biso   1.000  H
  H31      1.0000 0.82920  0.11160  0.82500  Biso   1.000  H
  H32      1.0000 0.76220  0.08640  0.77550  Biso   1.000  H
  C1       1.0000 0.00750  0.20910  0.88250  Biso   1.000  C
  C2       1.0000 0.01440  0.33180  0.80670  Biso   1.000  C
  C3       1.0000 0.04850  0.40350  0.82450  Biso   1.000  C
  C4       1.0000 0.05360  0.51600  0.75440  Biso   1.000  C
  C5       1.0000 0.02980  0.55700  0.66380  Biso   1.000  C
  C6       1.0000 0.98610  0.48410  0.65110  Biso   1.000  C
  C7       1.0000 0.98300  0.37360  0.71730  Biso   1.000  C
  C8       1.0000 0.03850  0.67830  0.58510  Biso   1.000  C
  C9       1.0000 0.03690  0.91730  0.72100  Biso   1.000  C
  C10      1.0000 0.11140  0.83240  0.75690  Biso   1.000  C
  C11      1.0000 0.79090  0.99250  0.11750  Biso   1.000  C
  C12      1.0000 0.66820  0.98560  0.19330  Biso   1.000  C
  C13      1.0000 0.59650  0.95150  0.17550  Biso   1.000  C
  C14      1.0000 0.48400  0.94640  0.24560  Biso   1.000  C
  C15      1.0000 0.44300  0.97020  0.33620  Biso   1.000  C
  C16      1.0000 0.51590  0.01390  0.34890  Biso   1.000  C
  C17      1.0000 0.62640  0.01700  0.28270  Biso   1.000  C
  C18      1.0000 0.32170  0.96150  0.41490  Biso   1.000  C
  C19      1.0000 0.08270  0.96310  0.27900  Biso   1.000  C
  C20      1.0000 0.16760  0.88860  0.24310  Biso   1.000  C
  C21      1.0000 0.99250  0.79090  0.11750  Biso   1.000  C
  C22      1.0000 0.98560  0.66820  0.19330  Biso   1.000  C
  C23      1.0000 0.95150  0.59650  0.17550  Biso   1.000  C
  C24      1.0000 0.94640  0.48400  0.24560  Biso   1.000  C
  C25      1.0000 0.97020  0.44300  0.33620  Biso   1.000  C
  C26      1.0000 0.01390  0.51590  0.34890  Biso   1.000  C
  C27      1.0000 0.01700  0.62640  0.28270  Biso   1.000  C
  C28      1.0000 0.96150  0.32170  0.41490  Biso   1.000  C
  C29      1.0000 0.96310  0.08270  0.27900  Biso   1.000  C
  C30      1.0000 0.88860  0.16760  0.24310  Biso   1.000  C
  C31      1.0000 0.20910  0.00750  0.88250  Biso   1.000  C
  C32      1.0000 0.33180  0.01440  0.80670  Biso   1.000  C
  C33      1.0000 0.40350  0.04850  0.82450  Biso   1.000  C
  C34      1.0000 0.51600  0.05360  0.75440  Biso   1.000  C
  C35      1.0000 0.55700  0.02980  0.66380  Biso   1.000  C
  C36      1.0000 0.48410  0.98610  0.65110  Biso   1.000  C
  C37      1.0000 0.37360  0.98300  0.71730  Biso   1.000  C
  C38      1.0000 0.67830  0.03850  0.58510  Biso   1.000  C
  C39      1.0000 0.91730  0.03690  0.72100  Biso   1.000  C
  C40      1.0000 0.83240  0.11140  0.75690  Biso   1.000  C
  N1       1.0000 0.02500  0.94900  0.62410  Biso   1.000  N
  N2       1.0000 0.05100  0.97500  0.37590  Biso   1.000  N
  N3       1.0000 0.97500  0.05100  0.37590  Biso   1.000  N
  N4       1.0000 0.94900  0.02500  0.62410  Biso   1.000  N
  N5       1.0000 0.97220  0.97220  0.78230  Biso   1.000  N
  N6       1.0000 0.02780  0.02780  0.21770  Biso   1.000  N
  O1       1.0000 0.02210  0.17750  0.97180  Biso   1.000  O
  O2       1.0000 0.98790  0.14770  0.85090  Biso   1.000  O
  O3       1.0000 0.08270  0.73670  0.59240  Biso   1.000  O
  O4       1.0000 0.98910  0.71430  0.52320  Biso   1.000  O
  O5       1.0000 0.82250  0.97790  0.02820  Biso   1.000  O
  O6       1.0000 0.85230  0.01210  0.14910  Biso   1.000  O
  O7       1.0000 0.26330  0.91730  0.40760  Biso   1.000  O
  O8       1.0000 0.28570  0.01090  0.47680  Biso   1.000  O
  O9       1.0000 0.97790  0.82250  0.02820  Biso   1.000  O
  O10      1.0000 0.01210  0.85230  0.14910  Biso   1.000  O
  O11      1.0000 0.91730  0.26330  0.40760  Biso   1.000  O
  O12      1.0000 0.01090  0.28570  0.47680  Biso   1.000  O
  O13      1.0000 0.17750  0.02210  0.97180  Biso   1.000  O
  O14      1.0000 0.14770  0.98790  0.85090  Biso   1.000  O
  O15      1.0000 0.73670  0.08270  0.59240  Biso   1.000  O
  O16      1.0000 0.71430  0.98910  0.52320  Biso   1.000  O
