data_image0
_cell_length_a       13.7495
_cell_length_b       13.7495
_cell_length_c       25.533
_cell_angle_alpha    90
_cell_angle_beta     90
_cell_angle_gamma    90

_symmetry_space_group_name_H-M    P 1
_symmetry_int_tables_number       1

loop_
  _symmetry_equiv_pos_as_xyz
  'x, y, z'

loop_
  _atom_site_label
  _atom_site_occupancy
  _atom_site_fract_x
  _atom_site_fract_y
  _atom_site_fract_z
  _atom_site_thermal_displace_type
  _atom_site_B_iso_or_equiv
  _atom_site_type_symbol
  Ni1      1.0000 0.09338  0.24906  0.02368  Biso   1.000  Ni
  Ni2      1.0000 0.90662  0.75094  0.02368  Biso   1.000  Ni
  Ni3      1.0000 0.74906  0.59338  0.47632  Biso   1.000  Ni
  Ni4      1.0000 0.25094  0.40662  0.47632  Biso   1.000  Ni
  H1       1.0000 0.20030  0.20730  0.94260  Biso   1.000  H
  H2       1.0000 0.03950  0.25390  0.90020  Biso   1.000  H
  H3       1.0000 0.13650  0.12790  0.86380  Biso   1.000  H
  H4       1.0000 0.02630  0.13160  0.84810  Biso   1.000  H
  H5       1.0000 0.06220  0.05640  0.89000  Biso   1.000  H
  H6       1.0000 0.92160  0.36550  0.05410  Biso   1.000  H
  H7       1.0000 0.85210  0.43520  0.12770  Biso   1.000  H
  H8       1.0000 0.05410  0.30440  0.21440  Biso   1.000  H
  H9       1.0000 0.12210  0.24260  0.13760  Biso   1.000  H
  H10      1.0000 0.85030  0.46540  0.22040  Biso   1.000  H
  H11      1.0000 0.16780  0.44340  0.04590  Biso   1.000  H
  H12      1.0000 0.31050  0.52580  0.06440  Biso   1.000  H
  H13      1.0000 0.44810  0.27010  0.05930  Biso   1.000  H
  H14      1.0000 0.30400  0.19680  0.04010  Biso   1.000  H
  H15      1.0000 0.54720  0.41430  0.07070  Biso   1.000  H
  H16      1.0000 0.79970  0.79270  0.94260  Biso   1.000  H
  H17      1.0000 0.96050  0.74610  0.90020  Biso   1.000  H
  H18      1.0000 0.86350  0.87210  0.86380  Biso   1.000  H
  H19      1.0000 0.97370  0.86840  0.84810  Biso   1.000  H
  H20      1.0000 0.93780  0.94360  0.89000  Biso   1.000  H
  H21      1.0000 0.07840  0.63450  0.05410  Biso   1.000  H
  H22      1.0000 0.14790  0.56480  0.12770  Biso   1.000  H
  H23      1.0000 0.94590  0.69560  0.21440  Biso   1.000  H
  H24      1.0000 0.87790  0.75740  0.13760  Biso   1.000  H
  H25      1.0000 0.14970  0.53460  0.22040  Biso   1.000  H
  H26      1.0000 0.83220  0.55660  0.04590  Biso   1.000  H
  H27      1.0000 0.68950  0.47420  0.06440  Biso   1.000  H
  H28      1.0000 0.55190  0.72990  0.05930  Biso   1.000  H
  H29      1.0000 0.69600  0.80320  0.04010  Biso   1.000  H
  H30      1.0000 0.45280  0.58570  0.07070  Biso   1.000  H
  H31      1.0000 0.70730  0.70030  0.55740  Biso   1.000  H
  H32      1.0000 0.75390  0.53950  0.59980  Biso   1.000  H
  H33      1.0000 0.62790  0.63650  0.63620  Biso   1.000  H
  H34      1.0000 0.63160  0.52630  0.65190  Biso   1.000  H
  H35      1.0000 0.55640  0.56220  0.61000  Biso   1.000  H
  H36      1.0000 0.86550  0.42160  0.44590  Biso   1.000  H
  H37      1.0000 0.93520  0.35210  0.37230  Biso   1.000  H
  H38      1.0000 0.80440  0.55410  0.28560  Biso   1.000  H
  H39      1.0000 0.74260  0.62210  0.36240  Biso   1.000  H
  H40      1.0000 0.96540  0.35030  0.27960  Biso   1.000  H
  H41      1.0000 0.94340  0.66780  0.45410  Biso   1.000  H
  H42      1.0000 0.02580  0.81050  0.43560  Biso   1.000  H
  H43      1.0000 0.77010  0.94810  0.44070  Biso   1.000  H
  H44      1.0000 0.69680  0.80400  0.45990  Biso   1.000  H
  H45      1.0000 0.91430  0.04720  0.42930  Biso   1.000  H
  H46      1.0000 0.29270  0.29970  0.55740  Biso   1.000  H
  H47      1.0000 0.24610  0.46050  0.59980  Biso   1.000  H
  H48      1.0000 0.37210  0.36350  0.63620  Biso   1.000  H
  H49      1.0000 0.36840  0.47370  0.65190  Biso   1.000  H
  H50      1.0000 0.44360  0.43780  0.61000  Biso   1.000  H
  H51      1.0000 0.13450  0.57840  0.44590  Biso   1.000  H
  H52      1.0000 0.06480  0.64790  0.37230  Biso   1.000  H
  H53      1.0000 0.19560  0.44590  0.28560  Biso   1.000  H
  H54      1.0000 0.25740  0.37790  0.36240  Biso   1.000  H
  H55      1.0000 0.03460  0.64970  0.27960  Biso   1.000  H
  H56      1.0000 0.05660  0.33220  0.45410  Biso   1.000  H
  H57      1.0000 0.97420  0.18950  0.43560  Biso   1.000  H
  H58      1.0000 0.22990  0.05190  0.44070  Biso   1.000  H
  H59      1.0000 0.30320  0.19600  0.45990  Biso   1.000  H
  H60      1.0000 0.08570  0.95280  0.42930  Biso   1.000  H
  C1       1.0000 0.96340  0.17220  0.95120  Biso   1.000  C
  C2       1.0000 0.05300  0.19250  0.91820  Biso   1.000  C
  C3       1.0000 0.07110  0.12090  0.87640  Biso   1.000  C
  C4       1.0000 0.95000  0.35450  0.08660  Biso   1.000  C
  C5       1.0000 0.90620  0.39510  0.13100  Biso   1.000  C
  C6       1.0000 0.94380  0.37540  0.17910  Biso   1.000  C
  C7       1.0000 0.02600  0.31840  0.18210  Biso   1.000  C
  C8       1.0000 0.06710  0.28170  0.13550  Biso   1.000  C
  C9       1.0000 0.89830  0.41880  0.22600  Biso   1.000  C
  C10      1.0000 0.22500  0.40750  0.04830  Biso   1.000  C
  C11      1.0000 0.31070  0.45880  0.05910  Biso   1.000  C
  C12      1.0000 0.39760  0.40390  0.06150  Biso   1.000  C
  C13      1.0000 0.39220  0.30780  0.05590  Biso   1.000  C
  C14      1.0000 0.30450  0.26380  0.04510  Biso   1.000  C
  C15      1.0000 0.49270  0.45380  0.06700  Biso   1.000  C
  C16      1.0000 0.03660  0.82780  0.95120  Biso   1.000  C
  C17      1.0000 0.94700  0.80750  0.91820  Biso   1.000  C
  C18      1.0000 0.92890  0.87910  0.87640  Biso   1.000  C
  C19      1.0000 0.05000  0.64550  0.08660  Biso   1.000  C
  C20      1.0000 0.09380  0.60490  0.13100  Biso   1.000  C
  C21      1.0000 0.05620  0.62460  0.17910  Biso   1.000  C
  C22      1.0000 0.97400  0.68160  0.18210  Biso   1.000  C
  C23      1.0000 0.93290  0.71830  0.13550  Biso   1.000  C
  C24      1.0000 0.10170  0.58120  0.22600  Biso   1.000  C
  C25      1.0000 0.77500  0.59250  0.04830  Biso   1.000  C
  C26      1.0000 0.68930  0.54120  0.05910  Biso   1.000  C
  C27      1.0000 0.60240  0.59610  0.06150  Biso   1.000  C
  C28      1.0000 0.60780  0.69220  0.05590  Biso   1.000  C
  C29      1.0000 0.69550  0.73620  0.04510  Biso   1.000  C
  C30      1.0000 0.50730  0.54620  0.06700  Biso   1.000  C
  C31      1.0000 0.67220  0.46340  0.54880  Biso   1.000  C
  C32      1.0000 0.69250  0.55300  0.58180  Biso   1.000  C
  C33      1.0000 0.62090  0.57110  0.62360  Biso   1.000  C
  C34      1.0000 0.85450  0.45000  0.41340  Biso   1.000  C
  C35      1.0000 0.89510  0.40620  0.36900  Biso   1.000  C
  C36      1.0000 0.87540  0.44380  0.32090  Biso   1.000  C
  C37      1.0000 0.81840  0.52600  0.31790  Biso   1.000  C
  C38      1.0000 0.78170  0.56710  0.36450  Biso   1.000  C
  C39      1.0000 0.91880  0.39830  0.27400  Biso   1.000  C
  C40      1.0000 0.90750  0.72500  0.45170  Biso   1.000  C
  C41      1.0000 0.95880  0.81070  0.44090  Biso   1.000  C
  C42      1.0000 0.90390  0.89760  0.43850  Biso   1.000  C
  C43      1.0000 0.80780  0.89220  0.44410  Biso   1.000  C
  C44      1.0000 0.76380  0.80450  0.45490  Biso   1.000  C
  C45      1.0000 0.95380  0.99270  0.43300  Biso   1.000  C
  C46      1.0000 0.32780  0.53660  0.54880  Biso   1.000  C
  C47      1.0000 0.30750  0.44700  0.58180  Biso   1.000  C
  C48      1.0000 0.37910  0.42890  0.62360  Biso   1.000  C
  C49      1.0000 0.14550  0.55000  0.41340  Biso   1.000  C
  C50      1.0000 0.10490  0.59380  0.36900  Biso   1.000  C
  C51      1.0000 0.12460  0.55620  0.32090  Biso   1.000  C
  C52      1.0000 0.18160  0.47400  0.31790  Biso   1.000  C
  C53      1.0000 0.21830  0.43290  0.36450  Biso   1.000  C
  C54      1.0000 0.08120  0.60170  0.27400  Biso   1.000  C
  C55      1.0000 0.09250  0.27500  0.45170  Biso   1.000  C
  C56      1.0000 0.04120  0.18930  0.44090  Biso   1.000  C
  C57      1.0000 0.09610  0.10240  0.43850  Biso   1.000  C
  C58      1.0000 0.19220  0.10780  0.44410  Biso   1.000  C
  C59      1.0000 0.23620  0.19550  0.45490  Biso   1.000  C
  C60      1.0000 0.04620  0.00730  0.43300  Biso   1.000  C
  N1       1.0000 0.13770  0.21240  0.95250  Biso   1.000  N
  N2       1.0000 0.02960  0.30130  0.08880  Biso   1.000  N
  N3       1.0000 0.21850  0.31260  0.04120  Biso   1.000  N
  N4       1.0000 0.86230  0.78760  0.95250  Biso   1.000  N
  N5       1.0000 0.97040  0.69870  0.08880  Biso   1.000  N
  N6       1.0000 0.78150  0.68740  0.04120  Biso   1.000  N
  N7       1.0000 0.71240  0.63770  0.54750  Biso   1.000  N
  N8       1.0000 0.80130  0.52960  0.41120  Biso   1.000  N
  N9       1.0000 0.81260  0.71850  0.45880  Biso   1.000  N
  N10      1.0000 0.28760  0.36230  0.54750  Biso   1.000  N
  N11      1.0000 0.19870  0.47040  0.41120  Biso   1.000  N
  N12      1.0000 0.18740  0.28150  0.45880  Biso   1.000  N
  O1       1.0000 0.96910  0.20180  0.99991  Biso   1.000  O
  O2       1.0000 0.89070  0.13650  0.93226  Biso   1.000  O
  O3       1.0000 0.03090  0.79820  0.99991  Biso   1.000  O
  O4       1.0000 0.10930  0.86350  0.93226  Biso   1.000  O
  O5       1.0000 0.70180  0.46910  0.50009  Biso   1.000  O
  O6       1.0000 0.63650  0.39070  0.56774  Biso   1.000  O
  O7       1.0000 0.29820  0.53090  0.50009  Biso   1.000  O
  O8       1.0000 0.36350  0.60930  0.56774  Biso   1.000  O
  Ni5      1.0000 0.24906  0.90662  0.97632  Biso   1.000  Ni
  Ni6      1.0000 0.75094  0.09338  0.97632  Biso   1.000  Ni
  Ni7      1.0000 0.59338  0.25094  0.52368  Biso   1.000  Ni
  Ni8      1.0000 0.40662  0.74906  0.52368  Biso   1.000  Ni
  H61      1.0000 0.20730  0.79970  0.05740  Biso   1.000  H
  H62      1.0000 0.25390  0.96050  0.09980  Biso   1.000  H
  H63      1.0000 0.12790  0.86350  0.13620  Biso   1.000  H
  H64      1.0000 0.13160  0.97370  0.15190  Biso   1.000  H
  H65      1.0000 0.05640  0.93780  0.11000  Biso   1.000  H
  H66      1.0000 0.36550  0.07840  0.94590  Biso   1.000  H
  H67      1.0000 0.43520  0.14790  0.87230  Biso   1.000  H
  H68      1.0000 0.30440  0.94590  0.78560  Biso   1.000  H
  H69      1.0000 0.24260  0.87790  0.86240  Biso   1.000  H
  H70      1.0000 0.46540  0.14970  0.77960  Biso   1.000  H
  H71      1.0000 0.44340  0.83220  0.95410  Biso   1.000  H
  H72      1.0000 0.52580  0.68950  0.93560  Biso   1.000  H
  H73      1.0000 0.27010  0.55190  0.94070  Biso   1.000  H
  H74      1.0000 0.19680  0.69600  0.95990  Biso   1.000  H
  H75      1.0000 0.41430  0.45280  0.92930  Biso   1.000  H
  H76      1.0000 0.79270  0.20030  0.05740  Biso   1.000  H
  H77      1.0000 0.74610  0.03950  0.09980  Biso   1.000  H
  H78      1.0000 0.87210  0.13650  0.13620  Biso   1.000  H
  H79      1.0000 0.86840  0.02630  0.15190  Biso   1.000  H
  H80      1.0000 0.94360  0.06220  0.11000  Biso   1.000  H
  H81      1.0000 0.63450  0.92160  0.94590  Biso   1.000  H
  H82      1.0000 0.56480  0.85210  0.87230  Biso   1.000  H
  H83      1.0000 0.69560  0.05410  0.78560  Biso   1.000  H
  H84      1.0000 0.75740  0.12210  0.86240  Biso   1.000  H
  H85      1.0000 0.53460  0.85030  0.77960  Biso   1.000  H
  H86      1.0000 0.55660  0.16780  0.95410  Biso   1.000  H
  H87      1.0000 0.47420  0.31050  0.93560  Biso   1.000  H
  H88      1.0000 0.72990  0.44810  0.94070  Biso   1.000  H
  H89      1.0000 0.80320  0.30400  0.95990  Biso   1.000  H
  H90      1.0000 0.58570  0.54720  0.92930  Biso   1.000  H
  H91      1.0000 0.70030  0.29270  0.44260  Biso   1.000  H
  H92      1.0000 0.53950  0.24610  0.40020  Biso   1.000  H
  H93      1.0000 0.63650  0.37210  0.36380  Biso   1.000  H
  H94      1.0000 0.52630  0.36840  0.34810  Biso   1.000  H
  H95      1.0000 0.56220  0.44360  0.39000  Biso   1.000  H
  H96      1.0000 0.42160  0.13450  0.55410  Biso   1.000  H
  H97      1.0000 0.35210  0.06480  0.62770  Biso   1.000  H
  H98      1.0000 0.55410  0.19560  0.71440  Biso   1.000  H
  H99      1.0000 0.62210  0.25740  0.63760  Biso   1.000  H
  H100     1.0000 0.35030  0.03460  0.72040  Biso   1.000  H
  H101     1.0000 0.66780  0.05660  0.54590  Biso   1.000  H
  H102     1.0000 0.81050  0.97420  0.56440  Biso   1.000  H
  H103     1.0000 0.94810  0.22990  0.55930  Biso   1.000  H
  H104     1.0000 0.80400  0.30320  0.54010  Biso   1.000  H
  H105     1.0000 0.04720  0.08570  0.57070  Biso   1.000  H
  H106     1.0000 0.29970  0.70730  0.44260  Biso   1.000  H
  H107     1.0000 0.46050  0.75390  0.40020  Biso   1.000  H
  H108     1.0000 0.36350  0.62790  0.36380  Biso   1.000  H
  H109     1.0000 0.47370  0.63160  0.34810  Biso   1.000  H
  H110     1.0000 0.43780  0.55640  0.39000  Biso   1.000  H
  H111     1.0000 0.57840  0.86550  0.55410  Biso   1.000  H
  H112     1.0000 0.64790  0.93520  0.62770  Biso   1.000  H
  H113     1.0000 0.44590  0.80440  0.71440  Biso   1.000  H
  H114     1.0000 0.37790  0.74260  0.63760  Biso   1.000  H
  H115     1.0000 0.64970  0.96540  0.72040  Biso   1.000  H
  H116     1.0000 0.33220  0.94340  0.54590  Biso   1.000  H
  H117     1.0000 0.18950  0.02580  0.56440  Biso   1.000  H
  H118     1.0000 0.05190  0.77010  0.55930  Biso   1.000  H
  H119     1.0000 0.19600  0.69680  0.54010  Biso   1.000  H
  H120     1.0000 0.95280  0.91430  0.57070  Biso   1.000  H
  C61      1.0000 0.17220  0.03660  0.04880  Biso   1.000  C
  C62      1.0000 0.19250  0.94700  0.08180  Biso   1.000  C
  C63      1.0000 0.12090  0.92890  0.12360  Biso   1.000  C
  C64      1.0000 0.35450  0.05000  0.91340  Biso   1.000  C
  C65      1.0000 0.39510  0.09380  0.86900  Biso   1.000  C
  C66      1.0000 0.37540  0.05620  0.82090  Biso   1.000  C
  C67      1.0000 0.31840  0.97400  0.81790  Biso   1.000  C
  C68      1.0000 0.28170  0.93290  0.86450  Biso   1.000  C
  C69      1.0000 0.41880  0.10170  0.77400  Biso   1.000  C
  C70      1.0000 0.40750  0.77500  0.95170  Biso   1.000  C
  C71      1.0000 0.45880  0.68930  0.94090  Biso   1.000  C
  C72      1.0000 0.40390  0.60240  0.93850  Biso   1.000  C
  C73      1.0000 0.30780  0.60780  0.94410  Biso   1.000  C
  C74      1.0000 0.26380  0.69550  0.95490  Biso   1.000  C
  C75      1.0000 0.45380  0.50730  0.93300  Biso   1.000  C
  C76      1.0000 0.82780  0.96340  0.04880  Biso   1.000  C
  C77      1.0000 0.80750  0.05300  0.08180  Biso   1.000  C
  C78      1.0000 0.87910  0.07110  0.12360  Biso   1.000  C
  C79      1.0000 0.64550  0.95000  0.91340  Biso   1.000  C
  C80      1.0000 0.60490  0.90620  0.86900  Biso   1.000  C
  C81      1.0000 0.62460  0.94380  0.82090  Biso   1.000  C
  C82      1.0000 0.68160  0.02600  0.81790  Biso   1.000  C
  C83      1.0000 0.71830  0.06710  0.86450  Biso   1.000  C
  C84      1.0000 0.58120  0.89830  0.77400  Biso   1.000  C
  C85      1.0000 0.59250  0.22500  0.95170  Biso   1.000  C
  C86      1.0000 0.54120  0.31070  0.94090  Biso   1.000  C
  C87      1.0000 0.59610  0.39760  0.93850  Biso   1.000  C
  C88      1.0000 0.69220  0.39220  0.94410  Biso   1.000  C
  C89      1.0000 0.73620  0.30450  0.95490  Biso   1.000  C
  C90      1.0000 0.54620  0.49270  0.93300  Biso   1.000  C
  C91      1.0000 0.46340  0.32780  0.45120  Biso   1.000  C
  C92      1.0000 0.55300  0.30750  0.41820  Biso   1.000  C
  C93      1.0000 0.57110  0.37910  0.37640  Biso   1.000  C
  C94      1.0000 0.45000  0.14550  0.58660  Biso   1.000  C
  C95      1.0000 0.40620  0.10490  0.63100  Biso   1.000  C
  C96      1.0000 0.44380  0.12460  0.67910  Biso   1.000  C
  C97      1.0000 0.52600  0.18160  0.68210  Biso   1.000  C
  C98      1.0000 0.56710  0.21830  0.63550  Biso   1.000  C
  C99      1.0000 0.39830  0.08120  0.72600  Biso   1.000  C
  C100     1.0000 0.72500  0.09250  0.54830  Biso   1.000  C
  C101     1.0000 0.81070  0.04120  0.55910  Biso   1.000  C
  C102     1.0000 0.89760  0.09610  0.56150  Biso   1.000  C
  C103     1.0000 0.89220  0.19220  0.55590  Biso   1.000  C
  C104     1.0000 0.80450  0.23620  0.54510  Biso   1.000  C
  C105     1.0000 0.99270  0.04620  0.56700  Biso   1.000  C
  C106     1.0000 0.53660  0.67220  0.45120  Biso   1.000  C
  C107     1.0000 0.44700  0.69250  0.41820  Biso   1.000  C
  C108     1.0000 0.42890  0.62090  0.37640  Biso   1.000  C
  C109     1.0000 0.55000  0.85450  0.58660  Biso   1.000  C
  C110     1.0000 0.59380  0.89510  0.63100  Biso   1.000  C
  C111     1.0000 0.55620  0.87540  0.67910  Biso   1.000  C
  C112     1.0000 0.47400  0.81840  0.68210  Biso   1.000  C
  C113     1.0000 0.43290  0.78170  0.63550  Biso   1.000  C
  C114     1.0000 0.60170  0.91880  0.72600  Biso   1.000  C
  C115     1.0000 0.27500  0.90750  0.54830  Biso   1.000  C
  C116     1.0000 0.18930  0.95880  0.55910  Biso   1.000  C
  C117     1.0000 0.10240  0.90390  0.56150  Biso   1.000  C
  C118     1.0000 0.10780  0.80780  0.55590  Biso   1.000  C
  C119     1.0000 0.19550  0.76380  0.54510  Biso   1.000  C
  C120     1.0000 0.00730  0.95380  0.56700  Biso   1.000  C
  N13      1.0000 0.21240  0.86230  0.04750  Biso   1.000  N
  N14      1.0000 0.30130  0.97040  0.91120  Biso   1.000  N
  N15      1.0000 0.31260  0.78150  0.95880  Biso   1.000  N
  N16      1.0000 0.78760  0.13770  0.04750  Biso   1.000  N
  N17      1.0000 0.69870  0.02960  0.91120  Biso   1.000  N
  N18      1.0000 0.68740  0.21850  0.95880  Biso   1.000  N
  N19      1.0000 0.63770  0.28760  0.45250  Biso   1.000  N
  N20      1.0000 0.52960  0.19870  0.58880  Biso   1.000  N
  N21      1.0000 0.71850  0.18740  0.54120  Biso   1.000  N
  N22      1.0000 0.36230  0.71240  0.45250  Biso   1.000  N
  N23      1.0000 0.47040  0.80130  0.58880  Biso   1.000  N
  N24      1.0000 0.28150  0.81260  0.54120  Biso   1.000  N
  O9       1.0000 0.20180  0.03090  0.00009  Biso   1.000  O
  O10      1.0000 0.13650  0.10930  0.06774  Biso   1.000  O
  O11      1.0000 0.79820  0.96910  0.00009  Biso   1.000  O
  O12      1.0000 0.86350  0.89070  0.06774  Biso   1.000  O
  O13      1.0000 0.46910  0.29820  0.49991  Biso   1.000  O
  O14      1.0000 0.39070  0.36350  0.43226  Biso   1.000  O
  O15      1.0000 0.53090  0.70180  0.49991  Biso   1.000  O
  O16      1.0000 0.60930  0.63650  0.43226  Biso   1.000  O
