data_image0
_cell_length_a       13.7561
_cell_length_b       13.7561
_cell_length_c       25.5306
_cell_angle_alpha    90
_cell_angle_beta     90
_cell_angle_gamma    90

_symmetry_space_group_name_H-M    P 1
_symmetry_int_tables_number       1

loop_
  _symmetry_equiv_pos_as_xyz
  'x, y, z'

loop_
  _atom_site_label
  _atom_site_occupancy
  _atom_site_fract_x
  _atom_site_fract_y
  _atom_site_fract_z
  _atom_site_thermal_displace_type
  _atom_site_B_iso_or_equiv
  _atom_site_type_symbol
  Cu1      1.0000 0.90661  0.75074  0.52373  Biso   1.000  Cu
  Cu2      1.0000 0.09339  0.24926  0.52373  Biso   1.000  Cu
  Cu3      1.0000 0.25074  0.40661  0.97627  Biso   1.000  Cu
  Cu4      1.0000 0.74926  0.59339  0.97627  Biso   1.000  Cu
  H1       1.0000 0.80290  0.79730  0.44290  Biso   1.000  H
  H2       1.0000 0.95390  0.74340  0.40030  Biso   1.000  H
  H3       1.0000 0.91910  0.94370  0.39460  Biso   1.000  H
  H4       1.0000 0.98230  0.88380  0.35500  Biso   1.000  H
  H5       1.0000 0.86980  0.86660  0.35800  Biso   1.000  H
  H6       1.0000 0.87860  0.75570  0.63790  Biso   1.000  H
  H7       1.0000 0.94260  0.69320  0.71340  Biso   1.000  H
  H8       1.0000 0.14850  0.56730  0.62730  Biso   1.000  H
  H9       1.0000 0.07470  0.63270  0.55270  Biso   1.000  H
  H10      1.0000 0.15400  0.53850  0.72000  Biso   1.000  H
  H11      1.0000 0.69740  0.80020  0.54140  Biso   1.000  H
  H12      1.0000 0.55500  0.73340  0.55420  Biso   1.000  H
  H13      1.0000 0.69190  0.47320  0.56180  Biso   1.000  H
  H14      1.0000 0.83510  0.55720  0.54710  Biso   1.000  H
  H15      1.0000 0.45330  0.58610  0.57110  Biso   1.000  H
  H16      1.0000 0.19710  0.20270  0.44290  Biso   1.000  H
  H17      1.0000 0.04610  0.25660  0.40030  Biso   1.000  H
  H18      1.0000 0.08090  0.05630  0.39460  Biso   1.000  H
  H19      1.0000 0.01770  0.11620  0.35500  Biso   1.000  H
  H20      1.0000 0.13020  0.13340  0.35800  Biso   1.000  H
  H21      1.0000 0.12140  0.24430  0.63790  Biso   1.000  H
  H22      1.0000 0.05740  0.30680  0.71340  Biso   1.000  H
  H23      1.0000 0.85150  0.43270  0.62730  Biso   1.000  H
  H24      1.0000 0.92530  0.36730  0.55270  Biso   1.000  H
  H25      1.0000 0.84600  0.46150  0.72000  Biso   1.000  H
  H26      1.0000 0.30260  0.19980  0.54140  Biso   1.000  H
  H27      1.0000 0.44500  0.26660  0.55420  Biso   1.000  H
  H28      1.0000 0.30810  0.52680  0.56180  Biso   1.000  H
  H29      1.0000 0.16490  0.44280  0.54710  Biso   1.000  H
  H30      1.0000 0.54670  0.41390  0.57110  Biso   1.000  H
  H31      1.0000 0.29730  0.30290  0.05710  Biso   1.000  H
  H32      1.0000 0.24340  0.45390  0.09970  Biso   1.000  H
  H33      1.0000 0.44370  0.41910  0.10540  Biso   1.000  H
  H34      1.0000 0.38380  0.48230  0.14500  Biso   1.000  H
  H35      1.0000 0.36660  0.36980  0.14200  Biso   1.000  H
  H36      1.0000 0.25570  0.37860  0.86210  Biso   1.000  H
  H37      1.0000 0.19320  0.44260  0.78660  Biso   1.000  H
  H38      1.0000 0.06730  0.64850  0.87270  Biso   1.000  H
  H39      1.0000 0.13270  0.57470  0.94730  Biso   1.000  H
  H40      1.0000 0.03850  0.65400  0.78000  Biso   1.000  H
  H41      1.0000 0.30020  0.19740  0.95860  Biso   1.000  H
  H42      1.0000 0.23340  0.05500  0.94580  Biso   1.000  H
  H43      1.0000 0.97320  0.19190  0.93820  Biso   1.000  H
  H44      1.0000 0.05720  0.33510  0.95290  Biso   1.000  H
  H45      1.0000 0.08610  0.95330  0.92890  Biso   1.000  H
  H46      1.0000 0.70270  0.69710  0.05710  Biso   1.000  H
  H47      1.0000 0.75660  0.54610  0.09970  Biso   1.000  H
  H48      1.0000 0.55630  0.58090  0.10540  Biso   1.000  H
  H49      1.0000 0.61620  0.51770  0.14500  Biso   1.000  H
  H50      1.0000 0.63340  0.63020  0.14200  Biso   1.000  H
  H51      1.0000 0.74430  0.62140  0.86210  Biso   1.000  H
  H52      1.0000 0.80680  0.55740  0.78660  Biso   1.000  H
  H53      1.0000 0.93270  0.35150  0.87270  Biso   1.000  H
  H54      1.0000 0.86730  0.42530  0.94730  Biso   1.000  H
  H55      1.0000 0.96150  0.34600  0.78000  Biso   1.000  H
  H56      1.0000 0.69980  0.80260  0.95860  Biso   1.000  H
  H57      1.0000 0.76660  0.94500  0.94580  Biso   1.000  H
  H58      1.0000 0.02680  0.80810  0.93820  Biso   1.000  H
  H59      1.0000 0.94280  0.66490  0.95290  Biso   1.000  H
  H60      1.0000 0.91390  0.04670  0.92890  Biso   1.000  H
  C1       1.0000 0.03950  0.82890  0.45130  Biso   1.000  C
  C2       1.0000 0.94250  0.80480  0.41880  Biso   1.000  C
  C3       1.0000 0.92700  0.88160  0.37790  Biso   1.000  C
  C4       1.0000 0.93340  0.71630  0.63570  Biso   1.000  C
  C5       1.0000 0.97200  0.68010  0.68140  Biso   1.000  C
  C6       1.0000 0.05680  0.62270  0.67900  Biso   1.000  C
  C7       1.0000 0.09310  0.60550  0.63090  Biso   1.000  C
  C8       1.0000 0.04800  0.64500  0.58560  Biso   1.000  C
  C9       1.0000 0.10420  0.58300  0.72550  Biso   1.000  C
  C10      1.0000 0.69580  0.73300  0.54490  Biso   1.000  C
  C11      1.0000 0.61030  0.69450  0.55340  Biso   1.000  C
  C12      1.0000 0.60310  0.59430  0.56150  Biso   1.000  C
  C13      1.0000 0.69140  0.54040  0.55790  Biso   1.000  C
  C14      1.0000 0.77710  0.59190  0.54820  Biso   1.000  C
  C15      1.0000 0.50740  0.54620  0.56720  Biso   1.000  C
  C16      1.0000 0.96050  0.17110  0.45130  Biso   1.000  C
  C17      1.0000 0.05750  0.19520  0.41880  Biso   1.000  C
  C18      1.0000 0.07300  0.11840  0.37790  Biso   1.000  C
  C19      1.0000 0.06660  0.28370  0.63570  Biso   1.000  C
  C20      1.0000 0.02800  0.31990  0.68140  Biso   1.000  C
  C21      1.0000 0.94320  0.37730  0.67900  Biso   1.000  C
  C22      1.0000 0.90690  0.39450  0.63090  Biso   1.000  C
  C23      1.0000 0.95200  0.35500  0.58560  Biso   1.000  C
  C24      1.0000 0.89580  0.41700  0.72550  Biso   1.000  C
  C25      1.0000 0.30420  0.26700  0.54490  Biso   1.000  C
  C26      1.0000 0.38970  0.30550  0.55340  Biso   1.000  C
  C27      1.0000 0.39690  0.40570  0.56150  Biso   1.000  C
  C28      1.0000 0.30860  0.45960  0.55790  Biso   1.000  C
  C29      1.0000 0.22290  0.40810  0.54820  Biso   1.000  C
  C30      1.0000 0.49260  0.45380  0.56720  Biso   1.000  C
  C31      1.0000 0.32890  0.53950  0.04870  Biso   1.000  C
  C32      1.0000 0.30480  0.44250  0.08120  Biso   1.000  C
  C33      1.0000 0.38160  0.42700  0.12210  Biso   1.000  C
  C34      1.0000 0.21630  0.43340  0.86430  Biso   1.000  C
  C35      1.0000 0.18010  0.47200  0.81860  Biso   1.000  C
  C36      1.0000 0.12270  0.55680  0.82100  Biso   1.000  C
  C37      1.0000 0.10550  0.59310  0.86910  Biso   1.000  C
  C38      1.0000 0.14500  0.54800  0.91440  Biso   1.000  C
  C39      1.0000 0.08300  0.60420  0.77450  Biso   1.000  C
  C40      1.0000 0.23300  0.19580  0.95510  Biso   1.000  C
  C41      1.0000 0.19450  0.11030  0.94660  Biso   1.000  C
  C42      1.0000 0.09430  0.10310  0.93850  Biso   1.000  C
  C43      1.0000 0.04040  0.19140  0.94210  Biso   1.000  C
  C44      1.0000 0.09190  0.27710  0.95180  Biso   1.000  C
  C45      1.0000 0.04620  0.00740  0.93280  Biso   1.000  C
  C46      1.0000 0.67110  0.46050  0.04870  Biso   1.000  C
  C47      1.0000 0.69520  0.55750  0.08120  Biso   1.000  C
  C48      1.0000 0.61840  0.57300  0.12210  Biso   1.000  C
  C49      1.0000 0.78370  0.56660  0.86430  Biso   1.000  C
  C50      1.0000 0.81990  0.52800  0.81860  Biso   1.000  C
  C51      1.0000 0.87730  0.44320  0.82100  Biso   1.000  C
  C52      1.0000 0.89450  0.40690  0.86910  Biso   1.000  C
  C53      1.0000 0.85500  0.45200  0.91440  Biso   1.000  C
  C54      1.0000 0.91700  0.39580  0.77450  Biso   1.000  C
  C55      1.0000 0.76700  0.80420  0.95510  Biso   1.000  C
  C56      1.0000 0.80550  0.88970  0.94660  Biso   1.000  C
  C57      1.0000 0.90570  0.89690  0.93850  Biso   1.000  C
  C58      1.0000 0.95960  0.80860  0.94210  Biso   1.000  C
  C59      1.0000 0.90810  0.72290  0.95180  Biso   1.000  C
  C60      1.0000 0.95380  0.99260  0.93280  Biso   1.000  C
  N1       1.0000 0.96960  0.69840  0.58920  Biso   1.000  N
  N2       1.0000 0.78090  0.68730  0.54050  Biso   1.000  N
  N3       1.0000 0.86260  0.79020  0.45200  Biso   1.000  N
  N4       1.0000 0.03040  0.30160  0.58920  Biso   1.000  N
  N5       1.0000 0.21910  0.31270  0.54050  Biso   1.000  N
  N6       1.0000 0.13740  0.20980  0.45200  Biso   1.000  N
  N7       1.0000 0.19840  0.46960  0.91080  Biso   1.000  N
  N8       1.0000 0.18730  0.28090  0.95950  Biso   1.000  N
  N9       1.0000 0.29020  0.36260  0.04800  Biso   1.000  N
  N10      1.0000 0.80160  0.53040  0.91080  Biso   1.000  N
  N11      1.0000 0.81270  0.71910  0.95950  Biso   1.000  N
  N12      1.0000 0.70980  0.63740  0.04800  Biso   1.000  N
  O1       1.0000 0.03030  0.79830  0.49930  Biso   1.000  O
  O2       1.0000 0.10940  0.86390  0.43180  Biso   1.000  O
  O3       1.0000 0.96970  0.20170  0.49930  Biso   1.000  O
  O4       1.0000 0.89060  0.13610  0.43180  Biso   1.000  O
  O5       1.0000 0.29830  0.53030  0.00070  Biso   1.000  O
  O6       1.0000 0.36390  0.60940  0.06820  Biso   1.000  O
  O7       1.0000 0.70170  0.46970  0.00070  Biso   1.000  O
  O8       1.0000 0.63610  0.39060  0.06820  Biso   1.000  O
  Cu5      1.0000 0.75074  0.09339  0.47627  Biso   1.000  Cu
  Cu6      1.0000 0.24926  0.90661  0.47627  Biso   1.000  Cu
  Cu7      1.0000 0.40661  0.74926  0.02373  Biso   1.000  Cu
  Cu8      1.0000 0.59339  0.25074  0.02373  Biso   1.000  Cu
  H61      1.0000 0.79730  0.19710  0.55710  Biso   1.000  H
  H62      1.0000 0.74340  0.04610  0.59970  Biso   1.000  H
  H63      1.0000 0.94370  0.08090  0.60540  Biso   1.000  H
  H64      1.0000 0.88380  0.01770  0.64500  Biso   1.000  H
  H65      1.0000 0.86660  0.13020  0.64200  Biso   1.000  H
  H66      1.0000 0.75570  0.12140  0.36210  Biso   1.000  H
  H67      1.0000 0.69320  0.05740  0.28660  Biso   1.000  H
  H68      1.0000 0.56730  0.85150  0.37270  Biso   1.000  H
  H69      1.0000 0.63270  0.92530  0.44730  Biso   1.000  H
  H70      1.0000 0.53850  0.84600  0.28000  Biso   1.000  H
  H71      1.0000 0.80020  0.30260  0.45860  Biso   1.000  H
  H72      1.0000 0.73340  0.44500  0.44580  Biso   1.000  H
  H73      1.0000 0.47320  0.30810  0.43820  Biso   1.000  H
  H74      1.0000 0.55720  0.16490  0.45290  Biso   1.000  H
  H75      1.0000 0.58610  0.54670  0.42890  Biso   1.000  H
  H76      1.0000 0.20270  0.80290  0.55710  Biso   1.000  H
  H77      1.0000 0.25660  0.95390  0.59970  Biso   1.000  H
  H78      1.0000 0.05630  0.91910  0.60540  Biso   1.000  H
  H79      1.0000 0.11620  0.98230  0.64500  Biso   1.000  H
  H80      1.0000 0.13340  0.86980  0.64200  Biso   1.000  H
  H81      1.0000 0.24430  0.87860  0.36210  Biso   1.000  H
  H82      1.0000 0.30680  0.94260  0.28660  Biso   1.000  H
  H83      1.0000 0.43270  0.14850  0.37270  Biso   1.000  H
  H84      1.0000 0.36730  0.07470  0.44730  Biso   1.000  H
  H85      1.0000 0.46150  0.15400  0.28000  Biso   1.000  H
  H86      1.0000 0.19980  0.69740  0.45860  Biso   1.000  H
  H87      1.0000 0.26660  0.55500  0.44580  Biso   1.000  H
  H88      1.0000 0.52680  0.69190  0.43820  Biso   1.000  H
  H89      1.0000 0.44280  0.83510  0.45290  Biso   1.000  H
  H90      1.0000 0.41390  0.45330  0.42890  Biso   1.000  H
  H91      1.0000 0.30290  0.70270  0.94290  Biso   1.000  H
  H92      1.0000 0.45390  0.75660  0.90030  Biso   1.000  H
  H93      1.0000 0.41910  0.55630  0.89460  Biso   1.000  H
  H94      1.0000 0.48230  0.61620  0.85500  Biso   1.000  H
  H95      1.0000 0.36980  0.63340  0.85800  Biso   1.000  H
  H96      1.0000 0.37860  0.74430  0.13790  Biso   1.000  H
  H97      1.0000 0.44260  0.80680  0.21340  Biso   1.000  H
  H98      1.0000 0.64850  0.93270  0.12730  Biso   1.000  H
  H99      1.0000 0.57470  0.86730  0.05270  Biso   1.000  H
  H100     1.0000 0.65400  0.96150  0.22000  Biso   1.000  H
  H101     1.0000 0.19740  0.69980  0.04140  Biso   1.000  H
  H102     1.0000 0.05500  0.76660  0.05420  Biso   1.000  H
  H103     1.0000 0.19190  0.02680  0.06180  Biso   1.000  H
  H104     1.0000 0.33510  0.94280  0.04710  Biso   1.000  H
  H105     1.0000 0.95330  0.91390  0.07110  Biso   1.000  H
  H106     1.0000 0.69710  0.29730  0.94290  Biso   1.000  H
  H107     1.0000 0.54610  0.24340  0.90030  Biso   1.000  H
  H108     1.0000 0.58090  0.44370  0.89460  Biso   1.000  H
  H109     1.0000 0.51770  0.38380  0.85500  Biso   1.000  H
  H110     1.0000 0.63020  0.36660  0.85800  Biso   1.000  H
  H111     1.0000 0.62140  0.25570  0.13790  Biso   1.000  H
  H112     1.0000 0.55740  0.19320  0.21340  Biso   1.000  H
  H113     1.0000 0.35150  0.06730  0.12730  Biso   1.000  H
  H114     1.0000 0.42530  0.13270  0.05270  Biso   1.000  H
  H115     1.0000 0.34600  0.03850  0.22000  Biso   1.000  H
  H116     1.0000 0.80260  0.30020  0.04140  Biso   1.000  H
  H117     1.0000 0.94500  0.23340  0.05420  Biso   1.000  H
  H118     1.0000 0.80810  0.97320  0.06180  Biso   1.000  H
  H119     1.0000 0.66490  0.05720  0.04710  Biso   1.000  H
  H120     1.0000 0.04670  0.08610  0.07110  Biso   1.000  H
  C61      1.0000 0.82890  0.96050  0.54870  Biso   1.000  C
  C62      1.0000 0.80480  0.05750  0.58120  Biso   1.000  C
  C63      1.0000 0.88160  0.07300  0.62210  Biso   1.000  C
  C64      1.0000 0.71630  0.06660  0.36430  Biso   1.000  C
  C65      1.0000 0.68010  0.02800  0.31860  Biso   1.000  C
  C66      1.0000 0.62270  0.94320  0.32100  Biso   1.000  C
  C67      1.0000 0.60550  0.90690  0.36910  Biso   1.000  C
  C68      1.0000 0.64500  0.95200  0.41440  Biso   1.000  C
  C69      1.0000 0.58300  0.89580  0.27450  Biso   1.000  C
  C70      1.0000 0.73300  0.30420  0.45510  Biso   1.000  C
  C71      1.0000 0.69450  0.38970  0.44660  Biso   1.000  C
  C72      1.0000 0.59430  0.39690  0.43850  Biso   1.000  C
  C73      1.0000 0.54040  0.30860  0.44210  Biso   1.000  C
  C74      1.0000 0.59190  0.22290  0.45180  Biso   1.000  C
  C75      1.0000 0.54620  0.49260  0.43280  Biso   1.000  C
  C76      1.0000 0.17110  0.03950  0.54870  Biso   1.000  C
  C77      1.0000 0.19520  0.94250  0.58120  Biso   1.000  C
  C78      1.0000 0.11840  0.92700  0.62210  Biso   1.000  C
  C79      1.0000 0.28370  0.93340  0.36430  Biso   1.000  C
  C80      1.0000 0.31990  0.97200  0.31860  Biso   1.000  C
  C81      1.0000 0.37730  0.05680  0.32100  Biso   1.000  C
  C82      1.0000 0.39450  0.09310  0.36910  Biso   1.000  C
  C83      1.0000 0.35500  0.04800  0.41440  Biso   1.000  C
  C84      1.0000 0.41700  0.10420  0.27450  Biso   1.000  C
  C85      1.0000 0.26700  0.69580  0.45510  Biso   1.000  C
  C86      1.0000 0.30550  0.61030  0.44660  Biso   1.000  C
  C87      1.0000 0.40570  0.60310  0.43850  Biso   1.000  C
  C88      1.0000 0.45960  0.69140  0.44210  Biso   1.000  C
  C89      1.0000 0.40810  0.77710  0.45180  Biso   1.000  C
  C90      1.0000 0.45380  0.50740  0.43280  Biso   1.000  C
  C91      1.0000 0.53950  0.67110  0.95130  Biso   1.000  C
  C92      1.0000 0.44250  0.69520  0.91880  Biso   1.000  C
  C93      1.0000 0.42700  0.61840  0.87790  Biso   1.000  C
  C94      1.0000 0.43340  0.78370  0.13570  Biso   1.000  C
  C95      1.0000 0.47200  0.81990  0.18140  Biso   1.000  C
  C96      1.0000 0.55680  0.87730  0.17900  Biso   1.000  C
  C97      1.0000 0.59310  0.89450  0.13090  Biso   1.000  C
  C98      1.0000 0.54800  0.85500  0.08560  Biso   1.000  C
  C99      1.0000 0.60420  0.91700  0.22550  Biso   1.000  C
  C100     1.0000 0.19580  0.76700  0.04490  Biso   1.000  C
  C101     1.0000 0.11030  0.80550  0.05340  Biso   1.000  C
  C102     1.0000 0.10310  0.90570  0.06150  Biso   1.000  C
  C103     1.0000 0.19140  0.95960  0.05790  Biso   1.000  C
  C104     1.0000 0.27710  0.90810  0.04820  Biso   1.000  C
  C105     1.0000 0.00740  0.95380  0.06720  Biso   1.000  C
  C106     1.0000 0.46050  0.32890  0.95130  Biso   1.000  C
  C107     1.0000 0.55750  0.30480  0.91880  Biso   1.000  C
  C108     1.0000 0.57300  0.38160  0.87790  Biso   1.000  C
  C109     1.0000 0.56660  0.21630  0.13570  Biso   1.000  C
  C110     1.0000 0.52800  0.18010  0.18140  Biso   1.000  C
  C111     1.0000 0.44320  0.12270  0.17900  Biso   1.000  C
  C112     1.0000 0.40690  0.10550  0.13090  Biso   1.000  C
  C113     1.0000 0.45200  0.14500  0.08560  Biso   1.000  C
  C114     1.0000 0.39580  0.08300  0.22550  Biso   1.000  C
  C115     1.0000 0.80420  0.23300  0.04490  Biso   1.000  C
  C116     1.0000 0.88970  0.19450  0.05340  Biso   1.000  C
  C117     1.0000 0.89690  0.09430  0.06150  Biso   1.000  C
  C118     1.0000 0.80860  0.04040  0.05790  Biso   1.000  C
  C119     1.0000 0.72290  0.09190  0.04820  Biso   1.000  C
  C120     1.0000 0.99260  0.04620  0.06720  Biso   1.000  C
  N13      1.0000 0.69840  0.03040  0.41080  Biso   1.000  N
  N14      1.0000 0.68730  0.21910  0.45950  Biso   1.000  N
  N15      1.0000 0.79020  0.13740  0.54800  Biso   1.000  N
  N16      1.0000 0.30160  0.96960  0.41080  Biso   1.000  N
  N17      1.0000 0.31270  0.78090  0.45950  Biso   1.000  N
  N18      1.0000 0.20980  0.86260  0.54800  Biso   1.000  N
  N19      1.0000 0.46960  0.80160  0.08920  Biso   1.000  N
  N20      1.0000 0.28090  0.81270  0.04050  Biso   1.000  N
  N21      1.0000 0.36260  0.70980  0.95200  Biso   1.000  N
  N22      1.0000 0.53040  0.19840  0.08920  Biso   1.000  N
  N23      1.0000 0.71910  0.18730  0.04050  Biso   1.000  N
  N24      1.0000 0.63740  0.29020  0.95200  Biso   1.000  N
  O9       1.0000 0.79830  0.96970  0.50070  Biso   1.000  O
  O10      1.0000 0.86390  0.89060  0.56820  Biso   1.000  O
  O11      1.0000 0.20170  0.03030  0.50070  Biso   1.000  O
  O12      1.0000 0.13610  0.10940  0.56820  Biso   1.000  O
  O13      1.0000 0.53030  0.70170  0.99930  Biso   1.000  O
  O14      1.0000 0.60940  0.63610  0.93180  Biso   1.000  O
  O15      1.0000 0.46970  0.29830  0.99930  Biso   1.000  O
  O16      1.0000 0.39060  0.36390  0.93180  Biso   1.000  O
