data_image0
_cell_length_a       13.7327
_cell_length_b       13.7327
_cell_length_c       25.466
_cell_angle_alpha    90
_cell_angle_beta     90
_cell_angle_gamma    90

_symmetry_space_group_name_H-M    P 1
_symmetry_int_tables_number       1

loop_
  _symmetry_equiv_pos_as_xyz
  'x, y, z'

loop_
  _atom_site_label
  _atom_site_occupancy
  _atom_site_fract_x
  _atom_site_fract_y
  _atom_site_fract_z
  _atom_site_thermal_displace_type
  _atom_site_B_iso_or_equiv
  _atom_site_type_symbol
  Ni1      1.0000 0.25231  0.40585  0.52372  Biso   1.000  Ni
  Ni2      1.0000 0.74769  0.59415  0.52372  Biso   1.000  Ni
  Ni3      1.0000 0.90585  0.75231  0.97628  Biso   1.000  Ni
  Ni4      1.0000 0.09415  0.24769  0.97628  Biso   1.000  Ni
  H1       1.0000 0.29470  0.30100  0.44290  Biso   1.000  H
  H2       1.0000 0.24860  0.45510  0.41360  Biso   1.000  H
  H3       1.0000 0.32770  0.50500  0.35720  Biso   1.000  H
  H4       1.0000 0.40450  0.42220  0.36610  Biso   1.000  H
  H5       1.0000 0.29620  0.39560  0.35290  Biso   1.000  H
  H6       1.0000 0.11700  0.56830  0.55160  Biso   1.000  H
  H7       1.0000 0.07430  0.65320  0.62660  Biso   1.000  H
  H8       1.0000 0.19360  0.44200  0.71460  Biso   1.000  H
  H9       1.0000 0.24850  0.38000  0.63570  Biso   1.000  H
  H10      1.0000 0.04060  0.65250  0.71940  Biso   1.000  H
  H11      1.0000 0.05440  0.33190  0.53850  Biso   1.000  H
  H12      1.0000 0.97160  0.18420  0.56760  Biso   1.000  H
  H13      1.0000 0.23510  0.04700  0.56240  Biso   1.000  H
  H14      1.0000 0.30640  0.19670  0.54580  Biso   1.000  H
  H15      1.0000 0.08870  0.94660  0.56510  Biso   1.000  H
  H16      1.0000 0.70530  0.69900  0.44290  Biso   1.000  H
  H17      1.0000 0.75140  0.54490  0.41360  Biso   1.000  H
  H18      1.0000 0.67230  0.49500  0.35720  Biso   1.000  H
  H19      1.0000 0.59550  0.57780  0.36610  Biso   1.000  H
  H20      1.0000 0.70380  0.60440  0.35290  Biso   1.000  H
  H21      1.0000 0.88300  0.43170  0.55160  Biso   1.000  H
  H22      1.0000 0.92570  0.34680  0.62660  Biso   1.000  H
  H23      1.0000 0.80640  0.55800  0.71460  Biso   1.000  H
  H24      1.0000 0.75150  0.62000  0.63570  Biso   1.000  H
  H25      1.0000 0.95940  0.34750  0.71940  Biso   1.000  H
  H26      1.0000 0.94560  0.66810  0.53850  Biso   1.000  H
  H27      1.0000 0.02840  0.81580  0.56760  Biso   1.000  H
  H28      1.0000 0.76490  0.95300  0.56240  Biso   1.000  H
  H29      1.0000 0.69360  0.80330  0.54580  Biso   1.000  H
  H30      1.0000 0.91130  0.05340  0.56510  Biso   1.000  H
  H31      1.0000 0.80100  0.79470  0.05710  Biso   1.000  H
  H32      1.0000 0.95510  0.74860  0.08640  Biso   1.000  H
  H33      1.0000 0.00500  0.82770  0.14280  Biso   1.000  H
  H34      1.0000 0.92220  0.90450  0.13390  Biso   1.000  H
  H35      1.0000 0.89560  0.79620  0.14710  Biso   1.000  H
  H36      1.0000 0.06830  0.61700  0.94840  Biso   1.000  H
  H37      1.0000 0.15320  0.57430  0.87340  Biso   1.000  H
  H38      1.0000 0.94200  0.69360  0.78540  Biso   1.000  H
  H39      1.0000 0.88000  0.74850  0.86430  Biso   1.000  H
  H40      1.0000 0.15250  0.54060  0.78060  Biso   1.000  H
  H41      1.0000 0.83190  0.55440  0.96150  Biso   1.000  H
  H42      1.0000 0.68420  0.47160  0.93240  Biso   1.000  H
  H43      1.0000 0.54700  0.73510  0.93760  Biso   1.000  H
  H44      1.0000 0.69670  0.80640  0.95420  Biso   1.000  H
  H45      1.0000 0.44660  0.58870  0.93490  Biso   1.000  H
  H46      1.0000 0.19900  0.20530  0.05710  Biso   1.000  H
  H47      1.0000 0.04490  0.25140  0.08640  Biso   1.000  H
  H48      1.0000 0.99500  0.17230  0.14280  Biso   1.000  H
  H49      1.0000 0.07780  0.09550  0.13390  Biso   1.000  H
  H50      1.0000 0.10440  0.20380  0.14710  Biso   1.000  H
  H51      1.0000 0.93170  0.38300  0.94840  Biso   1.000  H
  H52      1.0000 0.84680  0.42570  0.87340  Biso   1.000  H
  H53      1.0000 0.05800  0.30640  0.78540  Biso   1.000  H
  H54      1.0000 0.12000  0.25150  0.86430  Biso   1.000  H
  H55      1.0000 0.84750  0.45940  0.78060  Biso   1.000  H
  H56      1.0000 0.16810  0.44560  0.96150  Biso   1.000  H
  H57      1.0000 0.31580  0.52840  0.93240  Biso   1.000  H
  H58      1.0000 0.45300  0.26490  0.93760  Biso   1.000  H
  H59      1.0000 0.30330  0.19360  0.95420  Biso   1.000  H
  H60      1.0000 0.55340  0.41130  0.93490  Biso   1.000  H
  C1       1.0000 0.33350  0.53490  0.45080  Biso   1.000  C
  C2       1.0000 0.31700  0.44000  0.42010  Biso   1.000  C
  C3       1.0000 0.33800  0.44100  0.37100  Biso   1.000  C
  C4       1.0000 0.13790  0.54710  0.58440  Biso   1.000  C
  C5       1.0000 0.10720  0.59430  0.62980  Biso   1.000  C
  C6       1.0000 0.12350  0.55740  0.67890  Biso   1.000  C
  C7       1.0000 0.17930  0.47230  0.68280  Biso   1.000  C
  C8       1.0000 0.21190  0.43690  0.63360  Biso   1.000  C
  C9       1.0000 0.08510  0.60270  0.72550  Biso   1.000  C
  C10      1.0000 0.09090  0.27640  0.54550  Biso   1.000  C
  C11      1.0000 0.03790  0.18470  0.56030  Biso   1.000  C
  C12      1.0000 0.09200  0.10380  0.56230  Biso   1.000  C
  C13      1.0000 0.19810  0.10320  0.55850  Biso   1.000  C
  C14      1.0000 0.23890  0.19420  0.54850  Biso   1.000  C
  C15      1.0000 0.04710  0.00170  0.56690  Biso   1.000  C
  C16      1.0000 0.66650  0.46510  0.45080  Biso   1.000  C
  C17      1.0000 0.68300  0.56000  0.42010  Biso   1.000  C
  C18      1.0000 0.66200  0.55900  0.37100  Biso   1.000  C
  C19      1.0000 0.86210  0.45290  0.58440  Biso   1.000  C
  C20      1.0000 0.89280  0.40570  0.62980  Biso   1.000  C
  C21      1.0000 0.87650  0.44260  0.67890  Biso   1.000  C
  C22      1.0000 0.82070  0.52770  0.68280  Biso   1.000  C
  C23      1.0000 0.78810  0.56310  0.63360  Biso   1.000  C
  C24      1.0000 0.91490  0.39730  0.72550  Biso   1.000  C
  C25      1.0000 0.90910  0.72360  0.54550  Biso   1.000  C
  C26      1.0000 0.96210  0.81530  0.56030  Biso   1.000  C
  C27      1.0000 0.90800  0.89620  0.56230  Biso   1.000  C
  C28      1.0000 0.80190  0.89680  0.55850  Biso   1.000  C
  C29      1.0000 0.76110  0.80580  0.54850  Biso   1.000  C
  C30      1.0000 0.95290  0.99830  0.56690  Biso   1.000  C
  C31      1.0000 0.03490  0.83350  0.04920  Biso   1.000  C
  C32      1.0000 0.94000  0.81700  0.07990  Biso   1.000  C
  C33      1.0000 0.94100  0.83800  0.12900  Biso   1.000  C
  C34      1.0000 0.04710  0.63790  0.91560  Biso   1.000  C
  C35      1.0000 0.09430  0.60720  0.87020  Biso   1.000  C
  C36      1.0000 0.05740  0.62350  0.82110  Biso   1.000  C
  C37      1.0000 0.97230  0.67930  0.81720  Biso   1.000  C
  C38      1.0000 0.93690  0.71190  0.86640  Biso   1.000  C
  C39      1.0000 0.10270  0.58510  0.77450  Biso   1.000  C
  C40      1.0000 0.77640  0.59090  0.95450  Biso   1.000  C
  C41      1.0000 0.68470  0.53790  0.93970  Biso   1.000  C
  C42      1.0000 0.60380  0.59200  0.93770  Biso   1.000  C
  C43      1.0000 0.60320  0.69810  0.94150  Biso   1.000  C
  C44      1.0000 0.69420  0.73890  0.95150  Biso   1.000  C
  C45      1.0000 0.50170  0.54710  0.93310  Biso   1.000  C
  C46      1.0000 0.96510  0.16650  0.04920  Biso   1.000  C
  C47      1.0000 0.06000  0.18300  0.07990  Biso   1.000  C
  C48      1.0000 0.05900  0.16200  0.12900  Biso   1.000  C
  C49      1.0000 0.95290  0.36210  0.91560  Biso   1.000  C
  C50      1.0000 0.90570  0.39280  0.87020  Biso   1.000  C
  C51      1.0000 0.94260  0.37650  0.82110  Biso   1.000  C
  C52      1.0000 0.02770  0.32070  0.81720  Biso   1.000  C
  C53      1.0000 0.06310  0.28810  0.86640  Biso   1.000  C
  C54      1.0000 0.89730  0.41490  0.77450  Biso   1.000  C
  C55      1.0000 0.22360  0.40910  0.95450  Biso   1.000  C
  C56      1.0000 0.31530  0.46210  0.93970  Biso   1.000  C
  C57      1.0000 0.39620  0.40800  0.93770  Biso   1.000  C
  C58      1.0000 0.39680  0.30190  0.94150  Biso   1.000  C
  C59      1.0000 0.30580  0.26110  0.95150  Biso   1.000  C
  C60      1.0000 0.49830  0.45290  0.93310  Biso   1.000  C
  N1       1.0000 0.29400  0.36090  0.45280  Biso   1.000  N
  N2       1.0000 0.20040  0.46780  0.58870  Biso   1.000  N
  N3       1.0000 0.18880  0.28240  0.54190  Biso   1.000  N
  N4       1.0000 0.70600  0.63910  0.45280  Biso   1.000  N
  N5       1.0000 0.79960  0.53220  0.58870  Biso   1.000  N
  N6       1.0000 0.81120  0.71760  0.54190  Biso   1.000  N
  N7       1.0000 0.86090  0.79400  0.04720  Biso   1.000  N
  N8       1.0000 0.96780  0.70040  0.91130  Biso   1.000  N
  N9       1.0000 0.78240  0.68880  0.95810  Biso   1.000  N
  N10      1.0000 0.13910  0.20600  0.04720  Biso   1.000  N
  N11      1.0000 0.03220  0.29960  0.91130  Biso   1.000  N
  N12      1.0000 0.21760  0.31120  0.95810  Biso   1.000  N
  O1       1.0000 0.29520  0.53300  0.49760  Biso   1.000  O
  O2       1.0000 0.37150  0.60660  0.43440  Biso   1.000  O
  O3       1.0000 0.70480  0.46700  0.49760  Biso   1.000  O
  O4       1.0000 0.62850  0.39340  0.43440  Biso   1.000  O
  O5       1.0000 0.03300  0.79520  0.00240  Biso   1.000  O
  O6       1.0000 0.10660  0.87150  0.06560  Biso   1.000  O
  O7       1.0000 0.96700  0.20480  0.00240  Biso   1.000  O
  O8       1.0000 0.89340  0.12850  0.06560  Biso   1.000  O
  Ni5      1.0000 0.40585  0.74769  0.47628  Biso   1.000  Ni
  Ni6      1.0000 0.59415  0.25231  0.47628  Biso   1.000  Ni
  Ni7      1.0000 0.75231  0.09415  0.02372  Biso   1.000  Ni
  Ni8      1.0000 0.24769  0.90585  0.02372  Biso   1.000  Ni
  H61      1.0000 0.30100  0.70530  0.55710  Biso   1.000  H
  H62      1.0000 0.45510  0.75140  0.58640  Biso   1.000  H
  H63      1.0000 0.50500  0.67230  0.64280  Biso   1.000  H
  H64      1.0000 0.42220  0.59550  0.63390  Biso   1.000  H
  H65      1.0000 0.39560  0.70380  0.64710  Biso   1.000  H
  H66      1.0000 0.56830  0.88300  0.44840  Biso   1.000  H
  H67      1.0000 0.65320  0.92570  0.37340  Biso   1.000  H
  H68      1.0000 0.44200  0.80640  0.28540  Biso   1.000  H
  H69      1.0000 0.38000  0.75150  0.36430  Biso   1.000  H
  H70      1.0000 0.65250  0.95940  0.28060  Biso   1.000  H
  H71      1.0000 0.33190  0.94560  0.46150  Biso   1.000  H
  H72      1.0000 0.18420  0.02840  0.43240  Biso   1.000  H
  H73      1.0000 0.04700  0.76490  0.43760  Biso   1.000  H
  H74      1.0000 0.19670  0.69360  0.45420  Biso   1.000  H
  H75      1.0000 0.94660  0.91130  0.43490  Biso   1.000  H
  H76      1.0000 0.69900  0.29470  0.55710  Biso   1.000  H
  H77      1.0000 0.54490  0.24860  0.58640  Biso   1.000  H
  H78      1.0000 0.49500  0.32770  0.64280  Biso   1.000  H
  H79      1.0000 0.57780  0.40450  0.63390  Biso   1.000  H
  H80      1.0000 0.60440  0.29620  0.64710  Biso   1.000  H
  H81      1.0000 0.43170  0.11700  0.44840  Biso   1.000  H
  H82      1.0000 0.34680  0.07430  0.37340  Biso   1.000  H
  H83      1.0000 0.55800  0.19360  0.28540  Biso   1.000  H
  H84      1.0000 0.62000  0.24850  0.36430  Biso   1.000  H
  H85      1.0000 0.34750  0.04060  0.28060  Biso   1.000  H
  H86      1.0000 0.66810  0.05440  0.46150  Biso   1.000  H
  H87      1.0000 0.81580  0.97160  0.43240  Biso   1.000  H
  H88      1.0000 0.95300  0.23510  0.43760  Biso   1.000  H
  H89      1.0000 0.80330  0.30640  0.45420  Biso   1.000  H
  H90      1.0000 0.05340  0.08870  0.43490  Biso   1.000  H
  H91      1.0000 0.79470  0.19900  0.94290  Biso   1.000  H
  H92      1.0000 0.74860  0.04490  0.91360  Biso   1.000  H
  H93      1.0000 0.82770  0.99500  0.85720  Biso   1.000  H
  H94      1.0000 0.90450  0.07780  0.86610  Biso   1.000  H
  H95      1.0000 0.79620  0.10440  0.85290  Biso   1.000  H
  H96      1.0000 0.61700  0.93170  0.05160  Biso   1.000  H
  H97      1.0000 0.57430  0.84680  0.12660  Biso   1.000  H
  H98      1.0000 0.69360  0.05800  0.21460  Biso   1.000  H
  H99      1.0000 0.74850  0.12000  0.13570  Biso   1.000  H
  H100     1.0000 0.54060  0.84750  0.21940  Biso   1.000  H
  H101     1.0000 0.55440  0.16810  0.03850  Biso   1.000  H
  H102     1.0000 0.47160  0.31580  0.06760  Biso   1.000  H
  H103     1.0000 0.73510  0.45300  0.06240  Biso   1.000  H
  H104     1.0000 0.80640  0.30330  0.04580  Biso   1.000  H
  H105     1.0000 0.58870  0.55340  0.06510  Biso   1.000  H
  H106     1.0000 0.20530  0.80100  0.94290  Biso   1.000  H
  H107     1.0000 0.25140  0.95510  0.91360  Biso   1.000  H
  H108     1.0000 0.17230  0.00500  0.85720  Biso   1.000  H
  H109     1.0000 0.09550  0.92220  0.86610  Biso   1.000  H
  H110     1.0000 0.20380  0.89560  0.85290  Biso   1.000  H
  H111     1.0000 0.38300  0.06830  0.05160  Biso   1.000  H
  H112     1.0000 0.42570  0.15320  0.12660  Biso   1.000  H
  H113     1.0000 0.30640  0.94200  0.21460  Biso   1.000  H
  H114     1.0000 0.25150  0.88000  0.13570  Biso   1.000  H
  H115     1.0000 0.45940  0.15250  0.21940  Biso   1.000  H
  H116     1.0000 0.44560  0.83190  0.03850  Biso   1.000  H
  H117     1.0000 0.52840  0.68420  0.06760  Biso   1.000  H
  H118     1.0000 0.26490  0.54700  0.06240  Biso   1.000  H
  H119     1.0000 0.19360  0.69670  0.04580  Biso   1.000  H
  H120     1.0000 0.41130  0.44660  0.06510  Biso   1.000  H
  C61      1.0000 0.53490  0.66650  0.54920  Biso   1.000  C
  C62      1.0000 0.44000  0.68300  0.57990  Biso   1.000  C
  C63      1.0000 0.44100  0.66200  0.62900  Biso   1.000  C
  C64      1.0000 0.54710  0.86210  0.41560  Biso   1.000  C
  C65      1.0000 0.59430  0.89280  0.37020  Biso   1.000  C
  C66      1.0000 0.55740  0.87650  0.32110  Biso   1.000  C
  C67      1.0000 0.47230  0.82070  0.31720  Biso   1.000  C
  C68      1.0000 0.43690  0.78810  0.36640  Biso   1.000  C
  C69      1.0000 0.60270  0.91490  0.27450  Biso   1.000  C
  C70      1.0000 0.27640  0.90910  0.45450  Biso   1.000  C
  C71      1.0000 0.18470  0.96210  0.43970  Biso   1.000  C
  C72      1.0000 0.10380  0.90800  0.43770  Biso   1.000  C
  C73      1.0000 0.10320  0.80190  0.44150  Biso   1.000  C
  C74      1.0000 0.19420  0.76110  0.45150  Biso   1.000  C
  C75      1.0000 0.00170  0.95290  0.43310  Biso   1.000  C
  C76      1.0000 0.46510  0.33350  0.54920  Biso   1.000  C
  C77      1.0000 0.56000  0.31700  0.57990  Biso   1.000  C
  C78      1.0000 0.55900  0.33800  0.62900  Biso   1.000  C
  C79      1.0000 0.45290  0.13790  0.41560  Biso   1.000  C
  C80      1.0000 0.40570  0.10720  0.37020  Biso   1.000  C
  C81      1.0000 0.44260  0.12350  0.32110  Biso   1.000  C
  C82      1.0000 0.52770  0.17930  0.31720  Biso   1.000  C
  C83      1.0000 0.56310  0.21190  0.36640  Biso   1.000  C
  C84      1.0000 0.39730  0.08510  0.27450  Biso   1.000  C
  C85      1.0000 0.72360  0.09090  0.45450  Biso   1.000  C
  C86      1.0000 0.81530  0.03790  0.43970  Biso   1.000  C
  C87      1.0000 0.89620  0.09200  0.43770  Biso   1.000  C
  C88      1.0000 0.89680  0.19810  0.44150  Biso   1.000  C
  C89      1.0000 0.80580  0.23890  0.45150  Biso   1.000  C
  C90      1.0000 0.99830  0.04710  0.43310  Biso   1.000  C
  C91      1.0000 0.83350  0.96510  0.95080  Biso   1.000  C
  C92      1.0000 0.81700  0.06000  0.92010  Biso   1.000  C
  C93      1.0000 0.83800  0.05900  0.87100  Biso   1.000  C
  C94      1.0000 0.63790  0.95290  0.08440  Biso   1.000  C
  C95      1.0000 0.60720  0.90570  0.12980  Biso   1.000  C
  C96      1.0000 0.62350  0.94260  0.17890  Biso   1.000  C
  C97      1.0000 0.67930  0.02770  0.18280  Biso   1.000  C
  C98      1.0000 0.71190  0.06310  0.13360  Biso   1.000  C
  C99      1.0000 0.58510  0.89730  0.22550  Biso   1.000  C
  C100     1.0000 0.59090  0.22360  0.04550  Biso   1.000  C
  C101     1.0000 0.53790  0.31530  0.06030  Biso   1.000  C
  C102     1.0000 0.59200  0.39620  0.06230  Biso   1.000  C
  C103     1.0000 0.69810  0.39680  0.05850  Biso   1.000  C
  C104     1.0000 0.73890  0.30580  0.04850  Biso   1.000  C
  C105     1.0000 0.54710  0.49830  0.06690  Biso   1.000  C
  C106     1.0000 0.16650  0.03490  0.95080  Biso   1.000  C
  C107     1.0000 0.18300  0.94000  0.92010  Biso   1.000  C
  C108     1.0000 0.16200  0.94100  0.87100  Biso   1.000  C
  C109     1.0000 0.36210  0.04710  0.08440  Biso   1.000  C
  C110     1.0000 0.39280  0.09430  0.12980  Biso   1.000  C
  C111     1.0000 0.37650  0.05740  0.17890  Biso   1.000  C
  C112     1.0000 0.32070  0.97230  0.18280  Biso   1.000  C
  C113     1.0000 0.28810  0.93690  0.13360  Biso   1.000  C
  C114     1.0000 0.41490  0.10270  0.22550  Biso   1.000  C
  C115     1.0000 0.40910  0.77640  0.04550  Biso   1.000  C
  C116     1.0000 0.46210  0.68470  0.06030  Biso   1.000  C
  C117     1.0000 0.40800  0.60380  0.06230  Biso   1.000  C
  C118     1.0000 0.30190  0.60320  0.05850  Biso   1.000  C
  C119     1.0000 0.26110  0.69420  0.04850  Biso   1.000  C
  C120     1.0000 0.45290  0.50170  0.06690  Biso   1.000  C
  N13      1.0000 0.36090  0.70600  0.54720  Biso   1.000  N
  N14      1.0000 0.46780  0.79960  0.41130  Biso   1.000  N
  N15      1.0000 0.28240  0.81120  0.45810  Biso   1.000  N
  N16      1.0000 0.63910  0.29400  0.54720  Biso   1.000  N
  N17      1.0000 0.53220  0.20040  0.41130  Biso   1.000  N
  N18      1.0000 0.71760  0.18880  0.45810  Biso   1.000  N
  N19      1.0000 0.79400  0.13910  0.95280  Biso   1.000  N
  N20      1.0000 0.70040  0.03220  0.08870  Biso   1.000  N
  N21      1.0000 0.68880  0.21760  0.04190  Biso   1.000  N
  N22      1.0000 0.20600  0.86090  0.95280  Biso   1.000  N
  N23      1.0000 0.29960  0.96780  0.08870  Biso   1.000  N
  N24      1.0000 0.31120  0.78240  0.04190  Biso   1.000  N
  O9       1.0000 0.53300  0.70480  0.50240  Biso   1.000  O
  O10      1.0000 0.60660  0.62850  0.56560  Biso   1.000  O
  O11      1.0000 0.46700  0.29520  0.50240  Biso   1.000  O
  O12      1.0000 0.39340  0.37150  0.56560  Biso   1.000  O
  O13      1.0000 0.79520  0.96700  0.99760  Biso   1.000  O
  O14      1.0000 0.87150  0.89340  0.93440  Biso   1.000  O
  O15      1.0000 0.20480  0.03300  0.99760  Biso   1.000  O
  O16      1.0000 0.12850  0.10660  0.93440  Biso   1.000  O
