data_image0
_cell_length_a       9.8669
_cell_length_b       10.425
_cell_length_c       12.4397
_cell_angle_alpha    111.316
_cell_angle_beta     102.568
_cell_angle_gamma    93.8625

_symmetry_space_group_name_H-M    "P 1"
_symmetry_int_tables_number       1

loop_
  _symmetry_equiv_pos_as_xyz
  'x, y, z'

loop_
  _atom_site_label
  _atom_site_occupancy
  _atom_site_fract_x
  _atom_site_fract_y
  _atom_site_fract_z
  _atom_site_thermal_displace_type
  _atom_site_B_iso_or_equiv
  _atom_site_type_symbol
  C1       1.0000 0.73860  0.30280  0.40800  Biso   1.000  C
  C2       1.0000 0.89460  0.32240  0.46190  Biso   1.000  C
  C3       1.0000 0.94760  0.39600  0.58440  Biso   1.000  C
  H1       1.0000 0.88780  0.43380  0.63190  Biso   1.000  H
  C4       1.0000 0.08930  0.41210  0.63440  Biso   1.000  C
  C5       1.0000 0.18190  0.36000  0.56590  Biso   1.000  C
  H2       1.0000 0.27760  0.37210  0.60130  Biso   1.000  H
  C6       1.0000 0.12850  0.28930  0.44320  Biso   1.000  C
  C7       1.0000 0.98460  0.26950  0.39140  Biso   1.000  C
  H3       1.0000 0.94900  0.22080  0.30940  Biso   1.000  H
  C8       1.0000 0.22620  0.23640  0.36680  Biso   1.000  C
  C9       1.0000 0.29850  0.52990  0.94090  Biso   1.000  C
  C10      1.0000 0.32660  0.67520  0.98960  Biso   1.000  C
  H4       1.0000 0.30560  0.72510  0.94110  Biso   1.000  H
  C11      1.0000 0.38630  0.74430  0.11130  Biso   1.000  C
  C12      1.0000 0.41680  0.66850  0.18290  Biso   1.000  C
  H5       1.0000 0.45620  0.71510  0.26470  Biso   1.000  H
  C13      1.0000 0.38880  0.52370  0.13330  Biso   1.000  C
  C14      1.0000 0.33180  0.45430  0.01090  Biso   1.000  C
  H6       1.0000 0.31630  0.35730  0.97650  Biso   1.000  H
  C15      1.0000 0.42280  0.44140  0.21050  Biso   1.000  C
  C16      1.0000 0.41440  0.90100  0.16550  Biso   1.000  C
  Cd1      1.0000 0.45330  0.17885  0.25827  Biso   1.000  Cd
  N1       1.0000 0.14160  0.49050  0.76220  Biso   1.000  N
  N2       1.0000 0.24310  0.45170  0.81460  Biso   1.000  N
  O1       1.0000 0.68950  0.22460  0.30030  Biso   1.000  O
  O2       1.0000 0.66610  0.36340  0.47580  Biso   1.000  O
  O3       1.0000 0.18140  0.14570  0.26470  Biso   1.000  O
  O4       1.0000 0.35760  0.28620  0.41110  Biso   1.000  O
  O5       1.0000 0.39470  0.31060  0.15830  Biso   1.000  O
  O6       1.0000 0.47660  0.50700  0.31900  Biso   1.000  O
  O7       1.0000 0.38920  0.96610  0.09900  Biso   1.000  O
  O8       1.0000 0.46100  0.96180  0.27620  Biso   1.000  O
  O9       1.0000 0.06530  0.57400  0.81310  Biso   1.000  O
  O10      1.0000 0.25030  0.31720  0.77790  Biso   1.000  O
  C17      1.0000 0.26140  0.69720  0.59200  Biso   1.000  C
  C18      1.0000 0.10540  0.67760  0.53810  Biso   1.000  C
  C19      1.0000 0.05240  0.60400  0.41560  Biso   1.000  C
  H7       1.0000 0.11220  0.56620  0.36810  Biso   1.000  H
  C20      1.0000 0.91070  0.58790  0.36560  Biso   1.000  C
  C21      1.0000 0.81810  0.64000  0.43410  Biso   1.000  C
  H8       1.0000 0.72240  0.62790  0.39870  Biso   1.000  H
  C22      1.0000 0.87150  0.71070  0.55680  Biso   1.000  C
  C23      1.0000 0.01540  0.73050  0.60860  Biso   1.000  C
  H9       1.0000 0.05100  0.77920  0.69060  Biso   1.000  H
  C24      1.0000 0.77380  0.76360  0.63320  Biso   1.000  C
  C25      1.0000 0.70150  0.47010  0.05910  Biso   1.000  C
  C26      1.0000 0.67340  0.32480  0.01040  Biso   1.000  C
  H10      1.0000 0.69440  0.27490  0.05890  Biso   1.000  H
  C27      1.0000 0.61370  0.25570  0.88870  Biso   1.000  C
  C28      1.0000 0.58320  0.33150  0.81710  Biso   1.000  C
  H11      1.0000 0.54380  0.28490  0.73530  Biso   1.000  H
  C29      1.0000 0.61120  0.47630  0.86670  Biso   1.000  C
  C30      1.0000 0.66820  0.54570  0.98910  Biso   1.000  C
  H12      1.0000 0.68370  0.64270  0.02350  Biso   1.000  H
  C31      1.0000 0.57720  0.55860  0.78950  Biso   1.000  C
  C32      1.0000 0.58560  0.09900  0.83450  Biso   1.000  C
  Cd2      1.0000 0.54670  0.82115  0.74173  Biso   1.000  Cd
  N3       1.0000 0.85840  0.50950  0.23780  Biso   1.000  N
  N4       1.0000 0.75690  0.54830  0.18540  Biso   1.000  N
  O11      1.0000 0.31050  0.77540  0.69970  Biso   1.000  O
  O12      1.0000 0.33390  0.63660  0.52420  Biso   1.000  O
  O13      1.0000 0.81860  0.85430  0.73530  Biso   1.000  O
  O14      1.0000 0.64240  0.71380  0.58890  Biso   1.000  O
  O15      1.0000 0.60530  0.68940  0.84170  Biso   1.000  O
  O16      1.0000 0.52340  0.49300  0.68100  Biso   1.000  O
  O17      1.0000 0.61080  0.03390  0.90100  Biso   1.000  O
  O18      1.0000 0.53900  0.03820  0.72380  Biso   1.000  O
  O19      1.0000 0.93470  0.42600  0.18690  Biso   1.000  O
  O20      1.0000 0.74970  0.68280  0.22210  Biso   1.000  O
  Cd3      1.0000 0.50000  0.50000  0.50000  Biso   1.000  Cd
