data_image0
_cell_length_a       8.6801
_cell_length_b       13.9279
_cell_length_c       28.708
_cell_angle_alpha    90
_cell_angle_beta     90
_cell_angle_gamma    90.91

_symmetry_space_group_name_H-M    P 1
_symmetry_int_tables_number       1

loop_
  _symmetry_equiv_pos_as_xyz
  'x, y, z'

loop_
  _atom_site_label
  _atom_site_occupancy
  _atom_site_fract_x
  _atom_site_fract_y
  _atom_site_fract_z
  _atom_site_thermal_displace_type
  _atom_site_B_iso_or_equiv
  _atom_site_type_symbol
  Mn1      1.0000 0.02907  0.94851  0.12671  Biso   1.000  Mn
  Mn2      1.0000 0.42118  0.93774  0.16490  Biso   1.000  Mn
  Mn3      1.0000 0.97093  0.55149  0.62671  Biso   1.000  Mn
  Mn4      1.0000 0.57882  0.56226  0.66490  Biso   1.000  Mn
  Mn5      1.0000 0.97093  0.05149  0.87329  Biso   1.000  Mn
  Mn6      1.0000 0.57882  0.06226  0.83510  Biso   1.000  Mn
  Mn7      1.0000 0.02907  0.44851  0.37329  Biso   1.000  Mn
  Mn8      1.0000 0.42118  0.43774  0.33510  Biso   1.000  Mn
  H1       1.0000 0.96520  0.70380  0.13240  Biso   1.000  H
  H2       1.0000 0.88680  0.48780  0.22290  Biso   1.000  H
  H3       1.0000 0.26470  0.65460  0.23660  Biso   1.000  H
  H4       1.0000 0.88190  0.48050  0.10680  Biso   1.000  H
  H5       1.0000 0.82440  0.57560  0.08400  Biso   1.000  H
  H6       1.0000 0.75950  0.37720  0.04550  Biso   1.000  H
  H7       1.0000 0.54790  0.28640  0.02570  Biso   1.000  H
  H8       1.0000 0.28840  0.47830  0.09310  Biso   1.000  H
  H9       1.0000 0.50870  0.55710  0.11870  Biso   1.000  H
  H10      1.0000 0.13750  0.19000  0.95710  Biso   1.000  H
  H11      1.0000 0.35710  0.26760  0.98450  Biso   1.000  H
  H12      1.0000 0.12000  0.36340  0.09520  Biso   1.000  H
  H13      1.0000 0.91060  0.26920  0.07170  Biso   1.000  H
  H14      1.0000 0.56890  0.19300  0.93540  Biso   1.000  H
  H15      1.0000 0.19540  0.04900  0.98150  Biso   1.000  H
  H16      1.0000 0.53520  0.12010  0.07100  Biso   1.000  H
  H17      1.0000 0.87330  0.11010  0.99960  Biso   1.000  H
  H18      1.0000 0.85850  0.18590  0.95980  Biso   1.000  H
  H19      1.0000 0.01680  0.13470  0.10880  Biso   1.000  H
  H20      1.0000 0.87890  0.11250  0.12970  Biso   1.000  H
  H21      1.0000 0.56080  0.05930  0.22280  Biso   1.000  H
  H22      1.0000 0.62820  0.07600  0.18020  Biso   1.000  H
  H23      1.0000 0.03480  0.79620  0.63240  Biso   1.000  H
  H24      1.0000 0.11320  0.01220  0.72290  Biso   1.000  H
  H25      1.0000 0.73530  0.84540  0.73660  Biso   1.000  H
  H26      1.0000 0.11810  0.01950  0.60680  Biso   1.000  H
  H27      1.0000 0.17560  0.92440  0.58400  Biso   1.000  H
  H28      1.0000 0.24050  0.12280  0.54550  Biso   1.000  H
  H29      1.0000 0.45210  0.21360  0.52570  Biso   1.000  H
  H30      1.0000 0.71160  0.02170  0.59310  Biso   1.000  H
  H31      1.0000 0.49130  0.94290  0.61870  Biso   1.000  H
  H32      1.0000 0.86250  0.31000  0.45710  Biso   1.000  H
  H33      1.0000 0.64290  0.23240  0.48450  Biso   1.000  H
  H34      1.0000 0.88000  0.13660  0.59520  Biso   1.000  H
  H35      1.0000 0.08940  0.23080  0.57170  Biso   1.000  H
  H36      1.0000 0.43110  0.30700  0.43540  Biso   1.000  H
  H37      1.0000 0.80460  0.45100  0.48150  Biso   1.000  H
  H38      1.0000 0.46480  0.37990  0.57100  Biso   1.000  H
  H39      1.0000 0.12670  0.38990  0.49960  Biso   1.000  H
  H40      1.0000 0.14150  0.31410  0.45980  Biso   1.000  H
  H41      1.0000 0.98320  0.36530  0.60880  Biso   1.000  H
  H42      1.0000 0.12110  0.38750  0.62970  Biso   1.000  H
  H43      1.0000 0.43920  0.44070  0.72280  Biso   1.000  H
  H44      1.0000 0.37180  0.42400  0.68020  Biso   1.000  H
  H45      1.0000 0.03480  0.29620  0.86760  Biso   1.000  H
  H46      1.0000 0.11320  0.51220  0.77710  Biso   1.000  H
  H47      1.0000 0.73530  0.34540  0.76340  Biso   1.000  H
  H48      1.0000 0.11810  0.51950  0.89320  Biso   1.000  H
  H49      1.0000 0.17560  0.42440  0.91600  Biso   1.000  H
  H50      1.0000 0.24050  0.62280  0.95450  Biso   1.000  H
  H51      1.0000 0.45210  0.71360  0.97430  Biso   1.000  H
  H52      1.0000 0.71160  0.52170  0.90690  Biso   1.000  H
  H53      1.0000 0.49130  0.44290  0.88130  Biso   1.000  H
  H54      1.0000 0.86250  0.81000  0.04290  Biso   1.000  H
  H55      1.0000 0.64290  0.73240  0.01550  Biso   1.000  H
  H56      1.0000 0.88000  0.63660  0.90480  Biso   1.000  H
  H57      1.0000 0.08940  0.73080  0.92830  Biso   1.000  H
  H58      1.0000 0.43110  0.80700  0.06460  Biso   1.000  H
  H59      1.0000 0.80460  0.95100  0.01850  Biso   1.000  H
  H60      1.0000 0.46480  0.87990  0.92900  Biso   1.000  H
  H61      1.0000 0.12670  0.88990  0.00040  Biso   1.000  H
  H62      1.0000 0.14150  0.81410  0.04020  Biso   1.000  H
  H63      1.0000 0.98320  0.86530  0.89120  Biso   1.000  H
  H64      1.0000 0.12110  0.88750  0.87030  Biso   1.000  H
  H65      1.0000 0.43920  0.94070  0.77720  Biso   1.000  H
  H66      1.0000 0.37180  0.92400  0.81980  Biso   1.000  H
  H67      1.0000 0.96520  0.20380  0.36760  Biso   1.000  H
  H68      1.0000 0.88680  0.98780  0.27710  Biso   1.000  H
  H69      1.0000 0.26470  0.15460  0.26340  Biso   1.000  H
  H70      1.0000 0.88190  0.98050  0.39320  Biso   1.000  H
  H71      1.0000 0.82440  0.07560  0.41600  Biso   1.000  H
  H72      1.0000 0.75950  0.87720  0.45450  Biso   1.000  H
  H73      1.0000 0.54790  0.78640  0.47430  Biso   1.000  H
  H74      1.0000 0.28840  0.97830  0.40690  Biso   1.000  H
  H75      1.0000 0.50870  0.05710  0.38130  Biso   1.000  H
  H76      1.0000 0.13750  0.69000  0.54290  Biso   1.000  H
  H77      1.0000 0.35710  0.76760  0.51550  Biso   1.000  H
  H78      1.0000 0.12000  0.86340  0.40480  Biso   1.000  H
  H79      1.0000 0.91060  0.76920  0.42830  Biso   1.000  H
  H80      1.0000 0.56890  0.69300  0.56460  Biso   1.000  H
  H81      1.0000 0.19540  0.54900  0.51850  Biso   1.000  H
  H82      1.0000 0.53520  0.62010  0.42900  Biso   1.000  H
  H83      1.0000 0.87330  0.61010  0.50040  Biso   1.000  H
  H84      1.0000 0.85850  0.68590  0.54020  Biso   1.000  H
  H85      1.0000 0.01680  0.63470  0.39120  Biso   1.000  H
  H86      1.0000 0.87890  0.61250  0.37030  Biso   1.000  H
  H87      1.0000 0.56080  0.55930  0.27720  Biso   1.000  H
  H88      1.0000 0.62820  0.57600  0.31980  Biso   1.000  H
  C1       1.0000 0.12800  0.69250  0.18294  Biso   1.000  C
  C2       1.0000 0.99390  0.66900  0.15854  Biso   1.000  C
  C3       1.0000 0.90350  0.59140  0.17460  Biso   1.000  C
  C4       1.0000 0.94790  0.53910  0.21281  Biso   1.000  C
  C5       1.0000 0.08390  0.56220  0.23655  Biso   1.000  C
  C6       1.0000 0.17350  0.63890  0.22119  Biso   1.000  C
  C7       1.0000 0.21940  0.77806  0.16730  Biso   1.000  C
  C8       1.0000 0.11710  0.50840  0.28010  Biso   1.000  C
  C9       1.0000 0.79630  0.52440  0.10541  Biso   1.000  C
  C10      1.0000 0.66050  0.47240  0.08683  Biso   1.000  C
  C11      1.0000 0.66410  0.39490  0.05707  Biso   1.000  C
  C12      1.0000 0.53820  0.34210  0.04329  Biso   1.000  C
  C13      1.0000 0.39590  0.37530  0.05674  Biso   1.000  C
  C14      1.0000 0.38480  0.45600  0.08456  Biso   1.000  C
  C15      1.0000 0.51700  0.50350  0.09965  Biso   1.000  C
  C16      1.0000 0.13410  0.22380  0.98502  Biso   1.000  C
  C17      1.0000 0.26560  0.27070  0.00128  Biso   1.000  C
  C18      1.0000 0.26060  0.32270  0.04291  Biso   1.000  C
  C19      1.0000 0.12550  0.32640  0.06834  Biso   1.000  C
  C20      1.0000 0.99760  0.27340  0.05285  Biso   1.000  C
  C21      1.0000 0.99650  0.22700  0.01023  Biso   1.000  C
  C22      1.0000 0.57710  0.16250  0.00433  Biso   1.000  C
  C23      1.0000 0.51490  0.16350  0.95962  Biso   1.000  C
  C24      1.0000 0.37120  0.12030  0.95109  Biso   1.000  C
  C25      1.0000 0.29150  0.07700  0.98712  Biso   1.000  C
  C26      1.0000 0.35350  0.07490  0.03181  Biso   1.000  C
  C27      1.0000 0.49540  0.11930  0.04097  Biso   1.000  C
  C28      1.0000 0.30930  0.12140  0.90416  Biso   1.000  C
  C29      1.0000 0.27410  0.02680  0.07218  Biso   1.000  C
  C30      1.0000 0.86230  0.17810  0.99337  Biso   1.000  C
  C31      1.0000 0.87200  0.80750  0.68294  Biso   1.000  C
  C32      1.0000 0.00610  0.83100  0.65854  Biso   1.000  C
  C33      1.0000 0.09650  0.90860  0.67460  Biso   1.000  C
  C34      1.0000 0.05210  0.96090  0.71281  Biso   1.000  C
  C35      1.0000 0.91610  0.93780  0.73655  Biso   1.000  C
  C36      1.0000 0.82650  0.86110  0.72119  Biso   1.000  C
  C37      1.0000 0.78060  0.72194  0.66730  Biso   1.000  C
  C38      1.0000 0.88290  0.99160  0.78010  Biso   1.000  C
  C39      1.0000 0.20370  0.97560  0.60541  Biso   1.000  C
  C40      1.0000 0.33950  0.02760  0.58683  Biso   1.000  C
  C41      1.0000 0.33590  0.10510  0.55707  Biso   1.000  C
  C42      1.0000 0.46180  0.15790  0.54329  Biso   1.000  C
  C43      1.0000 0.60410  0.12470  0.55674  Biso   1.000  C
  C44      1.0000 0.61520  0.04400  0.58456  Biso   1.000  C
  C45      1.0000 0.48300  0.99650  0.59965  Biso   1.000  C
  C46      1.0000 0.86590  0.27620  0.48502  Biso   1.000  C
  C47      1.0000 0.73440  0.22930  0.50128  Biso   1.000  C
  C48      1.0000 0.73940  0.17730  0.54291  Biso   1.000  C
  C49      1.0000 0.87450  0.17360  0.56834  Biso   1.000  C
  C50      1.0000 0.00240  0.22660  0.55285  Biso   1.000  C
  C51      1.0000 0.00350  0.27300  0.51023  Biso   1.000  C
  C52      1.0000 0.42290  0.33750  0.50433  Biso   1.000  C
  C53      1.0000 0.48510  0.33650  0.45962  Biso   1.000  C
  C54      1.0000 0.62880  0.37970  0.45109  Biso   1.000  C
  C55      1.0000 0.70850  0.42300  0.48712  Biso   1.000  C
  C56      1.0000 0.64650  0.42510  0.53181  Biso   1.000  C
  C57      1.0000 0.50460  0.38070  0.54097  Biso   1.000  C
  C58      1.0000 0.69070  0.37860  0.40416  Biso   1.000  C
  C59      1.0000 0.72590  0.47320  0.57218  Biso   1.000  C
  C60      1.0000 0.13770  0.32190  0.49337  Biso   1.000  C
  C61      1.0000 0.87200  0.30750  0.81706  Biso   1.000  C
  C62      1.0000 0.00610  0.33100  0.84146  Biso   1.000  C
  C63      1.0000 0.09650  0.40860  0.82540  Biso   1.000  C
  C64      1.0000 0.05210  0.46090  0.78719  Biso   1.000  C
  C65      1.0000 0.91610  0.43780  0.76345  Biso   1.000  C
  C66      1.0000 0.82650  0.36110  0.77881  Biso   1.000  C
  C67      1.0000 0.78060  0.22194  0.83270  Biso   1.000  C
  C68      1.0000 0.88290  0.49160  0.71990  Biso   1.000  C
  C69      1.0000 0.20370  0.47560  0.89459  Biso   1.000  C
  C70      1.0000 0.33950  0.52760  0.91317  Biso   1.000  C
  C71      1.0000 0.33590  0.60510  0.94293  Biso   1.000  C
  C72      1.0000 0.46180  0.65790  0.95671  Biso   1.000  C
  C73      1.0000 0.60410  0.62470  0.94326  Biso   1.000  C
  C74      1.0000 0.61520  0.54400  0.91544  Biso   1.000  C
  C75      1.0000 0.48300  0.49650  0.90035  Biso   1.000  C
  C76      1.0000 0.86590  0.77620  0.01498  Biso   1.000  C
  C77      1.0000 0.73440  0.72930  0.99872  Biso   1.000  C
  C78      1.0000 0.73940  0.67730  0.95709  Biso   1.000  C
  C79      1.0000 0.87450  0.67360  0.93166  Biso   1.000  C
  C80      1.0000 0.00240  0.72660  0.94715  Biso   1.000  C
  C81      1.0000 0.00350  0.77300  0.98977  Biso   1.000  C
  C82      1.0000 0.42290  0.83750  0.99567  Biso   1.000  C
  C83      1.0000 0.48510  0.83650  0.04038  Biso   1.000  C
  C84      1.0000 0.62880  0.87970  0.04891  Biso   1.000  C
  C85      1.0000 0.70850  0.92300  0.01288  Biso   1.000  C
  C86      1.0000 0.64650  0.92510  0.96819  Biso   1.000  C
  C87      1.0000 0.50460  0.88070  0.95903  Biso   1.000  C
  C88      1.0000 0.69070  0.87860  0.09584  Biso   1.000  C
  C89      1.0000 0.72590  0.97320  0.92782  Biso   1.000  C
  C90      1.0000 0.13770  0.82190  0.00663  Biso   1.000  C
  C91      1.0000 0.12800  0.19250  0.31706  Biso   1.000  C
  C92      1.0000 0.99390  0.16900  0.34146  Biso   1.000  C
  C93      1.0000 0.90350  0.09140  0.32540  Biso   1.000  C
  C94      1.0000 0.94790  0.03910  0.28719  Biso   1.000  C
  C95      1.0000 0.08390  0.06220  0.26345  Biso   1.000  C
  C96      1.0000 0.17350  0.13890  0.27881  Biso   1.000  C
  C97      1.0000 0.21940  0.27806  0.33270  Biso   1.000  C
  C98      1.0000 0.11710  0.00840  0.21990  Biso   1.000  C
  C99      1.0000 0.79630  0.02440  0.39459  Biso   1.000  C
  C100     1.0000 0.66050  0.97240  0.41317  Biso   1.000  C
  C101     1.0000 0.66410  0.89490  0.44293  Biso   1.000  C
  C102     1.0000 0.53820  0.84210  0.45671  Biso   1.000  C
  C103     1.0000 0.39590  0.87530  0.44326  Biso   1.000  C
  C104     1.0000 0.38480  0.95600  0.41544  Biso   1.000  C
  C105     1.0000 0.51700  0.00350  0.40035  Biso   1.000  C
  C106     1.0000 0.13410  0.72380  0.51498  Biso   1.000  C
  C107     1.0000 0.26560  0.77070  0.49872  Biso   1.000  C
  C108     1.0000 0.26060  0.82270  0.45709  Biso   1.000  C
  C109     1.0000 0.12550  0.82640  0.43166  Biso   1.000  C
  C110     1.0000 0.99760  0.77340  0.44715  Biso   1.000  C
  C111     1.0000 0.99650  0.72700  0.48977  Biso   1.000  C
  C112     1.0000 0.57710  0.66250  0.49567  Biso   1.000  C
  C113     1.0000 0.51490  0.66350  0.54038  Biso   1.000  C
  C114     1.0000 0.37120  0.62030  0.54891  Biso   1.000  C
  C115     1.0000 0.29150  0.57700  0.51288  Biso   1.000  C
  C116     1.0000 0.35350  0.57490  0.46819  Biso   1.000  C
  C117     1.0000 0.49540  0.61930  0.45903  Biso   1.000  C
  C118     1.0000 0.30930  0.62140  0.59584  Biso   1.000  C
  C119     1.0000 0.27410  0.52680  0.42782  Biso   1.000  C
  C120     1.0000 0.86230  0.67810  0.50663  Biso   1.000  C
  O1       1.0000 0.17050  0.82810  0.13331  Biso   1.000  O
  O2       1.0000 0.34240  0.79897  0.18834  Biso   1.000  O
  O3       1.0000 0.26200  0.51154  0.28819  Biso   1.000  O
  O4       1.0000 0.02410  0.45552  0.30016  Biso   1.000  O
  O5       1.0000 0.77360  0.56525  0.15109  Biso   1.000  O
  O6       1.0000 0.71460  0.20856  0.01277  Biso   1.000  O
  O7       1.0000 0.39520  0.12884  0.86850  Biso   1.000  O
  O8       1.0000 0.16240  0.11860  0.90120  Biso   1.000  O
  O9       1.0000 0.14200  0.99436  0.06379  Biso   1.000  O
  O10      1.0000 0.34880  0.02258  0.11017  Biso   1.000  O
  O11      1.0000 0.94080  0.09544  0.10840  Biso   1.000  O
  O12      1.0000 0.60090  0.03218  0.19928  Biso   1.000  O
  O13      1.0000 0.82950  0.67190  0.63331  Biso   1.000  O
  O14      1.0000 0.65760  0.70103  0.68834  Biso   1.000  O
  O15      1.0000 0.73800  0.98846  0.78819  Biso   1.000  O
  O16      1.0000 0.97590  0.04448  0.80016  Biso   1.000  O
  O17      1.0000 0.22640  0.93475  0.65109  Biso   1.000  O
  O18      1.0000 0.28540  0.29144  0.51277  Biso   1.000  O
  O19      1.0000 0.60480  0.37116  0.36850  Biso   1.000  O
  O20      1.0000 0.83760  0.38140  0.40120  Biso   1.000  O
  O21      1.0000 0.85800  0.50564  0.56379  Biso   1.000  O
  O22      1.0000 0.65120  0.47742  0.61017  Biso   1.000  O
  O23      1.0000 0.05920  0.40456  0.60840  Biso   1.000  O
  O24      1.0000 0.39910  0.46782  0.69928  Biso   1.000  O
  O25      1.0000 0.82950  0.17190  0.86669  Biso   1.000  O
  O26      1.0000 0.65760  0.20103  0.81166  Biso   1.000  O
  O27      1.0000 0.73800  0.48846  0.71181  Biso   1.000  O
  O28      1.0000 0.97590  0.54448  0.69984  Biso   1.000  O
  O29      1.0000 0.22640  0.43475  0.84891  Biso   1.000  O
  O30      1.0000 0.28540  0.79144  0.98723  Biso   1.000  O
  O31      1.0000 0.60480  0.87116  0.13150  Biso   1.000  O
  O32      1.0000 0.83760  0.88140  0.09880  Biso   1.000  O
  O33      1.0000 0.85800  0.00564  0.93621  Biso   1.000  O
  O34      1.0000 0.65120  0.97742  0.88983  Biso   1.000  O
  O35      1.0000 0.05920  0.90456  0.89160  Biso   1.000  O
  O36      1.0000 0.39910  0.96782  0.80072  Biso   1.000  O
  O37      1.0000 0.17050  0.32810  0.36669  Biso   1.000  O
  O38      1.0000 0.34240  0.29897  0.31166  Biso   1.000  O
  O39      1.0000 0.26200  0.01154  0.21181  Biso   1.000  O
  O40      1.0000 0.02410  0.95552  0.19984  Biso   1.000  O
  O41      1.0000 0.77360  0.06525  0.34891  Biso   1.000  O
  O42      1.0000 0.71460  0.70856  0.48723  Biso   1.000  O
  O43      1.0000 0.39520  0.62884  0.63150  Biso   1.000  O
  O44      1.0000 0.16240  0.61860  0.59880  Biso   1.000  O
  O45      1.0000 0.14200  0.49436  0.43621  Biso   1.000  O
  O46      1.0000 0.34880  0.52258  0.38983  Biso   1.000  O
  O47      1.0000 0.94080  0.59544  0.39160  Biso   1.000  O
  O48      1.0000 0.60090  0.53218  0.30072  Biso   1.000  O
