data_image0
_cell_length_a       9.3243
_cell_length_b       14.4535
_cell_length_c       26.939
_cell_angle_alpha    90
_cell_angle_beta     90
_cell_angle_gamma    93.068

_symmetry_space_group_name_H-M    P 1
_symmetry_int_tables_number       1

loop_
  _symmetry_equiv_pos_as_xyz
  'x, y, z'

loop_
  _atom_site_label
  _atom_site_occupancy
  _atom_site_fract_x
  _atom_site_fract_y
  _atom_site_fract_z
  _atom_site_thermal_displace_type
  _atom_site_B_iso_or_equiv
  _atom_site_type_symbol
  Zn1      1.0000 0.64765  0.12181  0.32096  Biso   1.000  Zn
  Zn2      1.0000 0.96767  0.11193  0.37960  Biso   1.000  Zn
  Zn3      1.0000 0.35235  0.37819  0.82096  Biso   1.000  Zn
  Zn4      1.0000 0.03233  0.38807  0.87960  Biso   1.000  Zn
  Zn5      1.0000 0.35235  0.87819  0.67904  Biso   1.000  Zn
  Zn6      1.0000 0.03233  0.88807  0.62040  Biso   1.000  Zn
  Zn7      1.0000 0.64765  0.62181  0.17904  Biso   1.000  Zn
  Zn8      1.0000 0.96767  0.61193  0.12040  Biso   1.000  Zn
  H1       1.0000 0.10410  0.34720  0.36490  Biso   1.000  H
  H2       1.0000 0.16080  0.56070  0.26920  Biso   1.000  H
  H3       1.0000 0.80780  0.38800  0.26030  Biso   1.000  H
  H4       1.0000 0.33670  0.37210  0.37180  Biso   1.000  H
  H5       1.0000 0.25980  0.43630  0.40960  Biso   1.000  H
  H6       1.0000 0.60310  0.39440  0.36120  Biso   1.000  H
  H7       1.0000 0.81390  0.46500  0.38940  Biso   1.000  H
  H8       1.0000 0.60710  0.65240  0.46760  Biso   1.000  H
  H9       1.0000 0.41180  0.55020  0.45630  Biso   1.000  H
  H10      1.0000 0.00470  0.52160  0.41590  Biso   1.000  H
  H11      1.0000 0.20400  0.61720  0.43310  Biso   1.000  H
  H12      1.0000 0.00110  0.76440  0.53130  Biso   1.000  H
  H13      1.0000 0.78940  0.69350  0.50300  Biso   1.000  H
  H14      1.0000 0.25620  0.76000  0.54270  Biso   1.000  H
  H15      1.0000 0.34130  0.68350  0.51550  Biso   1.000  H
  H16      1.0000 0.44340  0.91500  0.41870  Biso   1.000  H
  H17      1.0000 0.80910  0.96800  0.49380  Biso   1.000  H
  H18      1.0000 0.51070  0.78150  0.54540  Biso   1.000  H
  H19      1.0000 0.51090  0.22930  0.37540  Biso   1.000  H
  H20      1.0000 0.42390  0.21220  0.33350  Biso   1.000  H
  H21      1.0000 0.47400  0.13130  0.25680  Biso   1.000  H
  H22      1.0000 0.45540  0.03880  0.26560  Biso   1.000  H
  H23      1.0000 0.89590  0.15280  0.86490  Biso   1.000  H
  H24      1.0000 0.83920  0.93930  0.76920  Biso   1.000  H
  H25      1.0000 0.19220  0.11200  0.76030  Biso   1.000  H
  H26      1.0000 0.66330  0.12790  0.87180  Biso   1.000  H
  H27      1.0000 0.74020  0.06370  0.90960  Biso   1.000  H
  H28      1.0000 0.39690  0.10560  0.86120  Biso   1.000  H
  H29      1.0000 0.18610  0.03500  0.88940  Biso   1.000  H
  H30      1.0000 0.39290  0.84760  0.96760  Biso   1.000  H
  H31      1.0000 0.58820  0.94980  0.95630  Biso   1.000  H
  H32      1.0000 0.99530  0.97840  0.91590  Biso   1.000  H
  H33      1.0000 0.79600  0.88280  0.93310  Biso   1.000  H
  H34      1.0000 0.99890  0.73560  0.03130  Biso   1.000  H
  H35      1.0000 0.21060  0.80650  0.00300  Biso   1.000  H
  H36      1.0000 0.74380  0.74000  0.04270  Biso   1.000  H
  H37      1.0000 0.65870  0.81650  0.01550  Biso   1.000  H
  H38      1.0000 0.55660  0.58500  0.91870  Biso   1.000  H
  H39      1.0000 0.19090  0.53200  0.99380  Biso   1.000  H
  H40      1.0000 0.48930  0.71850  0.04540  Biso   1.000  H
  H41      1.0000 0.48910  0.27070  0.87540  Biso   1.000  H
  H42      1.0000 0.57610  0.28780  0.83350  Biso   1.000  H
  H43      1.0000 0.52600  0.36870  0.75680  Biso   1.000  H
  H44      1.0000 0.54460  0.46120  0.76560  Biso   1.000  H
  H45      1.0000 0.89590  0.65280  0.63510  Biso   1.000  H
  H46      1.0000 0.83920  0.43930  0.73080  Biso   1.000  H
  H47      1.0000 0.19220  0.61200  0.73970  Biso   1.000  H
  H48      1.0000 0.66330  0.62790  0.62820  Biso   1.000  H
  H49      1.0000 0.74020  0.56370  0.59040  Biso   1.000  H
  H50      1.0000 0.39690  0.60560  0.63880  Biso   1.000  H
  H51      1.0000 0.18610  0.53500  0.61060  Biso   1.000  H
  H52      1.0000 0.39290  0.34760  0.53240  Biso   1.000  H
  H53      1.0000 0.58820  0.44980  0.54370  Biso   1.000  H
  H54      1.0000 0.99530  0.47840  0.58410  Biso   1.000  H
  H55      1.0000 0.79600  0.38280  0.56690  Biso   1.000  H
  H56      1.0000 0.99890  0.23560  0.46870  Biso   1.000  H
  H57      1.0000 0.21060  0.30650  0.49700  Biso   1.000  H
  H58      1.0000 0.74380  0.24000  0.45730  Biso   1.000  H
  H59      1.0000 0.65870  0.31650  0.48450  Biso   1.000  H
  H60      1.0000 0.55660  0.08500  0.58130  Biso   1.000  H
  H61      1.0000 0.19090  0.03200  0.50620  Biso   1.000  H
  H62      1.0000 0.48930  0.21850  0.45460  Biso   1.000  H
  H63      1.0000 0.48910  0.77070  0.62460  Biso   1.000  H
  H64      1.0000 0.57610  0.78780  0.66650  Biso   1.000  H
  H65      1.0000 0.52600  0.86870  0.74320  Biso   1.000  H
  H66      1.0000 0.54460  0.96120  0.73440  Biso   1.000  H
  H67      1.0000 0.10410  0.84720  0.13510  Biso   1.000  H
  H68      1.0000 0.16080  0.06070  0.23080  Biso   1.000  H
  H69      1.0000 0.80780  0.88800  0.23970  Biso   1.000  H
  H70      1.0000 0.33670  0.87210  0.12820  Biso   1.000  H
  H71      1.0000 0.25980  0.93630  0.09040  Biso   1.000  H
  H72      1.0000 0.60310  0.89440  0.13880  Biso   1.000  H
  H73      1.0000 0.81390  0.96500  0.11060  Biso   1.000  H
  H74      1.0000 0.60710  0.15240  0.03240  Biso   1.000  H
  H75      1.0000 0.41180  0.05020  0.04370  Biso   1.000  H
  H76      1.0000 0.00470  0.02160  0.08410  Biso   1.000  H
  H77      1.0000 0.20400  0.11720  0.06690  Biso   1.000  H
  H78      1.0000 0.00110  0.26440  0.96870  Biso   1.000  H
  H79      1.0000 0.78940  0.19350  0.99700  Biso   1.000  H
  H80      1.0000 0.25620  0.26000  0.95730  Biso   1.000  H
  H81      1.0000 0.34130  0.18350  0.98450  Biso   1.000  H
  H82      1.0000 0.44340  0.41500  0.08130  Biso   1.000  H
  H83      1.0000 0.80910  0.46800  0.00620  Biso   1.000  H
  H84      1.0000 0.51070  0.28150  0.95460  Biso   1.000  H
  H85      1.0000 0.51090  0.72930  0.12460  Biso   1.000  H
  H86      1.0000 0.42390  0.71220  0.16650  Biso   1.000  H
  H87      1.0000 0.47400  0.63130  0.24320  Biso   1.000  H
  H88      1.0000 0.45540  0.53880  0.23440  Biso   1.000  H
  C1       1.0000 0.94440  0.35490  0.31550  Biso   1.000  C
  C2       1.0000 0.07170  0.38110  0.33819  Biso   1.000  C
  C3       1.0000 0.15200  0.45830  0.32139  Biso   1.000  C
  C4       1.0000 0.10630  0.50940  0.28072  Biso   1.000  C
  C5       1.0000 0.97700  0.48120  0.25802  Biso   1.000  C
  C6       1.0000 0.89500  0.40530  0.27529  Biso   1.000  C
  C7       1.0000 0.86690  0.26810  0.33151  Biso   1.000  C
  C8       1.0000 0.92360  0.53260  0.21364  Biso   1.000  C
  C9       1.0000 0.32810  0.43570  0.38247  Biso   1.000  C
  C10      1.0000 0.47350  0.47760  0.39907  Biso   1.000  C
  C11      1.0000 0.60160  0.44410  0.38307  Biso   1.000  C
  C12      1.0000 0.72820  0.48730  0.40071  Biso   1.000  C
  C13      1.0000 0.73770  0.56110  0.43389  Biso   1.000  C
  C14      1.0000 0.61110  0.59730  0.44995  Biso   1.000  C
  C15      1.0000 0.49260  0.54260  0.43681  Biso   1.000  C
  C16      1.0000 0.87460  0.60590  0.45457  Biso   1.000  C
  C17      1.0000 0.00120  0.57330  0.43629  Biso   1.000  C
  C18      1.0000 0.12100  0.62510  0.45143  Biso   1.000  C
  C19      1.0000 0.13460  0.68870  0.49101  Biso   1.000  C
  C20      1.0000 0.00370  0.71710  0.50803  Biso   1.000  C
  C21      1.0000 0.87620  0.67490  0.49038  Biso   1.000  C
  C22      1.0000 0.27190  0.73050  0.51102  Biso   1.000  C
  C23      1.0000 0.45280  0.84280  0.48329  Biso   1.000  C
  C24      1.0000 0.50030  0.90530  0.44634  Biso   1.000  C
  C25      1.0000 0.63280  0.95260  0.45131  Biso   1.000  C
  C26      1.0000 0.71930  0.93700  0.49145  Biso   1.000  C
  C27      1.0000 0.67340  0.87500  0.52877  Biso   1.000  C
  C28      1.0000 0.54000  0.82640  0.52226  Biso   1.000  C
  C29      1.0000 0.68660  0.01780  0.41190  Biso   1.000  C
  C30      1.0000 0.76660  0.85840  0.57109  Biso   1.000  C
  C31      1.0000 0.05560  0.14510  0.81550  Biso   1.000  C
  C32      1.0000 0.92830  0.11890  0.83819  Biso   1.000  C
  C33      1.0000 0.84800  0.04170  0.82139  Biso   1.000  C
  C34      1.0000 0.89370  0.99060  0.78072  Biso   1.000  C
  C35      1.0000 0.02300  0.01880  0.75802  Biso   1.000  C
  C36      1.0000 0.10500  0.09470  0.77529  Biso   1.000  C
  C37      1.0000 0.13310  0.23190  0.83151  Biso   1.000  C
  C38      1.0000 0.07640  0.96740  0.71364  Biso   1.000  C
  C39      1.0000 0.67190  0.06430  0.88247  Biso   1.000  C
  C40      1.0000 0.52650  0.02240  0.89907  Biso   1.000  C
  C41      1.0000 0.39840  0.05590  0.88307  Biso   1.000  C
  C42      1.0000 0.27180  0.01270  0.90071  Biso   1.000  C
  C43      1.0000 0.26230  0.93890  0.93389  Biso   1.000  C
  C44      1.0000 0.38890  0.90270  0.94995  Biso   1.000  C
  C45      1.0000 0.50740  0.95740  0.93681  Biso   1.000  C
  C46      1.0000 0.12540  0.89410  0.95457  Biso   1.000  C
  C47      1.0000 0.99880  0.92670  0.93629  Biso   1.000  C
  C48      1.0000 0.87900  0.87490  0.95143  Biso   1.000  C
  C49      1.0000 0.86540  0.81130  0.99101  Biso   1.000  C
  C50      1.0000 0.99630  0.78290  0.00803  Biso   1.000  C
  C51      1.0000 0.12380  0.82510  0.99038  Biso   1.000  C
  C52      1.0000 0.72810  0.76950  0.01102  Biso   1.000  C
  C53      1.0000 0.54720  0.65720  0.98329  Biso   1.000  C
  C54      1.0000 0.49970  0.59470  0.94634  Biso   1.000  C
  C55      1.0000 0.36720  0.54740  0.95131  Biso   1.000  C
  C56      1.0000 0.28070  0.56300  0.99145  Biso   1.000  C
  C57      1.0000 0.32660  0.62500  0.02877  Biso   1.000  C
  C58      1.0000 0.46000  0.67360  0.02226  Biso   1.000  C
  C59      1.0000 0.31340  0.48220  0.91190  Biso   1.000  C
  C60      1.0000 0.23340  0.64160  0.07109  Biso   1.000  C
  C61      1.0000 0.05560  0.64510  0.68450  Biso   1.000  C
  C62      1.0000 0.92830  0.61890  0.66181  Biso   1.000  C
  C63      1.0000 0.84800  0.54170  0.67861  Biso   1.000  C
  C64      1.0000 0.89370  0.49060  0.71928  Biso   1.000  C
  C65      1.0000 0.02300  0.51880  0.74198  Biso   1.000  C
  C66      1.0000 0.10500  0.59470  0.72471  Biso   1.000  C
  C67      1.0000 0.13310  0.73190  0.66849  Biso   1.000  C
  C68      1.0000 0.07640  0.46740  0.78636  Biso   1.000  C
  C69      1.0000 0.67190  0.56430  0.61753  Biso   1.000  C
  C70      1.0000 0.52650  0.52240  0.60093  Biso   1.000  C
  C71      1.0000 0.39840  0.55590  0.61693  Biso   1.000  C
  C72      1.0000 0.27180  0.51270  0.59929  Biso   1.000  C
  C73      1.0000 0.26230  0.43890  0.56611  Biso   1.000  C
  C74      1.0000 0.38890  0.40270  0.55005  Biso   1.000  C
  C75      1.0000 0.50740  0.45740  0.56319  Biso   1.000  C
  C76      1.0000 0.12540  0.39410  0.54543  Biso   1.000  C
  C77      1.0000 0.99880  0.42670  0.56371  Biso   1.000  C
  C78      1.0000 0.87900  0.37490  0.54857  Biso   1.000  C
  C79      1.0000 0.86540  0.31130  0.50899  Biso   1.000  C
  C80      1.0000 0.99630  0.28290  0.49197  Biso   1.000  C
  C81      1.0000 0.12380  0.32510  0.50962  Biso   1.000  C
  C82      1.0000 0.72810  0.26950  0.48898  Biso   1.000  C
  C83      1.0000 0.54720  0.15720  0.51671  Biso   1.000  C
  C84      1.0000 0.49970  0.09470  0.55366  Biso   1.000  C
  C85      1.0000 0.36720  0.04740  0.54869  Biso   1.000  C
  C86      1.0000 0.28070  0.06300  0.50855  Biso   1.000  C
  C87      1.0000 0.32660  0.12500  0.47123  Biso   1.000  C
  C88      1.0000 0.46000  0.17360  0.47774  Biso   1.000  C
  C89      1.0000 0.31340  0.98220  0.58810  Biso   1.000  C
  C90      1.0000 0.23340  0.14160  0.42891  Biso   1.000  C
  C91      1.0000 0.94440  0.85490  0.18450  Biso   1.000  C
  C92      1.0000 0.07170  0.88110  0.16181  Biso   1.000  C
  C93      1.0000 0.15200  0.95830  0.17861  Biso   1.000  C
  C94      1.0000 0.10630  0.00940  0.21928  Biso   1.000  C
  C95      1.0000 0.97700  0.98120  0.24198  Biso   1.000  C
  C96      1.0000 0.89500  0.90530  0.22471  Biso   1.000  C
  C97      1.0000 0.86690  0.76810  0.16849  Biso   1.000  C
  C98      1.0000 0.92360  0.03260  0.28636  Biso   1.000  C
  C99      1.0000 0.32810  0.93570  0.11753  Biso   1.000  C
  C100     1.0000 0.47350  0.97760  0.10093  Biso   1.000  C
  C101     1.0000 0.60160  0.94410  0.11693  Biso   1.000  C
  C102     1.0000 0.72820  0.98730  0.09929  Biso   1.000  C
  C103     1.0000 0.73770  0.06110  0.06611  Biso   1.000  C
  C104     1.0000 0.61110  0.09730  0.05005  Biso   1.000  C
  C105     1.0000 0.49260  0.04260  0.06319  Biso   1.000  C
  C106     1.0000 0.87460  0.10590  0.04543  Biso   1.000  C
  C107     1.0000 0.00120  0.07330  0.06371  Biso   1.000  C
  C108     1.0000 0.12100  0.12510  0.04857  Biso   1.000  C
  C109     1.0000 0.13460  0.18870  0.00899  Biso   1.000  C
  C110     1.0000 0.00370  0.21710  0.99197  Biso   1.000  C
  C111     1.0000 0.87620  0.17490  0.00962  Biso   1.000  C
  C112     1.0000 0.27190  0.23050  0.98898  Biso   1.000  C
  C113     1.0000 0.45280  0.34280  0.01671  Biso   1.000  C
  C114     1.0000 0.50030  0.40530  0.05366  Biso   1.000  C
  C115     1.0000 0.63280  0.45260  0.04869  Biso   1.000  C
  C116     1.0000 0.71930  0.43700  0.00855  Biso   1.000  C
  C117     1.0000 0.67340  0.37500  0.97123  Biso   1.000  C
  C118     1.0000 0.54000  0.32640  0.97774  Biso   1.000  C
  C119     1.0000 0.68660  0.51780  0.08810  Biso   1.000  C
  C120     1.0000 0.76660  0.35840  0.92891  Biso   1.000  C
  O1       1.0000 0.77140  0.23287  0.30329  Biso   1.000  O
  O2       1.0000 0.90010  0.23681  0.37184  Biso   1.000  O
  O3       1.0000 0.28190  0.48999  0.34276  Biso   1.000  O
  O4       1.0000 0.32300  0.79906  0.47403  Biso   1.000  O
  O5       1.0000 0.73310  0.80130  0.60522  Biso   1.000  O
  O6       1.0000 0.88850  0.90341  0.57131  Biso   1.000  O
  O7       1.0000 0.81580  0.04050  0.41416  Biso   1.000  O
  O8       1.0000 0.79320  0.52945  0.20532  Biso   1.000  O
  O9       1.0000 0.02170  0.57204  0.18605  Biso   1.000  O
  O10      1.0000 0.60020  0.04558  0.37995  Biso   1.000  O
  O11      1.0000 0.50940  0.22044  0.34420  Biso   1.000  O
  O12      1.0000 0.51840  0.08352  0.26460  Biso   1.000  O
  O13      1.0000 0.22860  0.26713  0.80329  Biso   1.000  O
  O14      1.0000 0.09990  0.26319  0.87184  Biso   1.000  O
  O15      1.0000 0.71810  0.01001  0.84276  Biso   1.000  O
  O16      1.0000 0.67700  0.70094  0.97403  Biso   1.000  O
  O17      1.0000 0.26690  0.69870  0.10522  Biso   1.000  O
  O18      1.0000 0.11150  0.59659  0.07131  Biso   1.000  O
  O19      1.0000 0.18420  0.45950  0.91416  Biso   1.000  O
  O20      1.0000 0.20680  0.97055  0.70532  Biso   1.000  O
  O21      1.0000 0.97830  0.92796  0.68605  Biso   1.000  O
  O22      1.0000 0.39980  0.45442  0.87995  Biso   1.000  O
  O23      1.0000 0.49060  0.27956  0.84420  Biso   1.000  O
  O24      1.0000 0.48160  0.41648  0.76460  Biso   1.000  O
  O25      1.0000 0.22860  0.76713  0.69671  Biso   1.000  O
  O26      1.0000 0.09990  0.76319  0.62816  Biso   1.000  O
  O27      1.0000 0.71810  0.51001  0.65724  Biso   1.000  O
  O28      1.0000 0.67700  0.20094  0.52597  Biso   1.000  O
  O29      1.0000 0.26690  0.19870  0.39478  Biso   1.000  O
  O30      1.0000 0.11150  0.09659  0.42869  Biso   1.000  O
  O31      1.0000 0.18420  0.95950  0.58584  Biso   1.000  O
  O32      1.0000 0.20680  0.47055  0.79468  Biso   1.000  O
  O33      1.0000 0.97830  0.42796  0.81395  Biso   1.000  O
  O34      1.0000 0.39980  0.95442  0.62005  Biso   1.000  O
  O35      1.0000 0.49060  0.77956  0.65580  Biso   1.000  O
  O36      1.0000 0.48160  0.91648  0.73540  Biso   1.000  O
  O37      1.0000 0.77140  0.73287  0.19671  Biso   1.000  O
  O38      1.0000 0.90010  0.73681  0.12816  Biso   1.000  O
  O39      1.0000 0.28190  0.98999  0.15724  Biso   1.000  O
  O40      1.0000 0.32300  0.29906  0.02597  Biso   1.000  O
  O41      1.0000 0.73310  0.30130  0.89478  Biso   1.000  O
  O42      1.0000 0.88850  0.40341  0.92869  Biso   1.000  O
  O43      1.0000 0.81580  0.54050  0.08584  Biso   1.000  O
  O44      1.0000 0.79320  0.02945  0.29468  Biso   1.000  O
  O45      1.0000 0.02170  0.07204  0.31395  Biso   1.000  O
  O46      1.0000 0.60020  0.54558  0.12005  Biso   1.000  O
  O47      1.0000 0.50940  0.72044  0.15580  Biso   1.000  O
  O48      1.0000 0.51840  0.58352  0.23540  Biso   1.000  O
