data_image0
_cell_length_a       11.1929
_cell_length_b       12.3475
_cell_length_c       28.6734
_cell_angle_alpha    98.816
_cell_angle_beta     90
_cell_angle_gamma    90

_symmetry_space_group_name_H-M    P 1
_symmetry_int_tables_number       1

loop_
  _symmetry_equiv_pos_as_xyz
  'x, y, z'

loop_
  _atom_site_label
  _atom_site_occupancy
  _atom_site_fract_x
  _atom_site_fract_y
  _atom_site_fract_z
  _atom_site_thermal_displace_type
  _atom_site_B_iso_or_equiv
  _atom_site_type_symbol
  Mg1      1.0000 0.17327  0.33707  0.85988  Biso   1.000  Mg
  Mg2      1.0000 0.45775  0.55341  0.83391  Biso   1.000  Mg
  Mg3      1.0000 0.28980  0.27260  0.14158  Biso   1.000  Mg
  Mg4      1.0000 0.67327  0.16293  0.64012  Biso   1.000  Mg
  Mg5      1.0000 0.95775  0.94659  0.66609  Biso   1.000  Mg
  Mg6      1.0000 0.78980  0.22740  0.35842  Biso   1.000  Mg
  Mg7      1.0000 0.82673  0.66293  0.14012  Biso   1.000  Mg
  Mg8      1.0000 0.54225  0.44659  0.16609  Biso   1.000  Mg
  Mg9      1.0000 0.71020  0.72740  0.85842  Biso   1.000  Mg
  Mg10     1.0000 0.32673  0.83707  0.35988  Biso   1.000  Mg
  Mg11     1.0000 0.04225  0.05341  0.33391  Biso   1.000  Mg
  Mg12     1.0000 0.21020  0.77260  0.64158  Biso   1.000  Mg
  H1       1.0000 0.51600  0.33200  0.71590  Biso   1.000  H
  H2       1.0000 0.19410  0.19560  0.73360  Biso   1.000  H
  H3       1.0000 0.43270  0.05080  0.63870  Biso   1.000  H
  H4       1.0000 0.34360  0.31560  0.98540  Biso   1.000  H
  H5       1.0000 0.64960  0.42490  0.93520  Biso   1.000  H
  H6       1.0000 0.64490  0.35200  0.06350  Biso   1.000  H
  H7       1.0000 0.96610  0.64760  0.88380  Biso   1.000  H
  H8       1.0000 0.20050  0.68010  0.78020  Biso   1.000  H
  H9       1.0000 0.87200  0.81750  0.78430  Biso   1.000  H
  H10      1.0000 0.16400  0.45200  0.95560  Biso   1.000  H
  H11      1.0000 0.14400  0.53600  0.03580  Biso   1.000  H
  H12      1.0000 0.17600  0.41600  0.05940  Biso   1.000  H
  H13      1.0000 0.03600  0.47300  0.06100  Biso   1.000  H
  H14      1.0000 0.93300  0.30700  0.02110  Biso   1.000  H
  H15      1.0000 0.04500  0.23900  0.03810  Biso   1.000  H
  H16      1.0000 0.99700  0.21600  0.97890  Biso   1.000  H
  H17      1.0000 0.36910  0.19730  0.83040  Biso   1.000  H
  H18      1.0000 0.46730  0.94430  0.77210  Biso   1.000  H
  H19      1.0000 0.52040  0.03900  0.81090  Biso   1.000  H
  H20      1.0000 0.47430  0.06760  0.76140  Biso   1.000  H
  H21      1.0000 0.30360  0.88790  0.78160  Biso   1.000  H
  H22      1.0000 0.19600  0.97050  0.77640  Biso   1.000  H
  H23      1.0000 0.22720  0.93800  0.82690  Biso   1.000  H
  H24      1.0000 0.15300  0.05420  0.10610  Biso   1.000  H
  H25      1.0000 0.36820  0.80270  0.09470  Biso   1.000  H
  H26      1.0000 0.42300  0.91420  0.08190  Biso   1.000  H
  H27      1.0000 0.40150  0.90070  0.13590  Biso   1.000  H
  H28      1.0000 0.19210  0.77440  0.07760  Biso   1.000  H
  H29      1.0000 0.09420  0.85250  0.10620  Biso   1.000  H
  H30      1.0000 0.12890  0.86800  0.05350  Biso   1.000  H
  H31      1.0000 0.01600  0.16800  0.78410  Biso   1.000  H
  H32      1.0000 0.69410  0.30440  0.76640  Biso   1.000  H
  H33      1.0000 0.93270  0.44920  0.86130  Biso   1.000  H
  H34      1.0000 0.84360  0.18440  0.51460  Biso   1.000  H
  H35      1.0000 0.14960  0.07510  0.56480  Biso   1.000  H
  H36      1.0000 0.14490  0.14800  0.43650  Biso   1.000  H
  H37      1.0000 0.46610  0.85240  0.61620  Biso   1.000  H
  H38      1.0000 0.70050  0.81990  0.71980  Biso   1.000  H
  H39      1.0000 0.37200  0.68250  0.71570  Biso   1.000  H
  H40      1.0000 0.66400  0.04800  0.54440  Biso   1.000  H
  H41      1.0000 0.64400  0.96400  0.46420  Biso   1.000  H
  H42      1.0000 0.67600  0.08400  0.44060  Biso   1.000  H
  H43      1.0000 0.53600  0.02700  0.43900  Biso   1.000  H
  H44      1.0000 0.43300  0.19300  0.47890  Biso   1.000  H
  H45      1.0000 0.54500  0.26100  0.46190  Biso   1.000  H
  H46      1.0000 0.49700  0.28400  0.52110  Biso   1.000  H
  H47      1.0000 0.86910  0.30270  0.66960  Biso   1.000  H
  H48      1.0000 0.96730  0.55570  0.72790  Biso   1.000  H
  H49      1.0000 0.02040  0.46100  0.68910  Biso   1.000  H
  H50      1.0000 0.97430  0.43240  0.73860  Biso   1.000  H
  H51      1.0000 0.80360  0.61210  0.71840  Biso   1.000  H
  H52      1.0000 0.69600  0.52950  0.72360  Biso   1.000  H
  H53      1.0000 0.72720  0.56200  0.67310  Biso   1.000  H
  H54      1.0000 0.65300  0.44580  0.39390  Biso   1.000  H
  H55      1.0000 0.86820  0.69730  0.40530  Biso   1.000  H
  H56      1.0000 0.92300  0.58580  0.41810  Biso   1.000  H
  H57      1.0000 0.90150  0.59930  0.36410  Biso   1.000  H
  H58      1.0000 0.69210  0.72560  0.42240  Biso   1.000  H
  H59      1.0000 0.59420  0.64750  0.39380  Biso   1.000  H
  H60      1.0000 0.62890  0.63200  0.44650  Biso   1.000  H
  H61      1.0000 0.48400  0.66800  0.28410  Biso   1.000  H
  H62      1.0000 0.80590  0.80440  0.26640  Biso   1.000  H
  H63      1.0000 0.56730  0.94920  0.36130  Biso   1.000  H
  H64      1.0000 0.65640  0.68440  0.01460  Biso   1.000  H
  H65      1.0000 0.35040  0.57510  0.06480  Biso   1.000  H
  H66      1.0000 0.35510  0.64800  0.93650  Biso   1.000  H
  H67      1.0000 0.03390  0.35240  0.11620  Biso   1.000  H
  H68      1.0000 0.79950  0.31990  0.21980  Biso   1.000  H
  H69      1.0000 0.12800  0.18250  0.21570  Biso   1.000  H
  H70      1.0000 0.83600  0.54800  0.04440  Biso   1.000  H
  H71      1.0000 0.85600  0.46400  0.96420  Biso   1.000  H
  H72      1.0000 0.82400  0.58400  0.94060  Biso   1.000  H
  H73      1.0000 0.96400  0.52700  0.93900  Biso   1.000  H
  H74      1.0000 0.06700  0.69300  0.97890  Biso   1.000  H
  H75      1.0000 0.95500  0.76100  0.96190  Biso   1.000  H
  H76      1.0000 0.00300  0.78400  0.02110  Biso   1.000  H
  H77      1.0000 0.63090  0.80270  0.16960  Biso   1.000  H
  H78      1.0000 0.53270  0.05570  0.22790  Biso   1.000  H
  H79      1.0000 0.47960  0.96100  0.18910  Biso   1.000  H
  H80      1.0000 0.52570  0.93240  0.23860  Biso   1.000  H
  H81      1.0000 0.69640  0.11210  0.21840  Biso   1.000  H
  H82      1.0000 0.80400  0.02950  0.22360  Biso   1.000  H
  H83      1.0000 0.77280  0.06200  0.17310  Biso   1.000  H
  H84      1.0000 0.84700  0.94580  0.89390  Biso   1.000  H
  H85      1.0000 0.63180  0.19730  0.90530  Biso   1.000  H
  H86      1.0000 0.57700  0.08580  0.91810  Biso   1.000  H
  H87      1.0000 0.59850  0.09930  0.86410  Biso   1.000  H
  H88      1.0000 0.80790  0.22560  0.92240  Biso   1.000  H
  H89      1.0000 0.90580  0.14750  0.89380  Biso   1.000  H
  H90      1.0000 0.87110  0.13200  0.94650  Biso   1.000  H
  H91      1.0000 0.98400  0.83200  0.21590  Biso   1.000  H
  H92      1.0000 0.30590  0.69560  0.23360  Biso   1.000  H
  H93      1.0000 0.06730  0.55080  0.13870  Biso   1.000  H
  H94      1.0000 0.15640  0.81560  0.48540  Biso   1.000  H
  H95      1.0000 0.85040  0.92490  0.43520  Biso   1.000  H
  H96      1.0000 0.85510  0.85200  0.56350  Biso   1.000  H
  H97      1.0000 0.53390  0.14760  0.38380  Biso   1.000  H
  H98      1.0000 0.29950  0.18010  0.28020  Biso   1.000  H
  H99      1.0000 0.62800  0.31750  0.28430  Biso   1.000  H
  H100     1.0000 0.33600  0.95200  0.45560  Biso   1.000  H
  H101     1.0000 0.35600  0.03600  0.53580  Biso   1.000  H
  H102     1.0000 0.32400  0.91600  0.55940  Biso   1.000  H
  H103     1.0000 0.46400  0.97300  0.56100  Biso   1.000  H
  H104     1.0000 0.56700  0.80700  0.52110  Biso   1.000  H
  H105     1.0000 0.45500  0.73900  0.53810  Biso   1.000  H
  H106     1.0000 0.50300  0.71600  0.47890  Biso   1.000  H
  H107     1.0000 0.13090  0.69730  0.33040  Biso   1.000  H
  H108     1.0000 0.03270  0.44430  0.27210  Biso   1.000  H
  H109     1.0000 0.97960  0.53900  0.31090  Biso   1.000  H
  H110     1.0000 0.02570  0.56760  0.26140  Biso   1.000  H
  H111     1.0000 0.19640  0.38790  0.28160  Biso   1.000  H
  H112     1.0000 0.30400  0.47050  0.27640  Biso   1.000  H
  H113     1.0000 0.27280  0.43800  0.32690  Biso   1.000  H
  H114     1.0000 0.34700  0.55420  0.60610  Biso   1.000  H
  H115     1.0000 0.13180  0.30270  0.59470  Biso   1.000  H
  H116     1.0000 0.07700  0.41420  0.58190  Biso   1.000  H
  H117     1.0000 0.09850  0.40070  0.63590  Biso   1.000  H
  H118     1.0000 0.30790  0.27440  0.57760  Biso   1.000  H
  H119     1.0000 0.40580  0.35250  0.60620  Biso   1.000  H
  H120     1.0000 0.37110  0.36800  0.55350  Biso   1.000  H
  C1       1.0000 0.46070  0.27390  0.70762  Biso   1.000  C
  C2       1.0000 0.35060  0.27890  0.73091  Biso   1.000  C
  C3       1.0000 0.26970  0.19440  0.71847  Biso   1.000  C
  C4       1.0000 0.30041  0.10778  0.68358  Biso   1.000  C
  C5       1.0000 0.41190  0.10990  0.66255  Biso   1.000  C
  C6       1.0000 0.32440  0.36914  0.77129  Biso   1.000  C
  C7       1.0000 0.18436  0.58244  0.85737  Biso   1.000  C
  C8       1.0000 0.42460  0.39096  0.90762  Biso   1.000  C
  C9       1.0000 0.41460  0.30260  0.07310  Biso   1.000  C
  C10      1.0000 0.48370  0.33120  0.03154  Biso   1.000  C
  C11      1.0000 0.42500  0.33679  0.98928  Biso   1.000  C
  C12      1.0000 0.48650  0.37359  0.95275  Biso   1.000  C
  C13      1.0000 0.60710  0.39890  0.95990  Biso   1.000  C
  C14      1.0000 0.60450  0.35710  0.03474  Biso   1.000  C
  C15      1.0000 0.21846  0.01125  0.67110  Biso   1.000  C
  C16      1.0000 0.05549  0.78945  0.72703  Biso   1.000  C
  C17      1.0000 0.03768  0.75231  0.77425  Biso   1.000  C
  C18      1.0000 0.98519  0.67648  0.85589  Biso   1.000  C
  C19      1.0000 0.09662  0.65370  0.83595  Biso   1.000  C
  C20      1.0000 0.12423  0.69319  0.79445  Biso   1.000  C
  C21      1.0000 0.92930  0.77429  0.79757  Biso   1.000  C
  C22      1.0000 0.11350  0.38140  0.95753  Biso   1.000  C
  C23      1.0000 0.11640  0.45080  0.04080  Biso   1.000  C
  C24      1.0000 0.01090  0.27790  0.01061  Biso   1.000  C
  C25      1.0000 0.30970  0.14170  0.82660  Biso   1.000  C
  C26      1.0000 0.46060  0.02170  0.78590  Biso   1.000  C
  C27      1.0000 0.26070  0.95280  0.79700  Biso   1.000  C
  C28      1.0000 0.23150  0.03160  0.11270  Biso   1.000  C
  C29      1.0000 0.37060  0.88250  0.10370  Biso   1.000  C
  C30      1.0000 0.15940  0.84890  0.08320  Biso   1.000  C
  C31      1.0000 0.96070  0.22610  0.79238  Biso   1.000  C
  C32      1.0000 0.85060  0.22110  0.76909  Biso   1.000  C
  C33      1.0000 0.76970  0.30560  0.78153  Biso   1.000  C
  C34      1.0000 0.80041  0.39222  0.81642  Biso   1.000  C
  C35      1.0000 0.91190  0.39010  0.83745  Biso   1.000  C
  C36      1.0000 0.82440  0.13086  0.72871  Biso   1.000  C
  C37      1.0000 0.68436  0.91756  0.64263  Biso   1.000  C
  C38      1.0000 0.92460  0.10904  0.59238  Biso   1.000  C
  C39      1.0000 0.91460  0.19740  0.42690  Biso   1.000  C
  C40      1.0000 0.98370  0.16880  0.46846  Biso   1.000  C
  C41      1.0000 0.92500  0.16321  0.51072  Biso   1.000  C
  C42      1.0000 0.98650  0.12641  0.54725  Biso   1.000  C
  C43      1.0000 0.10710  0.10110  0.54010  Biso   1.000  C
  C44      1.0000 0.10450  0.14290  0.46526  Biso   1.000  C
  C45      1.0000 0.71846  0.48875  0.82890  Biso   1.000  C
  C46      1.0000 0.55549  0.71055  0.77297  Biso   1.000  C
  C47      1.0000 0.53768  0.74769  0.72575  Biso   1.000  C
  C48      1.0000 0.48519  0.82352  0.64411  Biso   1.000  C
  C49      1.0000 0.59662  0.84630  0.66405  Biso   1.000  C
  C50      1.0000 0.62423  0.80681  0.70555  Biso   1.000  C
  C51      1.0000 0.42930  0.72571  0.70243  Biso   1.000  C
  C52      1.0000 0.61350  0.11860  0.54247  Biso   1.000  C
  C53      1.0000 0.61640  0.04920  0.45920  Biso   1.000  C
  C54      1.0000 0.51090  0.22210  0.48939  Biso   1.000  C
  C55      1.0000 0.80970  0.35830  0.67340  Biso   1.000  C
  C56      1.0000 0.96060  0.47830  0.71410  Biso   1.000  C
  C57      1.0000 0.76070  0.54720  0.70300  Biso   1.000  C
  C58      1.0000 0.73150  0.46840  0.38730  Biso   1.000  C
  C59      1.0000 0.87060  0.61750  0.39630  Biso   1.000  C
  C60      1.0000 0.65940  0.65110  0.41680  Biso   1.000  C
  C61      1.0000 0.53930  0.72610  0.29238  Biso   1.000  C
  C62      1.0000 0.64940  0.72110  0.26909  Biso   1.000  C
  C63      1.0000 0.73030  0.80560  0.28153  Biso   1.000  C
  C64      1.0000 0.69959  0.89222  0.31642  Biso   1.000  C
  C65      1.0000 0.58810  0.89010  0.33745  Biso   1.000  C
  C66      1.0000 0.67560  0.63086  0.22871  Biso   1.000  C
  C67      1.0000 0.81564  0.41756  0.14263  Biso   1.000  C
  C68      1.0000 0.57540  0.60904  0.09238  Biso   1.000  C
  C69      1.0000 0.58540  0.69740  0.92690  Biso   1.000  C
  C70      1.0000 0.51630  0.66880  0.96846  Biso   1.000  C
  C71      1.0000 0.57500  0.66321  0.01072  Biso   1.000  C
  C72      1.0000 0.51350  0.62641  0.04725  Biso   1.000  C
  C73      1.0000 0.39290  0.60110  0.04010  Biso   1.000  C
  C74      1.0000 0.39550  0.64290  0.96526  Biso   1.000  C
  C75      1.0000 0.78154  0.98875  0.32890  Biso   1.000  C
  C76      1.0000 0.94451  0.21055  0.27297  Biso   1.000  C
  C77      1.0000 0.96232  0.24769  0.22575  Biso   1.000  C
  C78      1.0000 0.01481  0.32352  0.14411  Biso   1.000  C
  C79      1.0000 0.90338  0.34630  0.16405  Biso   1.000  C
  C80      1.0000 0.87577  0.30681  0.20555  Biso   1.000  C
  C81      1.0000 0.07070  0.22571  0.20243  Biso   1.000  C
  C82      1.0000 0.88650  0.61860  0.04247  Biso   1.000  C
  C83      1.0000 0.88360  0.54920  0.95920  Biso   1.000  C
  C84      1.0000 0.98910  0.72210  0.98939  Biso   1.000  C
  C85      1.0000 0.69030  0.85830  0.17340  Biso   1.000  C
  C86      1.0000 0.53940  0.97830  0.21410  Biso   1.000  C
  C87      1.0000 0.73930  0.04720  0.20300  Biso   1.000  C
  C88      1.0000 0.76850  0.96840  0.88730  Biso   1.000  C
  C89      1.0000 0.62940  0.11750  0.89630  Biso   1.000  C
  C90      1.0000 0.84060  0.15110  0.91680  Biso   1.000  C
  C91      1.0000 0.03930  0.77390  0.20762  Biso   1.000  C
  C92      1.0000 0.14940  0.77890  0.23091  Biso   1.000  C
  C93      1.0000 0.23030  0.69440  0.21847  Biso   1.000  C
  C94      1.0000 0.19959  0.60778  0.18358  Biso   1.000  C
  C95      1.0000 0.08810  0.60990  0.16255  Biso   1.000  C
  C96      1.0000 0.17560  0.86914  0.27129  Biso   1.000  C
  C97      1.0000 0.31564  0.08244  0.35737  Biso   1.000  C
  C98      1.0000 0.07540  0.89096  0.40762  Biso   1.000  C
  C99      1.0000 0.08540  0.80260  0.57310  Biso   1.000  C
  C100     1.0000 0.01630  0.83120  0.53154  Biso   1.000  C
  C101     1.0000 0.07500  0.83679  0.48928  Biso   1.000  C
  C102     1.0000 0.01350  0.87359  0.45275  Biso   1.000  C
  C103     1.0000 0.89290  0.89890  0.45990  Biso   1.000  C
  C104     1.0000 0.89550  0.85710  0.53474  Biso   1.000  C
  C105     1.0000 0.28154  0.51125  0.17110  Biso   1.000  C
  C106     1.0000 0.44451  0.28945  0.22703  Biso   1.000  C
  C107     1.0000 0.46232  0.25231  0.27425  Biso   1.000  C
  C108     1.0000 0.51481  0.17648  0.35589  Biso   1.000  C
  C109     1.0000 0.40338  0.15370  0.33595  Biso   1.000  C
  C110     1.0000 0.37577  0.19319  0.29445  Biso   1.000  C
  C111     1.0000 0.57070  0.27429  0.29757  Biso   1.000  C
  C112     1.0000 0.38650  0.88140  0.45753  Biso   1.000  C
  C113     1.0000 0.38360  0.95080  0.54080  Biso   1.000  C
  C114     1.0000 0.48910  0.77790  0.51061  Biso   1.000  C
  C115     1.0000 0.19030  0.64170  0.32660  Biso   1.000  C
  C116     1.0000 0.03940  0.52170  0.28590  Biso   1.000  C
  C117     1.0000 0.23930  0.45280  0.29700  Biso   1.000  C
  C118     1.0000 0.26850  0.53160  0.61270  Biso   1.000  C
  C119     1.0000 0.12940  0.38250  0.60370  Biso   1.000  C
  C120     1.0000 0.34060  0.34890  0.58320  Biso   1.000  C
  N1       1.0000 0.49184  0.19050  0.67400  Biso   1.000  N
  N2       1.0000 0.90213  0.73741  0.83780  Biso   1.000  N
  N3       1.0000 0.66679  0.38880  0.99950  Biso   1.000  N
  N4       1.0000 0.08140  0.37058  0.00106  Biso   1.000  N
  N5       1.0000 0.34100  0.04300  0.80580  Biso   1.000  N
  N6       1.0000 0.25340  0.92600  0.10150  Biso   1.000  N
  N7       1.0000 0.99184  0.30950  0.82600  Biso   1.000  N
  N8       1.0000 0.40213  0.76259  0.66220  Biso   1.000  N
  N9       1.0000 0.16679  0.11120  0.50050  Biso   1.000  N
  N10      1.0000 0.58140  0.12942  0.49894  Biso   1.000  N
  N11      1.0000 0.84100  0.45700  0.69420  Biso   1.000  N
  N12      1.0000 0.75340  0.57400  0.39850  Biso   1.000  N
  N13      1.0000 0.50816  0.80950  0.32600  Biso   1.000  N
  N14      1.0000 0.09787  0.26259  0.16220  Biso   1.000  N
  N15      1.0000 0.33321  0.61120  0.00050  Biso   1.000  N
  N16      1.0000 0.91860  0.62942  0.99894  Biso   1.000  N
  N17      1.0000 0.65900  0.95700  0.19420  Biso   1.000  N
  N18      1.0000 0.74660  0.07400  0.89850  Biso   1.000  N
  N19      1.0000 0.00816  0.69050  0.17400  Biso   1.000  N
  N20      1.0000 0.59787  0.23741  0.33780  Biso   1.000  N
  N21      1.0000 0.83321  0.88880  0.49950  Biso   1.000  N
  N22      1.0000 0.41860  0.87058  0.50106  Biso   1.000  N
  N23      1.0000 0.15900  0.54300  0.30580  Biso   1.000  N
  N24      1.0000 0.24660  0.42600  0.60150  Biso   1.000  N
  O1       1.0000 0.29201  0.60735  0.85442  Biso   1.000  O
  O2       1.0000 0.14225  0.50547  0.87635  Biso   1.000  O
  O3       1.0000 0.47639  0.45188  0.88317  Biso   1.000  O
  O4       1.0000 0.32701  0.34242  0.89890  Biso   1.000  O
  O5       1.0000 0.39441  0.44797  0.77734  Biso   1.000  O
  O6       1.0000 0.23461  0.35540  0.79580  Biso   1.000  O
  O7       1.0000 0.46211  0.31683  0.11406  Biso   1.000  O
  O8       1.0000 0.31039  0.26521  0.06698  Biso   1.000  O
  O9       1.0000 0.25895  0.93202  0.64255  Biso   1.000  O
  O10      1.0000 0.11930  0.01499  0.69077  Biso   1.000  O
  O11      1.0000 0.15693  0.77196  0.70825  Biso   1.000  O
  O12      1.0000 0.96801  0.83206  0.71031  Biso   1.000  O
  O13      1.0000 0.08585  0.31766  0.92169  Biso   1.000  O
  O14      1.0000 0.20670  0.16685  0.84163  Biso   1.000  O
  O15      1.0000 0.29908  0.10480  0.13045  Biso   1.000  O
  O16      1.0000 0.79201  0.89265  0.64558  Biso   1.000  O
  O17      1.0000 0.64225  0.99453  0.62365  Biso   1.000  O
  O18      1.0000 0.97639  0.04812  0.61683  Biso   1.000  O
  O19      1.0000 0.82701  0.15758  0.60110  Biso   1.000  O
  O20      1.0000 0.89441  0.05203  0.72266  Biso   1.000  O
  O21      1.0000 0.73461  0.14460  0.70420  Biso   1.000  O
  O22      1.0000 0.96211  0.18317  0.38594  Biso   1.000  O
  O23      1.0000 0.81039  0.23479  0.43302  Biso   1.000  O
  O24      1.0000 0.75895  0.56798  0.85745  Biso   1.000  O
  O25      1.0000 0.61930  0.48501  0.80923  Biso   1.000  O
  O26      1.0000 0.65693  0.72804  0.79175  Biso   1.000  O
  O27      1.0000 0.46801  0.66794  0.78969  Biso   1.000  O
  O28      1.0000 0.58585  0.18234  0.57831  Biso   1.000  O
  O29      1.0000 0.70670  0.33315  0.65837  Biso   1.000  O
  O30      1.0000 0.79908  0.39520  0.36955  Biso   1.000  O
  O31      1.0000 0.70799  0.39265  0.14558  Biso   1.000  O
  O32      1.0000 0.85775  0.49453  0.12365  Biso   1.000  O
  O33      1.0000 0.52361  0.54812  0.11683  Biso   1.000  O
  O34      1.0000 0.67299  0.65758  0.10110  Biso   1.000  O
  O35      1.0000 0.60559  0.55203  0.22266  Biso   1.000  O
  O36      1.0000 0.76539  0.64460  0.20420  Biso   1.000  O
  O37      1.0000 0.53789  0.68317  0.88594  Biso   1.000  O
  O38      1.0000 0.68961  0.73479  0.93302  Biso   1.000  O
  O39      1.0000 0.74105  0.06798  0.35745  Biso   1.000  O
  O40      1.0000 0.88070  0.98501  0.30923  Biso   1.000  O
  O41      1.0000 0.84307  0.22804  0.29175  Biso   1.000  O
  O42      1.0000 0.03199  0.16794  0.28969  Biso   1.000  O
  O43      1.0000 0.91415  0.68234  0.07831  Biso   1.000  O
  O44      1.0000 0.79330  0.83315  0.15837  Biso   1.000  O
  O45      1.0000 0.70092  0.89520  0.86955  Biso   1.000  O
  O46      1.0000 0.20799  0.10735  0.35442  Biso   1.000  O
  O47      1.0000 0.35775  0.00547  0.37635  Biso   1.000  O
  O48      1.0000 0.02361  0.95188  0.38317  Biso   1.000  O
  O49      1.0000 0.17299  0.84242  0.39890  Biso   1.000  O
  O50      1.0000 0.10559  0.94797  0.27734  Biso   1.000  O
  O51      1.0000 0.26539  0.85540  0.29580  Biso   1.000  O
  O52      1.0000 0.03789  0.81683  0.61406  Biso   1.000  O
  O53      1.0000 0.18961  0.76521  0.56698  Biso   1.000  O
  O54      1.0000 0.24105  0.43202  0.14255  Biso   1.000  O
  O55      1.0000 0.38070  0.51499  0.19077  Biso   1.000  O
  O56      1.0000 0.34307  0.27196  0.20825  Biso   1.000  O
  O57      1.0000 0.53199  0.33206  0.21031  Biso   1.000  O
  O58      1.0000 0.41415  0.81766  0.42169  Biso   1.000  O
  O59      1.0000 0.29330  0.66685  0.34163  Biso   1.000  O
  O60      1.0000 0.20092  0.60480  0.63045  Biso   1.000  O
